MODEL 1
REMARK VINA RESULT:      -6.2      0.000      0.000
REMARK  Name = 5281239_Fucoxanthin.pdbqt.pdb
REMARK  19 active torsions:
REMARK  status: ('A' for Active; 'I' for Inactive)
REMARK    1  A    between atoms: C_1  and  C_5
REMARK    2  A    between atoms: C_2  and  C_26
REMARK    3  A    between atoms: C_3  and  C_5
REMARK    4  A    between atoms: C_3  and  C_7
REMARK    5  A    between atoms: C_6  and  C_10
REMARK    6  A    between atoms: C_8  and  C_10
REMARK    7  A    between atoms: C_8  and  C_12
REMARK    8  A    between atoms: C_12  and  C_13
REMARK    9  A    between atoms: C_13  and  C_15
REMARK   10  A    between atoms: C_20  and  O_24
REMARK   11  A    between atoms: C_26  and  C_27
REMARK   12  A    between atoms: C_27  and  C_30
REMARK   13  A    between atoms: C_29  and  C_33
REMARK   14  A    between atoms: C_31  and  C_33
REMARK   15  A    between atoms: C_31  and  C_44
REMARK   16  A    between atoms: C_35  and  O_45
REMARK   17  A    between atoms: C_37  and  O_47
REMARK   18  A    between atoms: C_39  and  C_43
REMARK   19  A    between atoms: O_47  and  C_49
REMARK                            x       y       z     vdW  Elec       q    Type
REMARK                         _______ _______ _______ _____ _____    ______ ____
ROOT
ATOM      1  C   UNL     1     -17.351  59.578 -22.553  0.00  0.00    +0.000 C 
ATOM      2  C   UNL     1     -17.837  60.579 -23.001  0.00  0.00    +0.000 C 
ENDROOT
BRANCH   2   3
ATOM      3  C   UNL     1     -18.466  61.857 -23.570  0.00  0.00    +0.000 C 
BRANCH   3   4
ATOM      4  C   UNL     1     -18.999  62.934 -24.054  0.00  0.00    +0.000 C 
ATOM      5  C   UNL     1     -18.290  63.703 -25.127  0.00  0.00    +0.000 C 
BRANCH   4   7
ATOM      6  C   UNL     1     -21.353  63.714 -23.220  0.00  0.00    +0.000 C 
ATOM      7  C   UNL     1     -20.273  63.355 -23.603  0.00  0.00    +0.000 C 
BRANCH   6   8
ATOM      8  C   UNL     1     -22.731  64.178 -22.731  0.00  0.00    +0.000 C 
BRANCH   8   9
ATOM      9  C   UNL     1     -23.895  64.563 -22.310  0.00  0.00    +0.000 C 
ATOM     10  C   UNL     1     -24.002  65.512 -21.156  0.00  0.00    +0.000 C 
BRANCH   9  12
ATOM     11  C   UNL     1     -26.066  63.515 -23.335  0.00  0.00    +0.000 C 
ATOM     12  C   UNL     1     -25.068  63.997 -22.867  0.00  0.00    +0.000 C 
BRANCH  11  18
ATOM     13  C   UNL     1     -27.327  62.738 -25.356  0.00  0.00    +0.000 C 
ATOM     14  C   UNL     1     -28.346  62.628 -22.965  0.00  0.00    +0.000 C 
ATOM     15  C   UNL     1     -28.484  61.874 -25.629  0.00  0.00    +0.000 C 
ATOM     16  C   UNL     1     -29.551  61.269 -24.939  0.00  0.00    +0.000 C 
ATOM     17  C   UNL     1     -29.302  61.757 -23.640  0.00  0.00    +0.000 C 
ATOM     18  C   UNL     1     -27.158  62.982 -23.846  0.00  0.00    +0.000 C 
ATOM     19  C   UNL     1     -27.511  64.109 -26.060  0.00  0.00    +0.000 C 
ATOM     20  C   UNL     1     -26.052  62.027 -25.903  0.00  0.00    +0.000 C 
ATOM     21  C   UNL     1     -29.025  63.892 -22.429  0.00  0.00    +0.000 C 
BRANCH  14  22
ATOM     22  O   UNL     1     -27.885  61.949 -21.818  0.00  0.00    +0.000 OA
ATOM     23  H   UNL     1     -27.522  61.133 -22.209  0.00  0.00    +0.000 HD
ENDBRANCH  14  22
BRANCH  16  24
ATOM     24  O   UNL     1     -30.829  61.331 -25.480  0.00  0.00    +0.000 OA
BRANCH  24  26
ATOM     25  O   UNL     1     -31.196  59.021 -25.664  0.00  0.00    +0.000 OA
ATOM     26  C   UNL     1     -31.130  60.159 -26.092  0.00  0.00    +0.000 C 
ATOM     27  C   UNL     1     -31.419  60.288 -27.546  0.00  0.00    +0.000 C 
ENDBRANCH  24  26
ENDBRANCH  16  24
ENDBRANCH  11  18
ENDBRANCH   9  12
ENDBRANCH   8   9
ENDBRANCH   6   8
ENDBRANCH   4   7
ENDBRANCH   3   4
ENDBRANCH   2   3
BRANCH   1  28
ATOM     28  C   UNL     1     -16.738  58.297 -21.975  0.00  0.00    +0.000 C 
BRANCH  28  29
ATOM     29  C   UNL     1     -16.230  57.209 -21.489  0.00  0.00    +0.000 C 
ATOM     30  C   UNL     1     -15.790  57.162 -20.057  0.00  0.00    +0.000 C 
BRANCH  29  32
ATOM     31  C   UNL     1     -15.896  55.119 -23.026  0.00  0.00    +0.000 C 
ATOM     32  C   UNL     1     -16.056  56.079 -22.323  0.00  0.00    +0.000 C 
BRANCH  31  33
ATOM     33  C   UNL     1     -15.675  53.891 -23.919  0.00  0.00    +0.000 C 
BRANCH  33  34
ATOM     34  C   UNL     1     -15.490  52.856 -24.683  0.00  0.00    +0.000 C 
ATOM     35  C   UNL     1     -14.417  51.875 -24.255  0.00  0.00    +0.000 C 
BRANCH  34  37
ATOM     36  O   UNL     1     -16.651  51.596 -26.349  0.00  0.00    +0.000 OA
ATOM     37  C   UNL     1     -16.281  52.693 -25.942  0.00  0.00    +0.000 C 
BRANCH  37  38
ATOM     38  C   UNL     1     -16.650  53.837 -26.740  0.00  0.00    +0.000 C 
BRANCH  38  40
ATOM     39  O   UNL     1     -16.541  54.761 -28.926  0.00  0.00    +0.000 OA
ATOM     40  C   UNL     1     -17.025  54.966 -27.570  0.00  0.00    +0.000 C 
ATOM     41  C   UNL     1     -17.960  54.737 -28.777  0.00  0.00    +0.000 C 
ATOM     42  C   UNL     1     -16.904  56.423 -26.995  0.00  0.00    +0.000 C 
ATOM     43  C   UNL     1     -18.581  55.888 -29.349  0.00  0.00    +0.000 C 
ATOM     44  C   UNL     1     -17.618  57.307 -27.919  0.00  0.00    +0.000 C 
ATOM     45  C   UNL     1     -18.473  57.254 -29.037  0.00  0.00    +0.000 C 
ATOM     46  C   UNL     1     -18.581  53.376 -29.102  0.00  0.00    +0.000 C 
ATOM     47  C   UNL     1     -17.600  56.381 -25.613  0.00  0.00    +0.000 C 
ATOM     48  C   UNL     1     -15.391  56.713 -26.887  0.00  0.00    +0.000 C 
BRANCH  45  49
ATOM     49  O   UNL     1     -19.508  58.127 -29.182  0.00  0.00    +0.000 OA
ATOM     50  H   UNL     1     -20.375  57.693 -29.097  0.00  0.00    +0.000 HD
ENDBRANCH  45  49
ENDBRANCH  38  40
ENDBRANCH  37  38
ENDBRANCH  34  37
ENDBRANCH  33  34
ENDBRANCH  31  33
ENDBRANCH  29  32
ENDBRANCH  28  29
ENDBRANCH   1  28
TORSDOF 19
ENDMDL
MODEL 2
REMARK VINA RESULT:      -6.2     27.455     31.033
REMARK  Name = 5281239_Fucoxanthin.pdbqt.pdb
REMARK  19 active torsions:
REMARK  status: ('A' for Active; 'I' for Inactive)
REMARK    1  A    between atoms: C_1  and  C_5
REMARK    2  A    between atoms: C_2  and  C_26
REMARK    3  A    between atoms: C_3  and  C_5
REMARK    4  A    between atoms: C_3  and  C_7
REMARK    5  A    between atoms: C_6  and  C_10
REMARK    6  A    between atoms: C_8  and  C_10
REMARK    7  A    between atoms: C_8  and  C_12
REMARK    8  A    between atoms: C_12  and  C_13
REMARK    9  A    between atoms: C_13  and  C_15
REMARK   10  A    between atoms: C_20  and  O_24
REMARK   11  A    between atoms: C_26  and  C_27
REMARK   12  A    between atoms: C_27  and  C_30
REMARK   13  A    between atoms: C_29  and  C_33
REMARK   14  A    between atoms: C_31  and  C_33
REMARK   15  A    between atoms: C_31  and  C_44
REMARK   16  A    between atoms: C_35  and  O_45
REMARK   17  A    between atoms: C_37  and  O_47
REMARK   18  A    between atoms: C_39  and  C_43
REMARK   19  A    between atoms: O_47  and  C_49
REMARK                            x       y       z     vdW  Elec       q    Type
REMARK                         _______ _______ _______ _____ _____    ______ ____
ROOT
ATOM      1  C   UNL     1     -39.757  48.863  -4.761  0.00  0.00    +0.000 C 
ATOM      2  C   UNL     1     -40.002  48.527  -3.635  0.00  0.00    +0.000 C 
ENDROOT
BRANCH   2   3
ATOM      3  C   UNL     1     -40.321  48.102  -2.197  0.00  0.00    +0.000 C 
BRANCH   3   4
ATOM      4  C   UNL     1     -40.592  47.739  -0.983  0.00  0.00    +0.000 C 
ATOM      5  C   UNL     1     -41.603  48.503  -0.182  0.00  0.00    +0.000 C 
BRANCH   4   7
ATOM      6  C   UNL     1     -39.441  45.621   0.035  0.00  0.00    +0.000 C 
ATOM      7  C   UNL     1     -39.971  46.593  -0.433  0.00  0.00    +0.000 C 
BRANCH   6   8
ATOM      8  C   UNL     1     -38.765  44.384   0.636  0.00  0.00    +0.000 C 
BRANCH   8   9
ATOM      9  C   UNL     1     -38.193  43.333   1.135  0.00  0.00    +0.000 C 
ATOM     10  C   UNL     1     -38.018  43.202   2.617  0.00  0.00    +0.000 C 
BRANCH   9  12
ATOM     11  C   UNL     1     -37.155  41.536  -0.464  0.00  0.00    +0.000 C 
ATOM     12  C   UNL     1     -37.629  42.361   0.272  0.00  0.00    +0.000 C 
BRANCH  11  18
ATOM     13  C   UNL     1     -35.659  40.992  -2.399  0.00  0.00    +0.000 C 
ATOM     14  C   UNL     1     -37.034  39.164  -1.159  0.00  0.00    +0.000 C 
ATOM     15  C   UNL     1     -35.009  39.793  -2.945  0.00  0.00    +0.000 C 
ATOM     16  C   UNL     1     -35.073  38.392  -2.818  0.00  0.00    +0.000 C 
ATOM     17  C   UNL     1     -36.127  38.285  -1.887  0.00  0.00    +0.000 C 
ATOM     18  C   UNL     1     -36.639  40.629  -1.269  0.00  0.00    +0.000 C 
ATOM     19  C   UNL     1     -36.445  41.725  -3.519  0.00  0.00    +0.000 C 
ATOM     20  C   UNL     1     -34.549  41.927  -1.830  0.00  0.00    +0.000 C 
ATOM     21  C   UNL     1     -38.486  38.956  -1.598  0.00  0.00    +0.000 C 
BRANCH  14  22
ATOM     22  O   UNL     1     -37.006  38.779   0.198  0.00  0.00    +0.000 OA
ATOM     23  H   UNL     1     -37.536  39.486   0.610  0.00  0.00    +0.000 HD
ENDBRANCH  14  22
BRANCH  16  24
ATOM     24  O   UNL     1     -35.065  37.607  -3.964  0.00  0.00    +0.000 OA
BRANCH  24  26
ATOM     25  O   UNL     1     -32.786  37.049  -3.952  0.00  0.00    +0.000 OA
ATOM     26  C   UNL     1     -33.802  37.504  -4.446  0.00  0.00    +0.000 C 
ATOM     27  C   UNL     1     -33.626  38.054  -5.817  0.00  0.00    +0.000 C 
ENDBRANCH  24  26
ENDBRANCH  16  24
ENDBRANCH  11  18
ENDBRANCH   9  12
ENDBRANCH   8   9
ENDBRANCH   6   8
ENDBRANCH   4   7
ENDBRANCH   3   4
ENDBRANCH   2   3
BRANCH   1  28
ATOM     28  C   UNL     1     -39.449  49.302  -6.197  0.00  0.00    +0.000 C 
BRANCH  28  29
ATOM     29  C   UNL     1     -39.187  49.662  -7.413  0.00  0.00    +0.000 C 
ATOM     30  C   UNL     1     -39.607  51.014  -7.902  0.00  0.00    +0.000 C 
BRANCH  29  32
ATOM     31  C   UNL     1     -37.977  48.004  -9.037  0.00  0.00    +0.000 C 
ATOM     32  C   UNL     1     -38.537  48.759  -8.289  0.00  0.00    +0.000 C 
BRANCH  31  33
ATOM     33  C   UNL     1     -37.252  47.053  -9.996  0.00  0.00    +0.000 C 
BRANCH  33  34
ATOM     34  C   UNL     1     -36.638  46.239 -10.803  0.00  0.00    +0.000 C 
ATOM     35  C   UNL     1     -37.343  45.905 -12.102  0.00  0.00    +0.000 C 
BRANCH  34  37
ATOM     36  O   UNL     1     -34.548  45.168 -11.245  0.00  0.00    +0.000 OA
ATOM     37  C   UNL     1     -35.323  45.640 -10.418  0.00  0.00    +0.000 C 
BRANCH  37  38
ATOM     38  C   UNL     1     -34.902  45.596  -9.038  0.00  0.00    +0.000 C 
BRANCH  38  40
ATOM     39  O   UNL     1     -35.307  46.423  -6.849  0.00  0.00    +0.000 OA
ATOM     40  C   UNL     1     -34.452  45.571  -7.660  0.00  0.00    +0.000 C 
ATOM     41  C   UNL     1     -35.397  45.027  -6.568  0.00  0.00    +0.000 C 
ATOM     42  C   UNL     1     -32.913  45.622  -7.347  0.00  0.00    +0.000 C 
ATOM     43  C   UNL     1     -34.815  44.693  -5.308  0.00  0.00    +0.000 C 
ATOM     44  C   UNL     1     -32.754  45.286  -5.931  0.00  0.00    +0.000 C 
ATOM     45  C   UNL     1     -33.496  44.803  -4.835  0.00  0.00    +0.000 C 
ATOM     46  C   UNL     1     -36.773  44.432  -6.878  0.00  0.00    +0.000 C 
ATOM     47  C   UNL     1     -32.272  44.543  -8.253  0.00  0.00    +0.000 C 
ATOM     48  C   UNL     1     -32.453  47.050  -7.712  0.00  0.00    +0.000 C 
BRANCH  45  49
ATOM     49  O   UNL     1     -32.957  43.927  -3.942  0.00  0.00    +0.000 OA
ATOM     50  H   UNL     1     -32.699  43.085  -4.357  0.00  0.00    +0.000 HD
ENDBRANCH  45  49
ENDBRANCH  38  40
ENDBRANCH  37  38
ENDBRANCH  34  37
ENDBRANCH  33  34
ENDBRANCH  31  33
ENDBRANCH  29  32
ENDBRANCH  28  29
ENDBRANCH   1  28
TORSDOF 19
ENDMDL
MODEL 3
REMARK VINA RESULT:      -6.2     22.333     26.025
REMARK  Name = 5281239_Fucoxanthin.pdbqt.pdb
REMARK  19 active torsions:
REMARK  status: ('A' for Active; 'I' for Inactive)
REMARK    1  A    between atoms: C_1  and  C_5
REMARK    2  A    between atoms: C_2  and  C_26
REMARK    3  A    between atoms: C_3  and  C_5
REMARK    4  A    between atoms: C_3  and  C_7
REMARK    5  A    between atoms: C_6  and  C_10
REMARK    6  A    between atoms: C_8  and  C_10
REMARK    7  A    between atoms: C_8  and  C_12
REMARK    8  A    between atoms: C_12  and  C_13
REMARK    9  A    between atoms: C_13  and  C_15
REMARK   10  A    between atoms: C_20  and  O_24
REMARK   11  A    between atoms: C_26  and  C_27
REMARK   12  A    between atoms: C_27  and  C_30
REMARK   13  A    between atoms: C_29  and  C_33
REMARK   14  A    between atoms: C_31  and  C_33
REMARK   15  A    between atoms: C_31  and  C_44
REMARK   16  A    between atoms: C_35  and  O_45
REMARK   17  A    between atoms: C_37  and  O_47
REMARK   18  A    between atoms: C_39  and  C_43
REMARK   19  A    between atoms: O_47  and  C_49
REMARK                            x       y       z     vdW  Elec       q    Type
REMARK                         _______ _______ _______ _____ _____    ______ ____
ROOT
ATOM      1  C   UNL     1     -39.623  49.593  -9.048  0.00  0.00    +0.000 C 
ATOM      2  C   UNL     1     -40.011  50.310  -8.168  0.00  0.00    +0.000 C 
ENDROOT
BRANCH   2   3
ATOM      3  C   UNL     1     -40.501  51.231  -7.044  0.00  0.00    +0.000 C 
BRANCH   3   4
ATOM      4  C   UNL     1     -40.913  52.011  -6.094  0.00  0.00    +0.000 C 
ATOM      5  C   UNL     1     -41.231  51.443  -4.745  0.00  0.00    +0.000 C 
BRANCH   4   7
ATOM      6  C   UNL     1     -41.091  54.588  -6.511  0.00  0.00    +0.000 C 
ATOM      7  C   UNL     1     -41.011  53.405  -6.320  0.00  0.00    +0.000 C 
BRANCH   6   8
ATOM      8  C   UNL     1     -41.191  56.098  -6.760  0.00  0.00    +0.000 C 
BRANCH   8   9
ATOM      9  C   UNL     1     -41.285  57.374  -6.967  0.00  0.00    +0.000 C 
ATOM     10  C   UNL     1     -42.542  57.954  -7.540  0.00  0.00    +0.000 C 
BRANCH   9  12
ATOM     11  C   UNL     1     -39.196  58.909  -6.589  0.00  0.00    +0.000 C 
ATOM     12  C   UNL     1     -40.157  58.206  -6.760  0.00  0.00    +0.000 C 
BRANCH  11  18
ATOM     13  C   UNL     1     -37.307  59.625  -5.106  0.00  0.00    +0.000 C 
ATOM     14  C   UNL     1     -37.718  60.703  -7.437  0.00  0.00    +0.000 C 
ATOM     15  C   UNL     1     -36.035  60.343  -5.264  0.00  0.00    +0.000 C 
ATOM     16  C   UNL     1     -35.376  61.151  -6.210  0.00  0.00    +0.000 C 
ATOM     17  C   UNL     1     -36.368  61.204  -7.211  0.00  0.00    +0.000 C 
ATOM     18  C   UNL     1     -38.140  59.676  -6.399  0.00  0.00    +0.000 C 
ATOM     19  C   UNL     1     -38.137  60.261  -3.958  0.00  0.00    +0.000 C 
ATOM     20  C   UNL     1     -36.984  58.138  -4.765  0.00  0.00    +0.000 C 
ATOM     21  C   UNL     1     -38.732  61.849  -7.515  0.00  0.00    +0.000 C 
BRANCH  14  22
ATOM     22  O   UNL     1     -37.745  60.107  -8.715  0.00  0.00    +0.000 OA
ATOM     23  H   UNL     1     -37.542  60.869  -9.288  0.00  0.00    +0.000 HD
ENDBRANCH  14  22
BRANCH  16  24
ATOM     24  O   UNL     1     -34.743  62.312  -5.785  0.00  0.00    +0.000 OA
BRANCH  24  26
ATOM     25  O   UNL     1     -33.039  61.823  -7.322  0.00  0.00    +0.000 OA
ATOM     26  C   UNL     1     -33.534  62.428  -6.389  0.00  0.00    +0.000 C 
ATOM     27  C   UNL     1     -32.655  63.472  -5.796  0.00  0.00    +0.000 C 
ENDBRANCH  24  26
ENDBRANCH  16  24
ENDBRANCH  11  18
ENDBRANCH   9  12
ENDBRANCH   8   9
ENDBRANCH   6   8
ENDBRANCH   4   7
ENDBRANCH   3   4
ENDBRANCH   2   3
BRANCH   1  28
ATOM     28  C   UNL     1     -39.120  48.685 -10.177  0.00  0.00    +0.000 C 
BRANCH  28  29
ATOM     29  C   UNL     1     -38.705  47.920 -11.136  0.00  0.00    +0.000 C 
ATOM     30  C   UNL     1     -39.405  47.932 -12.461  0.00  0.00    +0.000 C 
BRANCH  29  32
ATOM     31  C   UNL     1     -36.692  46.296 -10.741  0.00  0.00    +0.000 C 
ATOM     32  C   UNL     1     -37.614  47.046 -10.916  0.00  0.00    +0.000 C 
BRANCH  31  33
ATOM     33  C   UNL     1     -35.521  45.329 -10.528  0.00  0.00    +0.000 C 
BRANCH  33  34
ATOM     34  C   UNL     1     -34.527  44.509 -10.357  0.00  0.00    +0.000 C 
ATOM     35  C   UNL     1     -33.255  44.808 -11.124  0.00  0.00    +0.000 C 
BRANCH  34  37
ATOM     36  O   UNL     1     -35.045  42.220  -9.905  0.00  0.00    +0.000 OA
ATOM     37  C   UNL     1     -34.678  43.309  -9.476  0.00  0.00    +0.000 C 
BRANCH  37  38
ATOM     38  C   UNL     1     -34.391  43.385  -8.064  0.00  0.00    +0.000 C 
BRANCH  38  40
ATOM     39  O   UNL     1     -35.224  42.994  -5.873  0.00  0.00    +0.000 OA
ATOM     40  C   UNL     1     -34.099  43.496  -6.647  0.00  0.00    +0.000 C 
ATOM     41  C   UNL     1     -34.032  42.214  -5.789  0.00  0.00    +0.000 C 
ATOM     42  C   UNL     1     -33.393  44.788  -6.102  0.00  0.00    +0.000 C 
ATOM     43  C   UNL     1     -33.410  42.318  -4.509  0.00  0.00    +0.000 C 
ATOM     44  C   UNL     1     -32.966  44.495  -4.732  0.00  0.00    +0.000 C 
ATOM     45  C   UNL     1     -32.855  43.418  -3.831  0.00  0.00    +0.000 C 
ATOM     46  C   UNL     1     -34.184  40.809  -6.378  0.00  0.00    +0.000 C 
ATOM     47  C   UNL     1     -32.175  45.017  -7.029  0.00  0.00    +0.000 C 
ATOM     48  C   UNL     1     -34.438  45.920  -6.208  0.00  0.00    +0.000 C 
BRANCH  45  49
ATOM     49  O   UNL     1     -31.794  43.303  -2.986  0.00  0.00    +0.000 OA
ATOM     50  H   UNL     1     -31.506  42.380  -2.873  0.00  0.00    +0.000 HD
ENDBRANCH  45  49
ENDBRANCH  38  40
ENDBRANCH  37  38
ENDBRANCH  34  37
ENDBRANCH  33  34
ENDBRANCH  31  33
ENDBRANCH  29  32
ENDBRANCH  28  29
ENDBRANCH   1  28
TORSDOF 19
ENDMDL
MODEL 4
REMARK VINA RESULT:      -6.1     17.457     22.049
REMARK  Name = 5281239_Fucoxanthin.pdbqt.pdb
REMARK  19 active torsions:
REMARK  status: ('A' for Active; 'I' for Inactive)
REMARK    1  A    between atoms: C_1  and  C_5
REMARK    2  A    between atoms: C_2  and  C_26
REMARK    3  A    between atoms: C_3  and  C_5
REMARK    4  A    between atoms: C_3  and  C_7
REMARK    5  A    between atoms: C_6  and  C_10
REMARK    6  A    between atoms: C_8  and  C_10
REMARK    7  A    between atoms: C_8  and  C_12
REMARK    8  A    between atoms: C_12  and  C_13
REMARK    9  A    between atoms: C_13  and  C_15
REMARK   10  A    between atoms: C_20  and  O_24
REMARK   11  A    between atoms: C_26  and  C_27
REMARK   12  A    between atoms: C_27  and  C_30
REMARK   13  A    between atoms: C_29  and  C_33
REMARK   14  A    between atoms: C_31  and  C_33
REMARK   15  A    between atoms: C_31  and  C_44
REMARK   16  A    between atoms: C_35  and  O_45
REMARK   17  A    between atoms: C_37  and  O_47
REMARK   18  A    between atoms: C_39  and  C_43
REMARK   19  A    between atoms: O_47  and  C_49
REMARK                            x       y       z     vdW  Elec       q    Type
REMARK                         _______ _______ _______ _____ _____    ______ ____
ROOT
ATOM      1  C   UNL     1     -36.439  49.278 -17.254  0.00  0.00    +0.000 C 
ATOM      2  C   UNL     1     -36.126  49.464 -18.397  0.00  0.00    +0.000 C 
ENDROOT
BRANCH   2   3
ATOM      3  C   UNL     1     -35.733  49.704 -19.860  0.00  0.00    +0.000 C 
BRANCH   3   4
ATOM      4  C   UNL     1     -35.403  49.904 -21.097  0.00  0.00    +0.000 C 
ATOM      5  C   UNL     1     -34.403  49.005 -21.759  0.00  0.00    +0.000 C 
BRANCH   4   7
ATOM      6  C   UNL     1     -36.554  51.816 -22.463  0.00  0.00    +0.000 C 
ATOM      7  C   UNL     1     -36.024  50.939 -21.835  0.00  0.00    +0.000 C 
BRANCH   6   8
ATOM      8  C   UNL     1     -37.233  52.932 -23.264  0.00  0.00    +0.000 C 
BRANCH   8   9
ATOM      9  C   UNL     1     -37.805  53.883 -23.934  0.00  0.00    +0.000 C 
ATOM     10  C   UNL     1     -37.765  53.880 -25.431  0.00  0.00    +0.000 C 
BRANCH   9  12
ATOM     11  C   UNL     1     -38.843  55.929 -22.668  0.00  0.00    +0.000 C 
ATOM     12  C   UNL     1     -38.369  54.988 -23.248  0.00  0.00    +0.000 C 
BRANCH  11  18
ATOM     13  C   UNL     1     -40.010  56.829 -20.642  0.00  0.00    +0.000 C 
ATOM     14  C   UNL     1     -39.388  58.342 -22.664  0.00  0.00    +0.000 C 
ATOM     15  C   UNL     1     -40.230  58.146 -20.030  0.00  0.00    +0.000 C 
ATOM     16  C   UNL     1     -40.113  59.510 -20.361  0.00  0.00    +0.000 C 
ATOM     17  C   UNL     1     -39.678  59.394 -21.697  0.00  0.00    +0.000 C 
ATOM     18  C   UNL     1     -39.359  56.961 -22.030  0.00  0.00    +0.000 C 
ATOM     19  C   UNL     1     -41.364  56.085 -20.800  0.00  0.00    +0.000 C 
ATOM     20  C   UNL     1     -39.064  56.013 -19.709  0.00  0.00    +0.000 C 
ATOM     21  C   UNL     1     -40.365  58.382 -23.842  0.00  0.00    +0.000 C 
BRANCH  14  22
ATOM     22  O   UNL     1     -38.126  58.618 -23.230  0.00  0.00    +0.000 OA
ATOM     23  H   UNL     1     -38.183  58.135 -24.075  0.00  0.00    +0.000 HD
ENDBRANCH  14  22
BRANCH  16  24
ATOM     24  O   UNL     1     -41.146  60.378 -20.030  0.00  0.00    +0.000 OA
BRANCH  24  26
ATOM     25  O   UNL     1     -42.674  59.146 -18.744  0.00  0.00    +0.000 OA
ATOM     26  C   UNL     1     -42.275  59.675 -19.766  0.00  0.00    +0.000 C 
ATOM     27  C   UNL     1     -43.179  59.512 -20.937  0.00  0.00    +0.000 C 
ENDBRANCH  24  26
ENDBRANCH  16  24
ENDBRANCH  11  18
ENDBRANCH   9  12
ENDBRANCH   8   9
ENDBRANCH   6   8
ENDBRANCH   4   7
ENDBRANCH   3   4
ENDBRANCH   2   3
BRANCH   1  28
ATOM     28  C   UNL     1     -36.849  49.043 -15.795  0.00  0.00    +0.000 C 
BRANCH  28  29
ATOM     29  C   UNL     1     -37.194  48.857 -14.561  0.00  0.00    +0.000 C 
ATOM     30  C   UNL     1     -38.275  49.694 -13.949  0.00  0.00    +0.000 C 
BRANCH  29  32
ATOM     31  C   UNL     1     -35.956  47.066 -13.109  0.00  0.00    +0.000 C 
ATOM     32  C   UNL     1     -36.519  47.887 -13.781  0.00  0.00    +0.000 C 
BRANCH  31  33
ATOM     33  C   UNL     1     -35.247  46.021 -12.238  0.00  0.00    +0.000 C 
BRANCH  33  34
ATOM     34  C   UNL     1     -34.644  45.142 -11.495  0.00  0.00    +0.000 C 
ATOM     35  C   UNL     1     -33.251  44.727 -11.922  0.00  0.00    +0.000 C 
BRANCH  34  37
ATOM     36  O   UNL     1     -36.501  44.171 -10.347  0.00  0.00    +0.000 OA
ATOM     37  C   UNL     1     -35.336  44.553 -10.307  0.00  0.00    +0.000 C 
BRANCH  37  38
ATOM     38  C   UNL     1     -34.649  44.405  -9.046  0.00  0.00    +0.000 C 
BRANCH  38  40
ATOM     39  O   UNL     1     -32.526  44.354  -7.981  0.00  0.00    +0.000 OA
ATOM     40  C   UNL     1     -33.961  44.221  -7.783  0.00  0.00    +0.000 C 
ATOM     41  C   UNL     1     -33.130  45.384  -7.200  0.00  0.00    +0.000 C 
ATOM     42  C   UNL     1     -34.430  43.086  -6.803  0.00  0.00    +0.000 C 
ATOM     43  C   UNL     1     -32.764  45.300  -5.823  0.00  0.00    +0.000 C 
ATOM     44  C   UNL     1     -33.768  43.328  -5.519  0.00  0.00    +0.000 C 
ATOM     45  C   UNL     1     -32.991  44.301  -4.861  0.00  0.00    +0.000 C 
ATOM     46  C   UNL     1     -33.057  46.765  -7.857  0.00  0.00    +0.000 C 
ATOM     47  C   UNL     1     -35.964  43.254  -6.681  0.00  0.00    +0.000 C 
ATOM     48  C   UNL     1     -34.033  41.753  -7.476  0.00  0.00    +0.000 C 
BRANCH  45  49
ATOM     49  O   UNL     1     -33.170  44.578  -3.539  0.00  0.00    +0.000 OA
ATOM     50  H   UNL     1     -33.523  43.817  -3.045  0.00  0.00    +0.000 HD
ENDBRANCH  45  49
ENDBRANCH  38  40
ENDBRANCH  37  38
ENDBRANCH  34  37
ENDBRANCH  33  34
ENDBRANCH  31  33
ENDBRANCH  29  32
ENDBRANCH  28  29
ENDBRANCH   1  28
TORSDOF 19
ENDMDL
MODEL 5
REMARK VINA RESULT:      -6.1      7.250     11.671
REMARK  Name = 5281239_Fucoxanthin.pdbqt.pdb
REMARK  19 active torsions:
REMARK  status: ('A' for Active; 'I' for Inactive)
REMARK    1  A    between atoms: C_1  and  C_5
REMARK    2  A    between atoms: C_2  and  C_26
REMARK    3  A    between atoms: C_3  and  C_5
REMARK    4  A    between atoms: C_3  and  C_7
REMARK    5  A    between atoms: C_6  and  C_10
REMARK    6  A    between atoms: C_8  and  C_10
REMARK    7  A    between atoms: C_8  and  C_12
REMARK    8  A    between atoms: C_12  and  C_13
REMARK    9  A    between atoms: C_13  and  C_15
REMARK   10  A    between atoms: C_20  and  O_24
REMARK   11  A    between atoms: C_26  and  C_27
REMARK   12  A    between atoms: C_27  and  C_30
REMARK   13  A    between atoms: C_29  and  C_33
REMARK   14  A    between atoms: C_31  and  C_33
REMARK   15  A    between atoms: C_31  and  C_44
REMARK   16  A    between atoms: C_35  and  O_45
REMARK   17  A    between atoms: C_37  and  O_47
REMARK   18  A    between atoms: C_39  and  C_43
REMARK   19  A    between atoms: O_47  and  C_49
REMARK                            x       y       z     vdW  Elec       q    Type
REMARK                         _______ _______ _______ _____ _____    ______ ____
ROOT
ATOM      1  C   UNL     1     -17.118  55.019 -26.641  0.00  0.00    +0.000 C 
ATOM      2  C   UNL     1     -16.612  54.472 -25.701  0.00  0.00    +0.000 C 
ENDROOT
BRANCH   2   3
ATOM      3  C   UNL     1     -15.966  53.779 -24.495  0.00  0.00    +0.000 C 
BRANCH   3   4
ATOM      4  C   UNL     1     -15.423  53.191 -23.476  0.00  0.00    +0.000 C 
ATOM      5  C   UNL     1     -15.036  51.746 -23.564  0.00  0.00    +0.000 C 
BRANCH   4   7
ATOM      6  C   UNL     1     -14.921  54.557 -21.301  0.00  0.00    +0.000 C 
ATOM      7  C   UNL     1     -15.151  53.928 -22.298  0.00  0.00    +0.000 C 
BRANCH   6   8
ATOM      8  C   UNL     1     -14.630  55.362 -20.029  0.00  0.00    +0.000 C 
BRANCH   8   9
ATOM      9  C   UNL     1     -14.391  56.050 -18.957  0.00  0.00    +0.000 C 
ATOM     10  C   UNL     1     -13.341  55.598 -17.990  0.00  0.00    +0.000 C 
BRANCH   9  12
ATOM     11  C   UNL     1     -15.896  58.116 -18.379  0.00  0.00    +0.000 C 
ATOM     12  C   UNL     1     -15.205  57.167 -18.641  0.00  0.00    +0.000 C 
BRANCH  11  18
ATOM     13  C   UNL     1     -16.777  60.367 -19.038  0.00  0.00    +0.000 C 
ATOM     14  C   UNL     1     -17.400  59.248 -16.773  0.00  0.00    +0.000 C 
ATOM     15  C   UNL     1     -17.889  61.240 -18.639  0.00  0.00    +0.000 C 
ATOM     16  C   UNL     1     -18.827  61.365 -17.596  0.00  0.00    +0.000 C 
ATOM     17  C   UNL     1     -18.424  60.287 -16.782  0.00  0.00    +0.000 C 
ATOM     18  C   UNL     1     -16.650  59.159 -18.093  0.00  0.00    +0.000 C 
ATOM     19  C   UNL     1     -15.443  61.160 -19.007  0.00  0.00    +0.000 C 
ATOM     20  C   UNL     1     -17.056  59.857 -20.484  0.00  0.00    +0.000 C 
ATOM     21  C   UNL     1     -16.428  59.433 -15.604  0.00  0.00    +0.000 C 
BRANCH  14  22
ATOM     22  O   UNL     1     -18.041  58.018 -16.521  0.00  0.00    +0.000 OA
ATOM     23  H   UNL     1     -18.857  58.312 -16.076  0.00  0.00    +0.000 HD
ENDBRANCH  14  22
BRANCH  16  24
ATOM     24  O   UNL     1     -19.059  62.617 -17.041  0.00  0.00    +0.000 OA
BRANCH  24  26
ATOM     25  O   UNL     1     -16.901  63.277 -16.399  0.00  0.00    +0.000 OA
ATOM     26  C   UNL     1     -17.920  63.351 -17.062  0.00  0.00    +0.000 C 
ATOM     27  C   UNL     1     -17.922  64.450 -18.065  0.00  0.00    +0.000 C 
ENDBRANCH  24  26
ENDBRANCH  16  24
ENDBRANCH  11  18
ENDBRANCH   9  12
ENDBRANCH   8   9
ENDBRANCH   6   8
ENDBRANCH   4   7
ENDBRANCH   3   4
ENDBRANCH   2   3
BRANCH   1  28
ATOM     28  C   UNL     1     -17.766  55.728 -27.837  0.00  0.00    +0.000 C 
BRANCH  28  29
ATOM     29  C   UNL     1     -18.305  56.321 -28.854  0.00  0.00    +0.000 C 
ATOM     30  C   UNL     1     -18.290  57.816 -28.945  0.00  0.00    +0.000 C 
BRANCH  29  32
ATOM     31  C   UNL     1     -19.495  54.912 -30.711  0.00  0.00    +0.000 C 
ATOM     32  C   UNL     1     -18.943  55.554 -29.859  0.00  0.00    +0.000 C 
BRANCH  31  33
ATOM     33  C   UNL     1     -20.213  54.103 -31.796  0.00  0.00    +0.000 C 
BRANCH  33  34
ATOM     34  C   UNL     1     -20.829  53.422 -32.717  0.00  0.00    +0.000 C 
ATOM     35  C   UNL     1     -20.222  52.088 -33.102  0.00  0.00    +0.000 C 
BRANCH  34  37
ATOM     36  O   UNL     1     -22.132  55.149 -33.731  0.00  0.00    +0.000 OA
ATOM     37  C   UNL     1     -22.050  53.977 -33.379  0.00  0.00    +0.000 C 
BRANCH  37  38
ATOM     38  C   UNL     1     -23.198  53.141 -33.639  0.00  0.00    +0.000 C 
BRANCH  38  40
ATOM     39  O   UNL     1     -24.093  50.966 -33.306  0.00  0.00    +0.000 OA
ATOM     40  C   UNL     1     -24.332  52.274 -33.896  0.00  0.00    +0.000 C 
ATOM     41  C   UNL     1     -25.143  51.722 -32.704  0.00  0.00    +0.000 C 
ATOM     42  C   UNL     1     -25.015  52.291 -35.310  0.00  0.00    +0.000 C 
ATOM     43  C   UNL     1     -26.431  51.175 -32.989  0.00  0.00    +0.000 C 
ATOM     44  C   UNL     1     -26.279  51.562 -35.183  0.00  0.00    +0.000 C 
ATOM     45  C   UNL     1     -27.119  51.000 -34.202  0.00  0.00    +0.000 C 
ATOM     46  C   UNL     1     -24.857  52.109 -31.251  0.00  0.00    +0.000 C 
ATOM     47  C   UNL     1     -25.262  53.785 -35.632  0.00  0.00    +0.000 C 
ATOM     48  C   UNL     1     -24.003  51.637 -36.278  0.00  0.00    +0.000 C 
BRANCH  45  49
ATOM     49  O   UNL     1     -28.475  51.078 -34.298  0.00  0.00    +0.000 OA
ATOM     50  H   UNL     1     -28.922  50.789 -33.483  0.00  0.00    +0.000 HD
ENDBRANCH  45  49
ENDBRANCH  38  40
ENDBRANCH  37  38
ENDBRANCH  34  37
ENDBRANCH  33  34
ENDBRANCH  31  33
ENDBRANCH  29  32
ENDBRANCH  28  29
ENDBRANCH   1  28
TORSDOF 19
ENDMDL
MODEL 6
REMARK VINA RESULT:      -6.0      2.681     12.372
REMARK  Name = 5281239_Fucoxanthin.pdbqt.pdb
REMARK  19 active torsions:
REMARK  status: ('A' for Active; 'I' for Inactive)
REMARK    1  A    between atoms: C_1  and  C_5
REMARK    2  A    between atoms: C_2  and  C_26
REMARK    3  A    between atoms: C_3  and  C_5
REMARK    4  A    between atoms: C_3  and  C_7
REMARK    5  A    between atoms: C_6  and  C_10
REMARK    6  A    between atoms: C_8  and  C_10
REMARK    7  A    between atoms: C_8  and  C_12
REMARK    8  A    between atoms: C_12  and  C_13
REMARK    9  A    between atoms: C_13  and  C_15
REMARK   10  A    between atoms: C_20  and  O_24
REMARK   11  A    between atoms: C_26  and  C_27
REMARK   12  A    between atoms: C_27  and  C_30
REMARK   13  A    between atoms: C_29  and  C_33
REMARK   14  A    between atoms: C_31  and  C_33
REMARK   15  A    between atoms: C_31  and  C_44
REMARK   16  A    between atoms: C_35  and  O_45
REMARK   17  A    between atoms: C_37  and  O_47
REMARK   18  A    between atoms: C_39  and  C_43
REMARK   19  A    between atoms: O_47  and  C_49
REMARK                            x       y       z     vdW  Elec       q    Type
REMARK                         _______ _______ _______ _____ _____    ______ ____
ROOT
ATOM      1  C   UNL     1     -20.529  62.741 -23.095  0.00  0.00    +0.000 C 
ATOM      2  C   UNL     1     -19.586  62.033 -22.870  0.00  0.00    +0.000 C 
ENDROOT
BRANCH   2   3
ATOM      3  C   UNL     1     -18.378  61.134 -22.582  0.00  0.00    +0.000 C 
BRANCH   3   4
ATOM      4  C   UNL     1     -17.354  60.378 -22.339  0.00  0.00    +0.000 C 
ATOM      5  C   UNL     1     -16.373  60.768 -21.275  0.00  0.00    +0.000 C 
BRANCH   4   7
ATOM      6  C   UNL     1     -17.055  58.129 -23.641  0.00  0.00    +0.000 C 
ATOM      7  C   UNL     1     -17.192  59.160 -23.042  0.00  0.00    +0.000 C 
BRANCH   6   8
ATOM      8  C   UNL     1     -16.876  56.814 -24.409  0.00  0.00    +0.000 C 
BRANCH   8   9
ATOM      9  C   UNL     1     -16.727  55.697 -25.050  0.00  0.00    +0.000 C 
ATOM     10  C   UNL     1     -15.996  54.555 -24.414  0.00  0.00    +0.000 C 
BRANCH   9  12
ATOM     11  C   UNL     1     -17.512  55.514 -27.543  0.00  0.00    +0.000 C 
ATOM     12  C   UNL     1     -17.154  55.596 -26.398  0.00  0.00    +0.000 C 
BRANCH  11  18
ATOM     13  C   UNL     1     -17.844  54.113 -29.594  0.00  0.00    +0.000 C 
ATOM     14  C   UNL     1     -18.398  56.654 -29.552  0.00  0.00    +0.000 C 
ATOM     15  C   UNL     1     -18.607  54.211 -30.845  0.00  0.00    +0.000 C 
ATOM     16  C   UNL     1     -19.310  55.174 -31.594  0.00  0.00    +0.000 C 
ATOM     17  C   UNL     1     -19.094  56.309 -30.786  0.00  0.00    +0.000 C 
ATOM     18  C   UNL     1     -17.907  55.429 -28.798  0.00  0.00    +0.000 C 
ATOM     19  C   UNL     1     -16.356  53.794 -29.904  0.00  0.00    +0.000 C 
ATOM     20  C   UNL     1     -18.464  52.968 -28.736  0.00  0.00    +0.000 C 
ATOM     21  C   UNL     1     -17.247  57.631 -29.815  0.00  0.00    +0.000 C 
BRANCH  14  22
ATOM     22  O   UNL     1     -19.301  57.368 -28.737  0.00  0.00    +0.000 OA
ATOM     23  H   UNL     1     -19.314  56.815 -27.934  0.00  0.00    +0.000 HD
ENDBRANCH  14  22
BRANCH  16  24
ATOM     24  O   UNL     1     -19.111  55.240 -32.967  0.00  0.00    +0.000 OA
BRANCH  24  26
ATOM     25  O   UNL     1     -20.785  53.808 -33.773  0.00  0.00    +0.000 OA
ATOM     26  C   UNL     1     -20.247  54.889 -33.618  0.00  0.00    +0.000 C 
ATOM     27  C   UNL     1     -20.954  56.027 -34.267  0.00  0.00    +0.000 C 
ENDBRANCH  24  26
ENDBRANCH  16  24
ENDBRANCH  11  18
ENDBRANCH   9  12
ENDBRANCH   8   9
ENDBRANCH   6   8
ENDBRANCH   4   7
ENDBRANCH   3   4
ENDBRANCH   2   3
BRANCH   1  28
ATOM     28  C   UNL     1     -21.727  63.654 -23.380  0.00  0.00    +0.000 C 
BRANCH  28  29
ATOM     29  C   UNL     1     -22.744  64.417 -23.627  0.00  0.00    +0.000 C 
ATOM     30  C   UNL     1     -23.369  65.213 -22.523  0.00  0.00    +0.000 C 
BRANCH  29  32
ATOM     31  C   UNL     1     -23.739  64.519 -26.045  0.00  0.00    +0.000 C 
ATOM     32  C   UNL     1     -23.286  64.465 -24.934  0.00  0.00    +0.000 C 
BRANCH  31  33
ATOM     33  C   UNL     1     -24.311  64.603 -27.466  0.00  0.00    +0.000 C 
BRANCH  33  34
ATOM     34  C   UNL     1     -24.802  64.667 -28.668  0.00  0.00    +0.000 C 
ATOM     35  C   UNL     1     -23.906  65.251 -29.741  0.00  0.00    +0.000 C 
BRANCH  34  37
ATOM     36  O   UNL     1     -26.856  64.641 -29.888  0.00  0.00    +0.000 OA
ATOM     37  C   UNL     1     -26.204  64.221 -28.937  0.00  0.00    +0.000 C 
BRANCH  37  38
ATOM     38  C   UNL     1     -26.856  63.262 -28.078  0.00  0.00    +0.000 C 
BRANCH  38  40
ATOM     39  O   UNL     1     -26.556  61.900 -26.155  0.00  0.00    +0.000 OA
ATOM     40  C   UNL     1     -27.494  62.311 -27.188  0.00  0.00    +0.000 C 
ATOM     41  C   UNL     1     -27.665  62.672 -25.697  0.00  0.00    +0.000 C 
ATOM     42  C   UNL     1     -28.414  61.188 -27.787  0.00  0.00    +0.000 C 
ATOM     43  C   UNL     1     -28.588  61.890 -24.938  0.00  0.00    +0.000 C 
ATOM     44  C   UNL     1     -29.139  60.586 -26.665  0.00  0.00    +0.000 C 
ATOM     45  C   UNL     1     -29.378  60.783 -25.291  0.00  0.00    +0.000 C 
ATOM     46  C   UNL     1     -27.261  64.030 -25.117  0.00  0.00    +0.000 C 
ATOM     47  C   UNL     1     -29.382  61.917 -28.750  0.00  0.00    +0.000 C 
ATOM     48  C   UNL     1     -27.470  60.213 -28.524  0.00  0.00    +0.000 C 
BRANCH  45  49
ATOM     49  O   UNL     1     -30.602  60.546 -24.742  0.00  0.00    +0.000 OA
ATOM     50  H   UNL     1     -31.328  60.892 -25.290  0.00  0.00    +0.000 HD
ENDBRANCH  45  49
ENDBRANCH  38  40
ENDBRANCH  37  38
ENDBRANCH  34  37
ENDBRANCH  33  34
ENDBRANCH  31  33
ENDBRANCH  29  32
ENDBRANCH  28  29
ENDBRANCH   1  28
TORSDOF 19
ENDMDL
MODEL 7
REMARK VINA RESULT:      -5.9      6.999     11.526
REMARK  Name = 5281239_Fucoxanthin.pdbqt.pdb
REMARK  19 active torsions:
REMARK  status: ('A' for Active; 'I' for Inactive)
REMARK    1  A    between atoms: C_1  and  C_5
REMARK    2  A    between atoms: C_2  and  C_26
REMARK    3  A    between atoms: C_3  and  C_5
REMARK    4  A    between atoms: C_3  and  C_7
REMARK    5  A    between atoms: C_6  and  C_10
REMARK    6  A    between atoms: C_8  and  C_10
REMARK    7  A    between atoms: C_8  and  C_12
REMARK    8  A    between atoms: C_12  and  C_13
REMARK    9  A    between atoms: C_13  and  C_15
REMARK   10  A    between atoms: C_20  and  O_24
REMARK   11  A    between atoms: C_26  and  C_27
REMARK   12  A    between atoms: C_27  and  C_30
REMARK   13  A    between atoms: C_29  and  C_33
REMARK   14  A    between atoms: C_31  and  C_33
REMARK   15  A    between atoms: C_31  and  C_44
REMARK   16  A    between atoms: C_35  and  O_45
REMARK   17  A    between atoms: C_37  and  O_47
REMARK   18  A    between atoms: C_39  and  C_43
REMARK   19  A    between atoms: O_47  and  C_49
REMARK                            x       y       z     vdW  Elec       q    Type
REMARK                         _______ _______ _______ _____ _____    ______ ____
ROOT
ATOM      1  C   UNL     1     -17.164  55.128 -26.575  0.00  0.00    +0.000 C 
ATOM      2  C   UNL     1     -16.644  54.554 -25.659  0.00  0.00    +0.000 C 
ENDROOT
BRANCH   2   3
ATOM      3  C   UNL     1     -15.981  53.827 -24.483  0.00  0.00    +0.000 C 
BRANCH   3   4
ATOM      4  C   UNL     1     -15.424  53.211 -23.488  0.00  0.00    +0.000 C 
ATOM      5  C   UNL     1     -14.943  51.802 -23.657  0.00  0.00    +0.000 C 
BRANCH   4   7
ATOM      6  C   UNL     1     -15.055  54.464 -21.221  0.00  0.00    +0.000 C 
ATOM      7  C   UNL     1     -15.224  53.887 -22.261  0.00  0.00    +0.000 C 
BRANCH   6   8
ATOM      8  C   UNL     1     -14.841  55.203 -19.896  0.00  0.00    +0.000 C 
BRANCH   8   9
ATOM      9  C   UNL     1     -14.662  55.838 -18.779  0.00  0.00    +0.000 C 
ATOM     10  C   UNL     1     -13.801  55.246 -17.706  0.00  0.00    +0.000 C 
BRANCH   9  12
ATOM     11  C   UNL     1     -15.979  58.054 -18.311  0.00  0.00    +0.000 C 
ATOM     12  C   UNL     1     -15.374  57.038 -18.529  0.00  0.00    +0.000 C 
BRANCH  11  18
ATOM     13  C   UNL     1     -16.662  60.345 -19.060  0.00  0.00    +0.000 C 
ATOM     14  C   UNL     1     -17.401  59.364 -16.767  0.00  0.00    +0.000 C 
ATOM     15  C   UNL     1     -17.703  61.321 -18.707  0.00  0.00    +0.000 C 
ATOM     16  C   UNL     1     -18.638  61.561 -17.682  0.00  0.00    +0.000 C 
ATOM     17  C   UNL     1     -18.334  60.482 -16.826  0.00  0.00    +0.000 C 
ATOM     18  C   UNL     1     -16.647  59.165 -18.072  0.00  0.00    +0.000 C 
ATOM     19  C   UNL     1     -15.267  61.026 -19.038  0.00  0.00    +0.000 C 
ATOM     20  C   UNL     1     -16.968  59.809 -20.491  0.00  0.00    +0.000 C 
ATOM     21  C   UNL     1     -16.429  59.509 -15.592  0.00  0.00    +0.000 C 
BRANCH  14  22
ATOM     22  O   UNL     1     -18.144  58.200 -16.480  0.00  0.00    +0.000 OA
ATOM     23  H   UNL     1     -18.799  58.206 -17.203  0.00  0.00    +0.000 HD
ENDBRANCH  14  22
BRANCH  16  24
ATOM     24  O   UNL     1     -18.771  62.846 -17.174  0.00  0.00    +0.000 OA
BRANCH  24  26
ATOM     25  O   UNL     1     -20.940  63.200 -17.995  0.00  0.00    +0.000 OA
ATOM     26  C   UNL     1     -20.081  63.195 -17.133  0.00  0.00    +0.000 C 
ATOM     27  C   UNL     1     -20.544  63.666 -15.799  0.00  0.00    +0.000 C 
ENDBRANCH  24  26
ENDBRANCH  16  24
ENDBRANCH  11  18
ENDBRANCH   9  12
ENDBRANCH   8   9
ENDBRANCH   6   8
ENDBRANCH   4   7
ENDBRANCH   3   4
ENDBRANCH   2   3
BRANCH   1  28
ATOM     28  C   UNL     1     -17.831  55.868 -27.741  0.00  0.00    +0.000 C 
BRANCH  28  29
ATOM     29  C   UNL     1     -18.385  56.491 -28.732  0.00  0.00    +0.000 C 
ATOM     30  C   UNL     1     -18.512  57.984 -28.702  0.00  0.00    +0.000 C 
BRANCH  29  32
ATOM     31  C   UNL     1     -19.358  55.138 -30.749  0.00  0.00    +0.000 C 
ATOM     32  C   UNL     1     -18.905  55.755 -29.823  0.00  0.00    +0.000 C 
BRANCH  31  33
ATOM     33  C   UNL     1     -19.949  54.360 -31.930  0.00  0.00    +0.000 C 
BRANCH  33  34
ATOM     34  C   UNL     1     -20.458  53.705 -32.932  0.00  0.00    +0.000 C 
ATOM     35  C   UNL     1     -19.829  52.368 -33.264  0.00  0.00    +0.000 C 
BRANCH  34  37
ATOM     36  O   UNL     1     -21.832  55.493 -33.723  0.00  0.00    +0.000 OA
ATOM     37  C   UNL     1     -21.580  54.293 -33.728  0.00  0.00    +0.000 C 
BRANCH  37  38
ATOM     38  C   UNL     1     -22.422  53.458 -34.551  0.00  0.00    +0.000 C 
BRANCH  38  40
ATOM     39  O   UNL     1     -23.344  53.169 -36.721  0.00  0.00    +0.000 OA
ATOM     40  C   UNL     1     -23.241  52.601 -35.387  0.00  0.00    +0.000 C 
ATOM     41  C   UNL     1     -22.616  51.946 -36.636  0.00  0.00    +0.000 C 
ATOM     42  C   UNL     1     -24.548  51.963 -34.794  0.00  0.00    +0.000 C 
ATOM     43  C   UNL     1     -23.324  50.856 -37.225  0.00  0.00    +0.000 C 
ATOM     44  C   UNL     1     -24.990  50.937 -35.741  0.00  0.00    +0.000 C 
ATOM     45  C   UNL     1     -24.554  50.260 -36.897  0.00  0.00    +0.000 C 
ATOM     46  C   UNL     1     -21.136  52.094 -37.002  0.00  0.00    +0.000 C 
ATOM     47  C   UNL     1     -24.125  51.332 -33.445  0.00  0.00    +0.000 C 
ATOM     48  C   UNL     1     -25.547  53.128 -34.615  0.00  0.00    +0.000 C 
BRANCH  45  49
ATOM     49  O   UNL     1     -24.803  48.934 -37.081  0.00  0.00    +0.000 OA
ATOM     50  H   UNL     1     -23.992  48.396 -37.048  0.00  0.00    +0.000 HD
ENDBRANCH  45  49
ENDBRANCH  38  40
ENDBRANCH  37  38
ENDBRANCH  34  37
ENDBRANCH  33  34
ENDBRANCH  31  33
ENDBRANCH  29  32
ENDBRANCH  28  29
ENDBRANCH   1  28
TORSDOF 19
ENDMDL
MODEL 8
REMARK VINA RESULT:      -5.8     28.083     33.152
REMARK  Name = 5281239_Fucoxanthin.pdbqt.pdb
REMARK  19 active torsions:
REMARK  status: ('A' for Active; 'I' for Inactive)
REMARK    1  A    between atoms: C_1  and  C_5
REMARK    2  A    between atoms: C_2  and  C_26
REMARK    3  A    between atoms: C_3  and  C_5
REMARK    4  A    between atoms: C_3  and  C_7
REMARK    5  A    between atoms: C_6  and  C_10
REMARK    6  A    between atoms: C_8  and  C_10
REMARK    7  A    between atoms: C_8  and  C_12
REMARK    8  A    between atoms: C_12  and  C_13
REMARK    9  A    between atoms: C_13  and  C_15
REMARK   10  A    between atoms: C_20  and  O_24
REMARK   11  A    between atoms: C_26  and  C_27
REMARK   12  A    between atoms: C_27  and  C_30
REMARK   13  A    between atoms: C_29  and  C_33
REMARK   14  A    between atoms: C_31  and  C_33
REMARK   15  A    between atoms: C_31  and  C_44
REMARK   16  A    between atoms: C_35  and  O_45
REMARK   17  A    between atoms: C_37  and  O_47
REMARK   18  A    between atoms: C_39  and  C_43
REMARK   19  A    between atoms: O_47  and  C_49
REMARK                            x       y       z     vdW  Elec       q    Type
REMARK                         _______ _______ _______ _____ _____    ______ ____
ROOT
ATOM      1  C   UNL     1     -17.265  42.408  -2.488  0.00  0.00    +0.000 C 
ATOM      2  C   UNL     1     -17.869  41.461  -2.909  0.00  0.00    +0.000 C 
ENDROOT
BRANCH   2   3
ATOM      3  C   UNL     1     -18.646  40.255  -3.451  0.00  0.00    +0.000 C 
BRANCH   3   4
ATOM      4  C   UNL     1     -19.304  39.237  -3.911  0.00  0.00    +0.000 C 
ATOM      5  C   UNL     1     -19.300  38.948  -5.381  0.00  0.00    +0.000 C 
BRANCH   4   7
ATOM      6  C   UNL     1     -20.560  37.639  -2.264  0.00  0.00    +0.000 C 
ATOM      7  C   UNL     1     -19.982  38.373  -3.019  0.00  0.00    +0.000 C 
BRANCH   6   8
ATOM      8  C   UNL     1     -21.300  36.701  -1.303  0.00  0.00    +0.000 C 
BRANCH   8   9
ATOM      9  C   UNL     1     -21.921  35.900  -0.495  0.00  0.00    +0.000 C 
ATOM     10  C   UNL     1     -22.371  34.552  -0.968  0.00  0.00    +0.000 C 
BRANCH   9  12
ATOM     11  C   UNL     1     -22.581  36.718   1.905  0.00  0.00    +0.000 C 
ATOM     12  C   UNL     1     -22.277  36.345   0.803  0.00  0.00    +0.000 C 
BRANCH  11  18
ATOM     13  C   UNL     1     -22.949  36.177   4.324  0.00  0.00    +0.000 C 
ATOM     14  C   UNL     1     -23.356  38.560   3.363  0.00  0.00    +0.000 C 
ATOM     15  C   UNL     1     -23.061  36.925   5.583  0.00  0.00    +0.000 C 
ATOM     16  C   UNL     1     -23.244  38.249   6.025  0.00  0.00    +0.000 C 
ATOM     17  C   UNL     1     -23.361  38.902   4.781  0.00  0.00    +0.000 C 
ATOM     18  C   UNL     1     -22.919  37.125   3.112  0.00  0.00    +0.000 C 
ATOM     19  C   UNL     1     -24.159  35.216   4.169  0.00  0.00    +0.000 C 
ATOM     20  C   UNL     1     -21.624  35.357   4.363  0.00  0.00    +0.000 C 
ATOM     21  C   UNL     1     -24.717  38.836   2.717  0.00  0.00    +0.000 C 
BRANCH  14  22
ATOM     22  O   UNL     1     -22.462  39.436   2.715  0.00  0.00    +0.000 OA
ATOM     23  H   UNL     1     -22.970  39.677   1.919  0.00  0.00    +0.000 HD
ENDBRANCH  14  22
BRANCH  16  24
ATOM     24  O   UNL     1     -24.156  38.504   7.042  0.00  0.00    +0.000 OA
BRANCH  24  26
ATOM     25  O   UNL     1     -25.941  39.660   6.053  0.00  0.00    +0.000 OA
ATOM     26  C   UNL     1     -25.395  38.678   6.520  0.00  0.00    +0.000 C 
ATOM     27  C   UNL     1     -26.238  37.452   6.532  0.00  0.00    +0.000 C 
ENDBRANCH  24  26
ENDBRANCH  16  24
ENDBRANCH  11  18
ENDBRANCH   9  12
ENDBRANCH   8   9
ENDBRANCH   6   8
ENDBRANCH   4   7
ENDBRANCH   3   4
ENDBRANCH   2   3
BRANCH   1  28
ATOM     28  C   UNL     1     -16.500  43.625  -1.955  0.00  0.00    +0.000 C 
BRANCH  28  29
ATOM     29  C   UNL     1     -15.854  44.649  -1.494  0.00  0.00    +0.000 C 
ATOM     30  C   UNL     1     -14.889  45.384  -2.373  0.00  0.00    +0.000 C 
BRANCH  29  32
ATOM     31  C   UNL     1     -16.173  45.382   0.997  0.00  0.00    +0.000 C 
ATOM     32  C   UNL     1     -16.034  45.047  -0.147  0.00  0.00    +0.000 C 
BRANCH  31  33
ATOM     33  C   UNL     1     -16.334  45.809   2.461  0.00  0.00    +0.000 C 
BRANCH  33  34
ATOM     34  C   UNL     1     -16.463  46.176   3.702  0.00  0.00    +0.000 C 
ATOM     35  C   UNL     1     -17.423  45.372   4.555  0.00  0.00    +0.000 C 
BRANCH  34  37
ATOM     36  O   UNL     1     -15.312  47.435   5.374  0.00  0.00    +0.000 OA
ATOM     37  C   UNL     1     -15.722  47.367   4.220  0.00  0.00    +0.000 C 
BRANCH  37  38
ATOM     38  C   UNL     1     -15.451  48.501   3.369  0.00  0.00    +0.000 C 
BRANCH  38  40
ATOM     39  O   UNL     1     -16.329  49.801   1.585  0.00  0.00    +0.000 OA
ATOM     40  C   UNL     1     -15.207  49.633   2.496  0.00  0.00    +0.000 C 
ATOM     41  C   UNL     1     -16.165  50.843   2.545  0.00  0.00    +0.000 C 
ATOM     42  C   UNL     1     -13.774  49.849   1.890  0.00  0.00    +0.000 C 
ATOM     43  C   UNL     1     -15.712  52.058   1.949  0.00  0.00    +0.000 C 
ATOM     44  C   UNL     1     -13.753  51.196   1.314  0.00  0.00    +0.000 C 
ATOM     45  C   UNL     1     -14.527  52.371   1.262  0.00  0.00    +0.000 C 
ATOM     46  C   UNL     1     -17.328  50.944   3.536  0.00  0.00    +0.000 C 
ATOM     47  C   UNL     1     -12.799  49.739   3.088  0.00  0.00    +0.000 C 
ATOM     48  C   UNL     1     -13.574  48.718   0.858  0.00  0.00    +0.000 C 
BRANCH  45  49
ATOM     49  O   UNL     1     -13.951  53.604   1.310  0.00  0.00    +0.000 OA
ATOM     50  H   UNL     1     -13.412  53.732   2.111  0.00  0.00    +0.000 HD
ENDBRANCH  45  49
ENDBRANCH  38  40
ENDBRANCH  37  38
ENDBRANCH  34  37
ENDBRANCH  33  34
ENDBRANCH  31  33
ENDBRANCH  29  32
ENDBRANCH  28  29
ENDBRANCH   1  28
TORSDOF 19
ENDMDL
MODEL 9
REMARK VINA RESULT:      -5.8     20.573     24.890
REMARK  Name = 5281239_Fucoxanthin.pdbqt.pdb
REMARK  19 active torsions:
REMARK  status: ('A' for Active; 'I' for Inactive)
REMARK    1  A    between atoms: C_1  and  C_5
REMARK    2  A    between atoms: C_2  and  C_26
REMARK    3  A    between atoms: C_3  and  C_5
REMARK    4  A    between atoms: C_3  and  C_7
REMARK    5  A    between atoms: C_6  and  C_10
REMARK    6  A    between atoms: C_8  and  C_10
REMARK    7  A    between atoms: C_8  and  C_12
REMARK    8  A    between atoms: C_12  and  C_13
REMARK    9  A    between atoms: C_13  and  C_15
REMARK   10  A    between atoms: C_20  and  O_24
REMARK   11  A    between atoms: C_26  and  C_27
REMARK   12  A    between atoms: C_27  and  C_30
REMARK   13  A    between atoms: C_29  and  C_33
REMARK   14  A    between atoms: C_31  and  C_33
REMARK   15  A    between atoms: C_31  and  C_44
REMARK   16  A    between atoms: C_35  and  O_45
REMARK   17  A    between atoms: C_37  and  O_47
REMARK   18  A    between atoms: C_39  and  C_43
REMARK   19  A    between atoms: O_47  and  C_49
REMARK                            x       y       z     vdW  Elec       q    Type
REMARK                         _______ _______ _______ _____ _____    ______ ____
ROOT
ATOM      1  C   UNL     1     -38.695  48.964  -7.687  0.00  0.00    +0.000 C 
ATOM      2  C   UNL     1     -39.429  49.654  -7.035  0.00  0.00    +0.000 C 
ENDROOT
BRANCH   2   3
ATOM      3  C   UNL     1     -40.365  50.532  -6.196  0.00  0.00    +0.000 C 
BRANCH   3   4
ATOM      4  C   UNL     1     -41.157  51.277  -5.491  0.00  0.00    +0.000 C 
ATOM      5  C   UNL     1     -41.941  50.676  -4.364  0.00  0.00    +0.000 C 
BRANCH   4   7
ATOM      6  C   UNL     1     -41.314  53.843  -5.978  0.00  0.00    +0.000 C 
ATOM      7  C   UNL     1     -41.241  52.665  -5.753  0.00  0.00    +0.000 C 
BRANCH   6   8
ATOM      8  C   UNL     1     -41.413  55.345  -6.266  0.00  0.00    +0.000 C 
BRANCH   8   9
ATOM      9  C   UNL     1     -41.498  56.614  -6.520  0.00  0.00    +0.000 C 
ATOM     10  C   UNL     1     -42.501  57.119  -7.511  0.00  0.00    +0.000 C 
BRANCH   9  12
ATOM     11  C   UNL     1     -39.774  58.275  -5.456  0.00  0.00    +0.000 C 
ATOM     12  C   UNL     1     -40.563  57.511  -5.946  0.00  0.00    +0.000 C 
BRANCH  11  18
ATOM     13  C   UNL     1     -39.314  60.136  -3.842  0.00  0.00    +0.000 C 
ATOM     14  C   UNL     1     -37.465  59.164  -5.393  0.00  0.00    +0.000 C 
ATOM     15  C   UNL     1     -38.131  60.735  -3.208  0.00  0.00    +0.000 C 
ATOM     16  C   UNL     1     -36.730  60.736  -3.348  0.00  0.00    +0.000 C 
ATOM     17  C   UNL     1     -36.603  59.898  -4.475  0.00  0.00    +0.000 C 
ATOM     18  C   UNL     1     -38.911  59.117  -4.923  0.00  0.00    +0.000 C 
ATOM     19  C   UNL     1     -40.179  61.241  -4.503  0.00  0.00    +0.000 C 
ATOM     20  C   UNL     1     -40.138  59.407  -2.737  0.00  0.00    +0.000 C 
ATOM     21  C   UNL     1     -37.372  59.724  -6.816  0.00  0.00    +0.000 C 
BRANCH  14  22
ATOM     22  O   UNL     1     -36.967  57.848  -5.489  0.00  0.00    +0.000 OA
ATOM     23  H   UNL     1     -36.022  57.984  -5.294  0.00  0.00    +0.000 HD
ENDBRANCH  14  22
BRANCH  16  24
ATOM     24  O   UNL     1     -36.045  61.942  -3.288  0.00  0.00    +0.000 OA
BRANCH  24  26
ATOM     25  O   UNL     1     -34.797  61.020  -1.528  0.00  0.00    +0.000 OA
ATOM     26  C   UNL     1     -35.159  61.922  -2.261  0.00  0.00    +0.000 C 
ATOM     27  C   UNL     1     -34.528  63.238  -1.975  0.00  0.00    +0.000 C 
ENDBRANCH  24  26
ENDBRANCH  16  24
ENDBRANCH  11  18
ENDBRANCH   9  12
ENDBRANCH   8   9
ENDBRANCH   6   8
ENDBRANCH   4   7
ENDBRANCH   3   4
ENDBRANCH   2   3
BRANCH   1  28
ATOM     28  C   UNL     1     -37.755  48.076  -8.511  0.00  0.00    +0.000 C 
BRANCH  28  29
ATOM     29  C   UNL     1     -36.953  47.332  -9.204  0.00  0.00    +0.000 C 
ATOM     30  C   UNL     1     -35.709  46.783  -8.575  0.00  0.00    +0.000 C 
BRANCH  29  32
ATOM     31  C   UNL     1     -37.460  46.847 -11.725  0.00  0.00    +0.000 C 
ATOM     32  C   UNL     1     -37.235  47.072 -10.567  0.00  0.00    +0.000 C 
BRANCH  31  33
ATOM     33  C   UNL     1     -37.733  46.556 -13.205  0.00  0.00    +0.000 C 
BRANCH  33  34
ATOM     34  C   UNL     1     -37.960  46.317 -14.463  0.00  0.00    +0.000 C 
ATOM     35  C   UNL     1     -39.255  45.606 -14.800  0.00  0.00    +0.000 C 
BRANCH  34  37
ATOM     36  O   UNL     1     -37.157  47.585 -16.323  0.00  0.00    +0.000 OA
ATOM     37  C   UNL     1     -36.952  46.698 -15.500  0.00  0.00    +0.000 C 
BRANCH  37  38
ATOM     38  C   UNL     1     -35.675  46.029 -15.574  0.00  0.00    +0.000 C 
BRANCH  38  40
ATOM     39  O   UNL     1     -34.270  44.682 -16.937  0.00  0.00    +0.000 OA
ATOM     40  C   UNL     1     -34.379  45.384 -15.668  0.00  0.00    +0.000 C 
ATOM     41  C   UNL     1     -33.406  45.807 -16.788  0.00  0.00    +0.000 C 
ATOM     42  C   UNL     1     -33.786  44.654 -14.410  0.00  0.00    +0.000 C 
ATOM     43  C   UNL     1     -32.039  45.420 -16.646  0.00  0.00    +0.000 C 
ATOM     44  C   UNL     1     -32.380  44.370 -14.705  0.00  0.00    +0.000 C 
ATOM     45  C   UNL     1     -31.386  44.663 -15.658  0.00  0.00    +0.000 C 
ATOM     46  C   UNL     1     -33.709  46.941 -17.772  0.00  0.00    +0.000 C 
ATOM     47  C   UNL     1     -33.919  45.664 -13.245  0.00  0.00    +0.000 C 
ATOM     48  C   UNL     1     -34.654  43.393 -14.202  0.00  0.00    +0.000 C 
BRANCH  45  49
ATOM     49  O   UNL     1     -30.094  44.888 -15.292  0.00  0.00    +0.000 OA
ATOM     50  H   UNL     1     -29.702  44.128 -14.825  0.00  0.00    +0.000 HD
ENDBRANCH  45  49
ENDBRANCH  38  40
ENDBRANCH  37  38
ENDBRANCH  34  37
ENDBRANCH  33  34
ENDBRANCH  31  33
ENDBRANCH  29  32
ENDBRANCH  28  29
ENDBRANCH   1  28
TORSDOF 19
ENDMDL
