MODEL 1
REMARK VINA RESULT:      -7.4      0.000      0.000
REMARK  Name = 5281224_Astaxanthin.pdbqt.pdb
REMARK  16 active torsions:
REMARK  status: ('A' for Active; 'I' for Inactive)
REMARK    1  A    between atoms: C_1  and  C_5
REMARK    2  A    between atoms: C_2  and  C_27
REMARK    3  A    between atoms: C_3  and  C_5
REMARK    4  A    between atoms: C_3  and  C_7
REMARK    5  A    between atoms: C_6  and  C_10
REMARK    6  A    between atoms: C_8  and  C_10
REMARK    7  A    between atoms: C_8  and  C_12
REMARK    8  A    between atoms: C_11  and  C_16
REMARK    9  A    between atoms: C_17  and  O_23
REMARK   10  A    between atoms: C_25  and  C_27
REMARK   11  A    between atoms: C_25  and  C_29
REMARK   12  A    between atoms: C_28  and  C_32
REMARK   13  A    between atoms: C_30  and  C_32
REMARK   14  A    between atoms: C_30  and  C_34
REMARK   15  A    between atoms: C_33  and  C_38
REMARK   16  A    between atoms: C_39  and  O_45
REMARK                            x       y       z     vdW  Elec       q    Type
REMARK                         _______ _______ _______ _____ _____    ______ ____
ROOT
ATOM      1  C   UNL     1     -17.842  41.689  -2.588  0.00  0.00    +0.000 C 
ATOM      2  C   UNL     1     -17.172  42.649  -2.321  0.00  0.00    +0.000 C 
ENDROOT
BRANCH   2   3
ATOM      3  C   UNL     1     -16.311  43.870  -1.974  0.00  0.00    +0.000 C 
BRANCH   3   4
ATOM      4  C   UNL     1     -15.587  44.906  -1.686  0.00  0.00    +0.000 C 
ATOM      5  C   UNL     1     -14.756  45.557  -2.750  0.00  0.00    +0.000 C 
BRANCH   4   7
ATOM      6  C   UNL     1     -15.458  45.766   0.781  0.00  0.00    +0.000 C 
ATOM      7  C   UNL     1     -15.520  45.372  -0.351  0.00  0.00    +0.000 C 
BRANCH   6   8
ATOM      8  C   UNL     1     -15.376  46.271   2.226  0.00  0.00    +0.000 C 
BRANCH   8   9
ATOM      9  C   UNL     1     -15.307  46.705   3.447  0.00  0.00    +0.000 C 
ATOM     10  C   UNL     1     -14.619  45.885   4.494  0.00  0.00    +0.000 C 
BRANCH   9  12
ATOM     11  C   UNL     1     -16.125  49.134   3.989  0.00  0.00    +0.000 C 
ATOM     12  C   UNL     1     -15.747  48.017   3.751  0.00  0.00    +0.000 C 
BRANCH  11  16
ATOM     13  O   UNL     1     -17.928  52.501   7.060  0.00  0.00    +0.000 OA
ATOM     14  C   UNL     1     -16.544  51.501   3.088  0.00  0.00    +0.000 C 
ATOM     15  C   UNL     1     -17.051  52.743   3.645  0.00  0.00    +0.000 C 
ATOM     16  C   UNL     1     -16.583  50.483   4.257  0.00  0.00    +0.000 C 
ATOM     17  C   UNL     1     -17.525  53.211   4.866  0.00  0.00    +0.000 C 
ATOM     18  C   UNL     1     -15.079  51.682   2.624  0.00  0.00    +0.000 C 
ATOM     19  C   UNL     1     -17.465  51.012   1.949  0.00  0.00    +0.000 C 
ATOM     20  C   UNL     1     -17.021  50.812   5.508  0.00  0.00    +0.000 C 
ATOM     21  C   UNL     1     -17.535  52.195   5.942  0.00  0.00    +0.000 C 
ATOM     22  C   UNL     1     -17.005  49.734   6.601  0.00  0.00    +0.000 C 
BRANCH  17  23
ATOM     23  O   UNL     1     -17.942  54.500   5.062  0.00  0.00    +0.000 OA
ATOM     24  H   UNL     1     -17.367  55.128   4.579  0.00  0.00    +0.000 HD
ENDBRANCH  17  23
ENDBRANCH  11  16
ENDBRANCH   9  12
ENDBRANCH   8   9
ENDBRANCH   6   8
ENDBRANCH   4   7
ENDBRANCH   3   4
ENDBRANCH   2   3
BRANCH   1  25
ATOM     25  C   UNL     1     -18.690  40.458  -2.924  0.00  0.00    +0.000 C 
BRANCH  25  26
ATOM     26  C   UNL     1     -19.412  39.418  -3.205  0.00  0.00    +0.000 C 
ATOM     27  C   UNL     1     -19.874  38.511  -2.105  0.00  0.00    +0.000 C 
BRANCH  26  29
ATOM     28  C   UNL     1     -19.923  38.814  -5.698  0.00  0.00    +0.000 C 
ATOM     29  C   UNL     1     -19.689  39.093  -4.553  0.00  0.00    +0.000 C 
BRANCH  28  30
ATOM     30  C   UNL     1     -20.220  38.455  -7.160  0.00  0.00    +0.000 C 
BRANCH  30  31
ATOM     31  C   UNL     1     -20.469  38.161  -8.396  0.00  0.00    +0.000 C 
ATOM     32  C   UNL     1     -19.376  37.634  -9.276  0.00  0.00    +0.000 C 
BRANCH  31  34
ATOM     33  C   UNL     1     -22.932  38.201  -9.290  0.00  0.00    +0.000 C 
ATOM     34  C   UNL     1     -21.805  38.187  -8.870  0.00  0.00    +0.000 C 
BRANCH  33  38
ATOM     35  O   UNL     1     -26.705  40.587 -11.315  0.00  0.00    +0.000 OA
ATOM     36  C   UNL     1     -25.069  36.878  -9.808  0.00  0.00    +0.000 C 
ATOM     37  C   UNL     1     -26.366  37.194 -10.383  0.00  0.00    +0.000 C 
ATOM     38  C   UNL     1     -24.284  38.214  -9.815  0.00  0.00    +0.000 C 
ATOM     39  C   UNL     1     -27.026  38.306 -10.897  0.00  0.00    +0.000 C 
ATOM     40  C   UNL     1     -24.328  35.850 -10.696  0.00  0.00    +0.000 C 
ATOM     41  C   UNL     1     -25.237  36.387  -8.353  0.00  0.00    +0.000 C 
ATOM     42  C   UNL     1     -24.810  39.379 -10.296  0.00  0.00    +0.000 C 
ATOM     43  C   UNL     1     -26.222  39.548 -10.881  0.00  0.00    +0.000 C 
ATOM     44  C   UNL     1     -23.943  40.645 -10.272  0.00  0.00    +0.000 C 
BRANCH  39  45
ATOM     45  O   UNL     1     -28.304  38.257 -11.382  0.00  0.00    +0.000 OA
ATOM     46  H   UNL     1     -28.890  38.857 -10.875  0.00  0.00    +0.000 HD
ENDBRANCH  39  45
ENDBRANCH  33  38
ENDBRANCH  31  34
ENDBRANCH  30  31
ENDBRANCH  28  30
ENDBRANCH  26  29
ENDBRANCH  25  26
ENDBRANCH   1  25
TORSDOF 16
ENDMDL
MODEL 2
REMARK VINA RESULT:      -6.8      6.018      9.365
REMARK  Name = 5281224_Astaxanthin.pdbqt.pdb
REMARK  16 active torsions:
REMARK  status: ('A' for Active; 'I' for Inactive)
REMARK    1  A    between atoms: C_1  and  C_5
REMARK    2  A    between atoms: C_2  and  C_27
REMARK    3  A    between atoms: C_3  and  C_5
REMARK    4  A    between atoms: C_3  and  C_7
REMARK    5  A    between atoms: C_6  and  C_10
REMARK    6  A    between atoms: C_8  and  C_10
REMARK    7  A    between atoms: C_8  and  C_12
REMARK    8  A    between atoms: C_11  and  C_16
REMARK    9  A    between atoms: C_17  and  O_23
REMARK   10  A    between atoms: C_25  and  C_27
REMARK   11  A    between atoms: C_25  and  C_29
REMARK   12  A    between atoms: C_28  and  C_32
REMARK   13  A    between atoms: C_30  and  C_32
REMARK   14  A    between atoms: C_30  and  C_34
REMARK   15  A    between atoms: C_33  and  C_38
REMARK   16  A    between atoms: C_39  and  O_45
REMARK                            x       y       z     vdW  Elec       q    Type
REMARK                         _______ _______ _______ _____ _____    ______ ____
ROOT
ATOM      1  C   UNL     1     -18.026  41.579  -2.691  0.00  0.00    +0.000 C 
ATOM      2  C   UNL     1     -17.312  42.506  -2.422  0.00  0.00    +0.000 C 
ENDROOT
BRANCH   2   3
ATOM      3  C   UNL     1     -16.397  43.686  -2.072  0.00  0.00    +0.000 C 
BRANCH   3   4
ATOM      4  C   UNL     1     -15.623  44.684  -1.782  0.00  0.00    +0.000 C 
ATOM      5  C   UNL     1     -15.265  44.962  -0.353  0.00  0.00    +0.000 C 
BRANCH   4   7
ATOM      6  C   UNL     1     -14.812  46.302  -3.671  0.00  0.00    +0.000 C 
ATOM      7  C   UNL     1     -15.183  45.558  -2.805  0.00  0.00    +0.000 C 
BRANCH   6   8
ATOM      8  C   UNL     1     -14.340  47.255  -4.775  0.00  0.00    +0.000 C 
BRANCH   8   9
ATOM      9  C   UNL     1     -13.935  48.064  -5.704  0.00  0.00    +0.000 C 
ATOM     10  C   UNL     1     -14.001  49.545  -5.486  0.00  0.00    +0.000 C 
BRANCH   9  12
ATOM     11  C   UNL     1     -12.761  47.090  -7.834  0.00  0.00    +0.000 C 
ATOM     12  C   UNL     1     -13.293  47.547  -6.856  0.00  0.00    +0.000 C 
BRANCH  11  16
ATOM     13  O   UNL     1     -10.020  47.588 -11.866  0.00  0.00    +0.000 OA
ATOM     14  C   UNL     1     -12.316  45.007  -9.266  0.00  0.00    +0.000 C 
ATOM     15  C   UNL     1     -11.585  44.732 -10.491  0.00  0.00    +0.000 C 
ATOM     16  C   UNL     1     -12.130  46.525  -9.011  0.00  0.00    +0.000 C 
ATOM     17  C   UNL     1     -10.821  45.434 -11.418  0.00  0.00    +0.000 C 
ATOM     18  C   UNL     1     -11.700  44.217  -8.088  0.00  0.00    +0.000 C 
ATOM     19  C   UNL     1     -13.818  44.698  -9.460  0.00  0.00    +0.000 C 
ATOM     20  C   UNL     1     -11.401  47.329  -9.839  0.00  0.00    +0.000 C 
ATOM     21  C   UNL     1     -10.677  46.876 -11.118  0.00  0.00    +0.000 C 
ATOM     22  C   UNL     1     -11.265  48.817  -9.488  0.00  0.00    +0.000 C 
BRANCH  17  23
ATOM     23  O   UNL     1     -10.246  44.845 -12.511  0.00  0.00    +0.000 OA
ATOM     24  H   UNL     1      -9.321  45.147 -12.621  0.00  0.00    +0.000 HD
ENDBRANCH  17  23
ENDBRANCH  11  16
ENDBRANCH   9  12
ENDBRANCH   8   9
ENDBRANCH   6   8
ENDBRANCH   4   7
ENDBRANCH   3   4
ENDBRANCH   2   3
BRANCH   1  25
ATOM     25  C   UNL     1     -18.934  40.391  -3.027  0.00  0.00    +0.000 C 
BRANCH  25  26
ATOM     26  C   UNL     1     -19.703  39.385  -3.306  0.00  0.00    +0.000 C 
ATOM     27  C   UNL     1     -20.267  38.547  -2.198  0.00  0.00    +0.000 C 
BRANCH  26  29
ATOM     28  C   UNL     1     -20.138  38.725  -5.799  0.00  0.00    +0.000 C 
ATOM     29  C   UNL     1     -19.938  39.026  -4.653  0.00  0.00    +0.000 C 
BRANCH  28  30
ATOM     30  C   UNL     1     -20.394  38.342  -7.262  0.00  0.00    +0.000 C 
BRANCH  30  31
ATOM     31  C   UNL     1     -20.613  38.027  -8.500  0.00  0.00    +0.000 C 
ATOM     32  C   UNL     1     -19.503  37.470  -9.338  0.00  0.00    +0.000 C 
BRANCH  31  34
ATOM     33  C   UNL     1     -23.064  38.097  -9.424  0.00  0.00    +0.000 C 
ATOM     34  C   UNL     1     -21.935  38.061  -9.010  0.00  0.00    +0.000 C 
BRANCH  33  38
ATOM     35  O   UNL     1     -26.823  40.560 -11.379  0.00  0.00    +0.000 OA
ATOM     36  C   UNL     1     -25.259  36.834  -9.841  0.00  0.00    +0.000 C 
ATOM     37  C   UNL     1     -26.563  37.180 -10.380  0.00  0.00    +0.000 C 
ATOM     38  C   UNL     1     -24.432  38.143  -9.905  0.00  0.00    +0.000 C 
ATOM     39  C   UNL     1     -27.203  38.301 -10.898  0.00  0.00    +0.000 C 
ATOM     40  C   UNL     1     -24.581  35.763 -10.728  0.00  0.00    +0.000 C 
ATOM     41  C   UNL     1     -25.393  36.381  -8.370  0.00  0.00    +0.000 C 
ATOM     42  C   UNL     1     -24.936  39.314 -10.394  0.00  0.00    +0.000 C 
ATOM     43  C   UNL     1     -26.360  39.516 -10.937  0.00  0.00    +0.000 C 
ATOM     44  C   UNL     1     -24.028  40.551 -10.428  0.00  0.00    +0.000 C 
BRANCH  39  45
ATOM     45  O   UNL     1     -28.498  38.284 -11.340  0.00  0.00    +0.000 OA
ATOM     46  H   UNL     1     -28.574  38.728 -12.210  0.00  0.00    +0.000 HD
ENDBRANCH  39  45
ENDBRANCH  33  38
ENDBRANCH  31  34
ENDBRANCH  30  31
ENDBRANCH  28  30
ENDBRANCH  26  29
ENDBRANCH  25  26
ENDBRANCH   1  25
TORSDOF 16
ENDMDL
MODEL 3
REMARK VINA RESULT:      -6.6     23.812     31.486
REMARK  Name = 5281224_Astaxanthin.pdbqt.pdb
REMARK  16 active torsions:
REMARK  status: ('A' for Active; 'I' for Inactive)
REMARK    1  A    between atoms: C_1  and  C_5
REMARK    2  A    between atoms: C_2  and  C_27
REMARK    3  A    between atoms: C_3  and  C_5
REMARK    4  A    between atoms: C_3  and  C_7
REMARK    5  A    between atoms: C_6  and  C_10
REMARK    6  A    between atoms: C_8  and  C_10
REMARK    7  A    between atoms: C_8  and  C_12
REMARK    8  A    between atoms: C_11  and  C_16
REMARK    9  A    between atoms: C_17  and  O_23
REMARK   10  A    between atoms: C_25  and  C_27
REMARK   11  A    between atoms: C_25  and  C_29
REMARK   12  A    between atoms: C_28  and  C_32
REMARK   13  A    between atoms: C_30  and  C_32
REMARK   14  A    between atoms: C_30  and  C_34
REMARK   15  A    between atoms: C_33  and  C_38
REMARK   16  A    between atoms: C_39  and  O_45
REMARK                            x       y       z     vdW  Elec       q    Type
REMARK                         _______ _______ _______ _____ _____    ______ ____
ROOT
ATOM      1  C   UNL     1     -16.809  54.245 -26.181  0.00  0.00    +0.000 C 
ATOM      2  C   UNL     1     -17.360  54.751 -27.119  0.00  0.00    +0.000 C 
ENDROOT
BRANCH   2   3
ATOM      3  C   UNL     1     -18.060  55.405 -28.318  0.00  0.00    +0.000 C 
BRANCH   3   4
ATOM      4  C   UNL     1     -18.645  55.961 -29.331  0.00  0.00    +0.000 C 
ATOM      5  C   UNL     1     -18.867  57.443 -29.346  0.00  0.00    +0.000 C 
BRANCH   4   7
ATOM      6  C   UNL     1     -19.566  54.479 -31.280  0.00  0.00    +0.000 C 
ATOM      7  C   UNL     1     -19.145  55.160 -30.386  0.00  0.00    +0.000 C 
BRANCH   6   8
ATOM      8  C   UNL     1     -20.102  53.606 -32.420  0.00  0.00    +0.000 C 
BRANCH   8   9
ATOM      9  C   UNL     1     -20.551  52.860 -33.383  0.00  0.00    +0.000 C 
ATOM     10  C   UNL     1     -19.607  51.993 -34.159  0.00  0.00    +0.000 C 
BRANCH   9  12
ATOM     11  C   UNL     1     -23.134  52.645 -33.762  0.00  0.00    +0.000 C 
ATOM     12  C   UNL     1     -21.948  52.754 -33.595  0.00  0.00    +0.000 C 
BRANCH  11  16
ATOM     13  O   UNL     1     -27.266  53.807 -36.129  0.00  0.00    +0.000 OA
ATOM     14  C   UNL     1     -25.316  51.511 -33.026  0.00  0.00    +0.000 C 
ATOM     15  C   UNL     1     -26.706  51.574 -33.447  0.00  0.00    +0.000 C 
ATOM     16  C   UNL     1     -24.564  52.499 -33.955  0.00  0.00    +0.000 C 
ATOM     17  C   UNL     1     -27.469  52.245 -34.397  0.00  0.00    +0.000 C 
ATOM     18  C   UNL     1     -24.756  50.086 -33.245  0.00  0.00    +0.000 C 
ATOM     19  C   UNL     1     -25.181  51.979 -31.560  0.00  0.00    +0.000 C 
ATOM     20  C   UNL     1     -25.191  53.217 -34.932  0.00  0.00    +0.000 C 
ATOM     21  C   UNL     1     -26.694  53.169 -35.255  0.00  0.00    +0.000 C 
ATOM     22  C   UNL     1     -24.352  54.157 -35.809  0.00  0.00    +0.000 C 
BRANCH  17  23
ATOM     23  O   UNL     1     -28.819  52.064 -34.535  0.00  0.00    +0.000 OA
ATOM     24  H   UNL     1     -29.022  51.134 -34.765  0.00  0.00    +0.000 HD
ENDBRANCH  17  23
ENDBRANCH  11  16
ENDBRANCH   9  12
ENDBRANCH   8   9
ENDBRANCH   6   8
ENDBRANCH   4   7
ENDBRANCH   3   4
ENDBRANCH   2   3
BRANCH   1  25
ATOM     25  C   UNL     1     -16.098  53.606 -24.982  0.00  0.00    +0.000 C 
BRANCH  25  26
ATOM     26  C   UNL     1     -15.501  53.063 -23.969  0.00  0.00    +0.000 C 
ATOM     27  C   UNL     1     -15.075  51.626 -24.035  0.00  0.00    +0.000 C 
BRANCH  26  29
ATOM     28  C   UNL     1     -15.182  54.417 -21.754  0.00  0.00    +0.000 C 
ATOM     29  C   UNL     1     -15.329  53.796 -22.772  0.00  0.00    +0.000 C 
BRANCH  28  30
ATOM     30  C   UNL     1     -14.995  55.207 -20.452  0.00  0.00    +0.000 C 
BRANCH  30  31
ATOM     31  C   UNL     1     -14.835  55.882 -19.358  0.00  0.00    +0.000 C 
ATOM     32  C   UNL     1     -13.845  55.420 -18.332  0.00  0.00    +0.000 C 
BRANCH  31  34
ATOM     33  C   UNL     1     -16.040  58.190 -19.064  0.00  0.00    +0.000 C 
ATOM     34  C   UNL     1     -15.478  57.135 -19.204  0.00  0.00    +0.000 C 
BRANCH  33  38
ATOM     35  O   UNL     1     -19.017  61.104 -16.482  0.00  0.00    +0.000 OA
ATOM     36  C   UNL     1     -16.538  60.535 -19.979  0.00  0.00    +0.000 C 
ATOM     37  C   UNL     1     -17.338  61.666 -19.541  0.00  0.00    +0.000 C 
ATOM     38  C   UNL     1     -16.734  59.451 -18.888  0.00  0.00    +0.000 C 
ATOM     39  C   UNL     1     -18.169  61.994 -18.474  0.00  0.00    +0.000 C 
ATOM     40  C   UNL     1     -15.043  60.930 -20.038  0.00  0.00    +0.000 C 
ATOM     41  C   UNL     1     -17.061  60.004 -21.332  0.00  0.00    +0.000 C 
ATOM     42  C   UNL     1     -17.518  59.643 -17.787  0.00  0.00    +0.000 C 
ATOM     43  C   UNL     1     -18.311  60.920 -17.466  0.00  0.00    +0.000 C 
ATOM     44  C   UNL     1     -17.633  58.510 -16.758  0.00  0.00    +0.000 C 
BRANCH  39  45
ATOM     45  O   UNL     1     -18.797  63.204 -18.361  0.00  0.00    +0.000 OA
ATOM     46  H   UNL     1     -19.597  63.234 -18.925  0.00  0.00    +0.000 HD
ENDBRANCH  39  45
ENDBRANCH  33  38
ENDBRANCH  31  34
ENDBRANCH  30  31
ENDBRANCH  28  30
ENDBRANCH  26  29
ENDBRANCH  25  26
ENDBRANCH   1  25
TORSDOF 16
ENDMDL
MODEL 4
REMARK VINA RESULT:      -6.5      6.918      8.965
REMARK  Name = 5281224_Astaxanthin.pdbqt.pdb
REMARK  16 active torsions:
REMARK  status: ('A' for Active; 'I' for Inactive)
REMARK    1  A    between atoms: C_1  and  C_5
REMARK    2  A    between atoms: C_2  and  C_27
REMARK    3  A    between atoms: C_3  and  C_5
REMARK    4  A    between atoms: C_3  and  C_7
REMARK    5  A    between atoms: C_6  and  C_10
REMARK    6  A    between atoms: C_8  and  C_10
REMARK    7  A    between atoms: C_8  and  C_12
REMARK    8  A    between atoms: C_11  and  C_16
REMARK    9  A    between atoms: C_17  and  O_23
REMARK   10  A    between atoms: C_25  and  C_27
REMARK   11  A    between atoms: C_25  and  C_29
REMARK   12  A    between atoms: C_28  and  C_32
REMARK   13  A    between atoms: C_30  and  C_32
REMARK   14  A    between atoms: C_30  and  C_34
REMARK   15  A    between atoms: C_33  and  C_38
REMARK   16  A    between atoms: C_39  and  O_45
REMARK                            x       y       z     vdW  Elec       q    Type
REMARK                         _______ _______ _______ _____ _____    ______ ____
ROOT
ATOM      1  C   UNL     1     -13.802  46.086  -4.476  0.00  0.00    +0.000 C 
ATOM      2  C   UNL     1     -14.096  45.794  -3.350  0.00  0.00    +0.000 C 
ENDROOT
BRANCH   2   3
ATOM      3  C   UNL     1     -14.464  45.421  -1.908  0.00  0.00    +0.000 C 
BRANCH   3   4
ATOM      4  C   UNL     1     -14.780  45.109  -0.691  0.00  0.00    +0.000 C 
ATOM      5  C   UNL     1     -14.812  43.670  -0.272  0.00  0.00    +0.000 C 
BRANCH   4   7
ATOM      6  C   UNL     1     -15.500  46.979   0.991  0.00  0.00    +0.000 C 
ATOM      7  C   UNL     1     -15.171  46.120   0.220  0.00  0.00    +0.000 C 
BRANCH   6   8
ATOM      8  C   UNL     1     -15.917  48.079   1.974  0.00  0.00    +0.000 C 
BRANCH   8   9
ATOM      9  C   UNL     1     -16.271  49.004   2.812  0.00  0.00    +0.000 C 
ATOM     10  C   UNL     1     -16.766  50.323   2.304  0.00  0.00    +0.000 C 
BRANCH   9  12
ATOM     11  C   UNL     1     -16.390  48.441   5.368  0.00  0.00    +0.000 C 
ATOM     12  C   UNL     1     -16.333  48.711   4.197  0.00  0.00    +0.000 C 
BRANCH  11  16
ATOM     13  O   UNL     1     -17.278  49.687  10.024  0.00  0.00    +0.000 OA
ATOM     14  C   UNL     1     -16.128  46.641   7.179  0.00  0.00    +0.000 C 
ATOM     15  C   UNL     1     -16.287  46.597   8.622  0.00  0.00    +0.000 C 
ATOM     16  C   UNL     1     -16.465  48.099   6.775  0.00  0.00    +0.000 C 
ATOM     17  C   UNL     1     -16.638  47.466   9.650  0.00  0.00    +0.000 C 
ATOM     18  C   UNL     1     -17.136  45.683   6.501  0.00  0.00    +0.000 C 
ATOM     19  C   UNL     1     -14.666  46.325   6.793  0.00  0.00    +0.000 C 
ATOM     20  C   UNL     1     -16.829  49.052   7.683  0.00  0.00    +0.000 C 
ATOM     21  C   UNL     1     -16.952  48.841   9.202  0.00  0.00    +0.000 C 
ATOM     22  C   UNL     1     -17.158  50.464   7.178  0.00  0.00    +0.000 C 
BRANCH  17  23
ATOM     23  O   UNL     1     -16.695  47.086  10.964  0.00  0.00    +0.000 OA
ATOM     24  H   UNL     1     -17.574  46.712  11.179  0.00  0.00    +0.000 HD
ENDBRANCH  17  23
ENDBRANCH  11  16
ENDBRANCH   9  12
ENDBRANCH   8   9
ENDBRANCH   6   8
ENDBRANCH   4   7
ENDBRANCH   3   4
ENDBRANCH   2   3
BRANCH   1  25
ATOM     25  C   UNL     1     -13.417  46.456  -5.913  0.00  0.00    +0.000 C 
BRANCH  25  26
ATOM     26  C   UNL     1     -13.096  46.769  -7.129  0.00  0.00    +0.000 C 
ATOM     27  C   UNL     1     -12.464  48.098  -7.416  0.00  0.00    +0.000 C 
BRANCH  26  29
ATOM     28  C   UNL     1     -13.692  45.155  -9.099  0.00  0.00    +0.000 C 
ATOM     29  C   UNL     1     -13.420  45.895  -8.193  0.00  0.00    +0.000 C 
BRANCH  28  30
ATOM     30  C   UNL     1     -14.039  44.211 -10.258  0.00  0.00    +0.000 C 
BRANCH  30  31
ATOM     31  C   UNL     1     -14.339  43.418 -11.238  0.00  0.00    +0.000 C 
ATOM     32  C   UNL     1     -14.339  41.934 -11.027  0.00  0.00    +0.000 C 
BRANCH  31  34
ATOM     33  C   UNL     1     -15.206  44.417 -13.499  0.00  0.00    +0.000 C 
ATOM     34  C   UNL     1     -14.819  43.958 -12.457  0.00  0.00    +0.000 C 
BRANCH  33  38
ATOM     35  O   UNL     1     -18.047  44.216 -17.488  0.00  0.00    +0.000 OA
ATOM     36  C   UNL     1     -15.011  46.306 -15.226  0.00  0.00    +0.000 C 
ATOM     37  C   UNL     1     -15.646  46.614 -16.496  0.00  0.00    +0.000 C 
ATOM     38  C   UNL     1     -15.654  44.974 -14.761  0.00  0.00    +0.000 C 
ATOM     39  C   UNL     1     -16.609  46.057 -17.333  0.00  0.00    +0.000 C 
ATOM     40  C   UNL     1     -15.330  47.410 -14.190  0.00  0.00    +0.000 C 
ATOM     41  C   UNL     1     -13.493  46.104 -15.423  0.00  0.00    +0.000 C 
ATOM     42  C   UNL     1     -16.613  44.324 -15.483  0.00  0.00    +0.000 C 
ATOM     43  C   UNL     1     -17.187  44.790 -16.832  0.00  0.00    +0.000 C 
ATOM     44  C   UNL     1     -17.197  43.019 -14.926  0.00  0.00    +0.000 C 
BRANCH  39  45
ATOM     45  O   UNL     1     -16.994  46.630 -18.514  0.00  0.00    +0.000 OA
ATOM     46  H   UNL     1     -17.600  46.038 -19.006  0.00  0.00    +0.000 HD
ENDBRANCH  39  45
ENDBRANCH  33  38
ENDBRANCH  31  34
ENDBRANCH  30  31
ENDBRANCH  28  30
ENDBRANCH  26  29
ENDBRANCH  25  26
ENDBRANCH   1  25
TORSDOF 16
ENDMDL
MODEL 5
REMARK VINA RESULT:      -6.5     18.585     24.287
REMARK  Name = 5281224_Astaxanthin.pdbqt.pdb
REMARK  16 active torsions:
REMARK  status: ('A' for Active; 'I' for Inactive)
REMARK    1  A    between atoms: C_1  and  C_5
REMARK    2  A    between atoms: C_2  and  C_27
REMARK    3  A    between atoms: C_3  and  C_5
REMARK    4  A    between atoms: C_3  and  C_7
REMARK    5  A    between atoms: C_6  and  C_10
REMARK    6  A    between atoms: C_8  and  C_10
REMARK    7  A    between atoms: C_8  and  C_12
REMARK    8  A    between atoms: C_11  and  C_16
REMARK    9  A    between atoms: C_17  and  O_23
REMARK   10  A    between atoms: C_25  and  C_27
REMARK   11  A    between atoms: C_25  and  C_29
REMARK   12  A    between atoms: C_28  and  C_32
REMARK   13  A    between atoms: C_30  and  C_32
REMARK   14  A    between atoms: C_30  and  C_34
REMARK   15  A    between atoms: C_33  and  C_38
REMARK   16  A    between atoms: C_39  and  O_45
REMARK                            x       y       z     vdW  Elec       q    Type
REMARK                         _______ _______ _______ _____ _____    ______ ____
ROOT
ATOM      1  C   UNL     1     -13.425  54.013 -17.911  0.00  0.00    +0.000 C 
ATOM      2  C   UNL     1     -14.088  54.500 -18.784  0.00  0.00    +0.000 C 
ENDROOT
BRANCH   2   3
ATOM      3  C   UNL     1     -14.930  55.128 -19.903  0.00  0.00    +0.000 C 
BRANCH   3   4
ATOM      4  C   UNL     1     -15.645  55.659 -20.843  0.00  0.00    +0.000 C 
ATOM      5  C   UNL     1     -16.418  56.916 -20.576  0.00  0.00    +0.000 C 
BRANCH   4   7
ATOM      6  C   UNL     1     -15.860  54.460 -23.158  0.00  0.00    +0.000 C 
ATOM      7  C   UNL     1     -15.760  55.012 -22.097  0.00  0.00    +0.000 C 
BRANCH   6   8
ATOM      8  C   UNL     1     -15.990  53.753 -24.512  0.00  0.00    +0.000 C 
BRANCH   8   9
ATOM      9  C   UNL     1     -16.103  53.148 -25.654  0.00  0.00    +0.000 C 
ATOM     10  C   UNL     1     -15.791  51.686 -25.760  0.00  0.00    +0.000 C 
BRANCH   9  12
ATOM     11  C   UNL     1     -17.126  54.429 -27.697  0.00  0.00    +0.000 C 
ATOM     12  C   UNL     1     -16.665  53.832 -26.760  0.00  0.00    +0.000 C 
BRANCH  11  16
ATOM     13  O   UNL     1     -18.775  58.593 -29.689  0.00  0.00    +0.000 OA
ATOM     14  C   UNL     1     -17.909  54.381 -30.141  0.00  0.00    +0.000 C 
ATOM     15  C   UNL     1     -18.448  55.357 -31.072  0.00  0.00    +0.000 C 
ATOM     16  C   UNL     1     -17.671  55.162 -28.823  0.00  0.00    +0.000 C 
ATOM     17  C   UNL     1     -18.778  56.708 -31.077  0.00  0.00    +0.000 C 
ATOM     18  C   UNL     1     -16.556  53.839 -30.659  0.00  0.00    +0.000 C 
ATOM     19  C   UNL     1     -18.937  53.255 -29.893  0.00  0.00    +0.000 C 
ATOM     20  C   UNL     1     -17.947  56.493 -28.693  0.00  0.00    +0.000 C 
ATOM     21  C   UNL     1     -18.525  57.399 -29.793  0.00  0.00    +0.000 C 
ATOM     22  C   UNL     1     -17.661  57.177 -27.349  0.00  0.00    +0.000 C 
BRANCH  17  23
ATOM     23  O   UNL     1     -19.287  57.349 -32.175  0.00  0.00    +0.000 OA
ATOM     24  H   UNL     1     -18.703  58.086 -32.448  0.00  0.00    +0.000 HD
ENDBRANCH  17  23
ENDBRANCH  11  16
ENDBRANCH   9  12
ENDBRANCH   8   9
ENDBRANCH   6   8
ENDBRANCH   4   7
ENDBRANCH   3   4
ENDBRANCH   2   3
BRANCH   1  25
ATOM     25  C   UNL     1     -12.569  53.397 -16.799  0.00  0.00    +0.000 C 
BRANCH  25  26
ATOM     26  C   UNL     1     -11.848  52.872 -15.858  0.00  0.00    +0.000 C 
ATOM     27  C   UNL     1     -10.559  53.522 -15.453  0.00  0.00    +0.000 C 
BRANCH  26  29
ATOM     28  C   UNL     1     -12.557  50.597 -14.779  0.00  0.00    +0.000 C 
ATOM     29  C   UNL     1     -12.233  51.641 -15.276  0.00  0.00    +0.000 C 
BRANCH  28  30
ATOM     30  C   UNL     1     -12.969  49.263 -14.142  0.00  0.00    +0.000 C 
BRANCH  30  31
ATOM     31  C   UNL     1     -13.325  48.138 -13.608  0.00  0.00    +0.000 C 
ATOM     32  C   UNL     1     -12.847  47.779 -12.233  0.00  0.00    +0.000 C 
BRANCH  31  34
ATOM     33  C   UNL     1     -15.106  46.622 -14.788  0.00  0.00    +0.000 C 
ATOM     34  C   UNL     1     -14.288  47.325 -14.255  0.00  0.00    +0.000 C 
BRANCH  33  38
ATOM     35  O   UNL     1     -17.358  42.287 -15.179  0.00  0.00    +0.000 OA
ATOM     36  C   UNL     1     -16.948  46.366 -16.557  0.00  0.00    +0.000 C 
ATOM     37  C   UNL     1     -17.827  45.290 -16.984  0.00  0.00    +0.000 C 
ATOM     38  C   UNL     1     -16.089  45.761 -15.416  0.00  0.00    +0.000 C 
ATOM     39  C   UNL     1     -18.071  43.961 -16.652  0.00  0.00    +0.000 C 
ATOM     40  C   UNL     1     -17.779  47.542 -15.995  0.00  0.00    +0.000 C 
ATOM     41  C   UNL     1     -16.028  46.796 -17.721  0.00  0.00    +0.000 C 
ATOM     42  C   UNL     1     -16.229  44.472 -14.989  0.00  0.00    +0.000 C 
ATOM     43  C   UNL     1     -17.224  43.445 -15.555  0.00  0.00    +0.000 C 
ATOM     44  C   UNL     1     -15.339  43.976 -13.841  0.00  0.00    +0.000 C 
BRANCH  39  45
ATOM     45  O   UNL     1     -19.016  43.196 -17.281  0.00  0.00    +0.000 OA
ATOM     46  H   UNL     1     -19.235  42.406 -16.745  0.00  0.00    +0.000 HD
ENDBRANCH  39  45
ENDBRANCH  33  38
ENDBRANCH  31  34
ENDBRANCH  30  31
ENDBRANCH  28  30
ENDBRANCH  26  29
ENDBRANCH  25  26
ENDBRANCH   1  25
TORSDOF 16
ENDMDL
MODEL 6
REMARK VINA RESULT:      -6.5     26.181     31.137
REMARK  Name = 5281224_Astaxanthin.pdbqt.pdb
REMARK  16 active torsions:
REMARK  status: ('A' for Active; 'I' for Inactive)
REMARK    1  A    between atoms: C_1  and  C_5
REMARK    2  A    between atoms: C_2  and  C_27
REMARK    3  A    between atoms: C_3  and  C_5
REMARK    4  A    between atoms: C_3  and  C_7
REMARK    5  A    between atoms: C_6  and  C_10
REMARK    6  A    between atoms: C_8  and  C_10
REMARK    7  A    between atoms: C_8  and  C_12
REMARK    8  A    between atoms: C_11  and  C_16
REMARK    9  A    between atoms: C_17  and  O_23
REMARK   10  A    between atoms: C_25  and  C_27
REMARK   11  A    between atoms: C_25  and  C_29
REMARK   12  A    between atoms: C_28  and  C_32
REMARK   13  A    between atoms: C_30  and  C_32
REMARK   14  A    between atoms: C_30  and  C_34
REMARK   15  A    between atoms: C_33  and  C_38
REMARK   16  A    between atoms: C_39  and  O_45
REMARK                            x       y       z     vdW  Elec       q    Type
REMARK                         _______ _______ _______ _____ _____    ______ ____
ROOT
ATOM      1  C   UNL     1     -19.786  62.448 -23.060  0.00  0.00    +0.000 C 
ATOM      2  C   UNL     1     -20.671  63.160 -23.448  0.00  0.00    +0.000 C 
ENDROOT
BRANCH   2   3
ATOM      3  C   UNL     1     -21.805  64.070 -23.937  0.00  0.00    +0.000 C 
BRANCH   3   4
ATOM      4  C   UNL     1     -22.767  64.834 -24.347  0.00  0.00    +0.000 C 
ATOM      5  C   UNL     1     -22.485  66.259 -24.717  0.00  0.00    +0.000 C 
BRANCH   4   7
ATOM      6  C   UNL     1     -25.225  63.939 -24.389  0.00  0.00    +0.000 C 
ATOM      7  C   UNL     1     -24.097  64.348 -24.368  0.00  0.00    +0.000 C 
BRANCH   6   8
ATOM      8  C   UNL     1     -26.666  63.418 -24.419  0.00  0.00    +0.000 C 
BRANCH   8   9
ATOM      9  C   UNL     1     -27.889  62.984 -24.446  0.00  0.00    +0.000 C 
ATOM     10  C   UNL     1     -28.860  63.421 -23.391  0.00  0.00    +0.000 C 
BRANCH   9  12
ATOM     11  C   UNL     1     -28.745  61.575 -26.481  0.00  0.00    +0.000 C 
ATOM     12  C   UNL     1     -28.341  62.224 -25.552  0.00  0.00    +0.000 C 
BRANCH  11  16
ATOM     13  O   UNL     1     -28.066  59.382 -30.811  0.00  0.00    +0.000 OA
ATOM     14  C   UNL     1     -30.724  60.323 -27.533  0.00  0.00    +0.000 C 
ATOM     15  C   UNL     1     -30.936  59.569 -28.756  0.00  0.00    +0.000 C 
ATOM     16  C   UNL     1     -29.246  60.789 -27.591  0.00  0.00    +0.000 C 
ATOM     17  C   UNL     1     -30.205  59.191 -29.878  0.00  0.00    +0.000 C 
ATOM     18  C   UNL     1     -30.916  59.407 -26.301  0.00  0.00    +0.000 C 
ATOM     19  C   UNL     1     -31.651  61.557 -27.499  0.00  0.00    +0.000 C 
ATOM     20  C   UNL     1     -28.416  60.483 -28.632  0.00  0.00    +0.000 C 
ATOM     21  C   UNL     1     -28.802  59.662 -29.874  0.00  0.00    +0.000 C 
ATOM     22  C   UNL     1     -26.964  60.980 -28.587  0.00  0.00    +0.000 C 
BRANCH  17  23
ATOM     23  O   UNL     1     -30.731  58.443 -30.897  0.00  0.00    +0.000 OA
ATOM     24  H   UNL     1     -30.985  57.553 -30.578  0.00  0.00    +0.000 HD
ENDBRANCH  17  23
ENDBRANCH  11  16
ENDBRANCH   9  12
ENDBRANCH   8   9
ENDBRANCH   6   8
ENDBRANCH   4   7
ENDBRANCH   3   4
ENDBRANCH   2   3
BRANCH   1  25
ATOM     25  C   UNL     1     -18.660  61.539 -22.555  0.00  0.00    +0.000 C 
BRANCH  25  26
ATOM     26  C   UNL     1     -17.712  60.766 -22.126  0.00  0.00    +0.000 C 
ATOM     27  C   UNL     1     -16.863  61.199 -20.967  0.00  0.00    +0.000 C 
BRANCH  26  29
ATOM     28  C   UNL     1     -17.176  58.532 -23.374  0.00  0.00    +0.000 C 
ATOM     29  C   UNL     1     -17.422  59.559 -22.802  0.00  0.00    +0.000 C 
BRANCH  28  30
ATOM     30  C   UNL     1     -16.861  57.218 -24.102  0.00  0.00    +0.000 C 
BRANCH  30  31
ATOM     31  C   UNL     1     -16.591  56.106 -24.710  0.00  0.00    +0.000 C 
ATOM     32  C   UNL     1     -15.873  55.011 -23.981  0.00  0.00    +0.000 C 
BRANCH  31  34
ATOM     33  C   UNL     1     -17.555  55.689 -27.110  0.00  0.00    +0.000 C 
ATOM     34  C   UNL     1     -17.112  55.869 -26.006  0.00  0.00    +0.000 C 
BRANCH  33  38
ATOM     35  O   UNL     1     -19.631  52.815 -30.494  0.00  0.00    +0.000 OA
ATOM     36  C   UNL     1     -18.083  56.704 -29.408  0.00  0.00    +0.000 C 
ATOM     37  C   UNL     1     -18.672  56.214 -30.642  0.00  0.00    +0.000 C 
ATOM     38  C   UNL     1     -18.092  55.491 -28.443  0.00  0.00    +0.000 C 
ATOM     39  C   UNL     1     -19.201  55.025 -31.135  0.00  0.00    +0.000 C 
ATOM     40  C   UNL     1     -18.957  57.833 -28.811  0.00  0.00    +0.000 C 
ATOM     41  C   UNL     1     -16.626  57.154 -29.654  0.00  0.00    +0.000 C 
ATOM     42  C   UNL     1     -18.586  54.268 -28.796  0.00  0.00    +0.000 C 
ATOM     43  C   UNL     1     -19.185  53.908 -30.166  0.00  0.00    +0.000 C 
ATOM     44  C   UNL     1     -18.563  53.136 -27.760  0.00  0.00    +0.000 C 
BRANCH  39  45
ATOM     45  O   UNL     1     -19.697  54.898 -32.404  0.00  0.00    +0.000 OA
ATOM     46  H   UNL     1     -19.115  54.328 -32.948  0.00  0.00    +0.000 HD
ENDBRANCH  39  45
ENDBRANCH  33  38
ENDBRANCH  31  34
ENDBRANCH  30  31
ENDBRANCH  28  30
ENDBRANCH  26  29
ENDBRANCH  25  26
ENDBRANCH   1  25
TORSDOF 16
ENDMDL
MODEL 7
REMARK VINA RESULT:      -6.5     25.605     29.988
REMARK  Name = 5281224_Astaxanthin.pdbqt.pdb
REMARK  16 active torsions:
REMARK  status: ('A' for Active; 'I' for Inactive)
REMARK    1  A    between atoms: C_1  and  C_5
REMARK    2  A    between atoms: C_2  and  C_27
REMARK    3  A    between atoms: C_3  and  C_5
REMARK    4  A    between atoms: C_3  and  C_7
REMARK    5  A    between atoms: C_6  and  C_10
REMARK    6  A    between atoms: C_8  and  C_10
REMARK    7  A    between atoms: C_8  and  C_12
REMARK    8  A    between atoms: C_11  and  C_16
REMARK    9  A    between atoms: C_17  and  O_23
REMARK   10  A    between atoms: C_25  and  C_27
REMARK   11  A    between atoms: C_25  and  C_29
REMARK   12  A    between atoms: C_28  and  C_32
REMARK   13  A    between atoms: C_30  and  C_32
REMARK   14  A    between atoms: C_30  and  C_34
REMARK   15  A    between atoms: C_33  and  C_38
REMARK   16  A    between atoms: C_39  and  O_45
REMARK                            x       y       z     vdW  Elec       q    Type
REMARK                         _______ _______ _______ _____ _____    ______ ____
ROOT
ATOM      1  C   UNL     1     -18.092  61.163 -22.448  0.00  0.00    +0.000 C 
ATOM      2  C   UNL     1     -18.666  62.170 -22.759  0.00  0.00    +0.000 C 
ENDROOT
BRANCH   2   3
ATOM      3  C   UNL     1     -19.393  63.462 -23.152  0.00  0.00    +0.000 C 
BRANCH   3   4
ATOM      4  C   UNL     1     -20.003  64.554 -23.488  0.00  0.00    +0.000 C 
ATOM      5  C   UNL     1     -19.538  65.869 -22.939  0.00  0.00    +0.000 C 
BRANCH   4   7
ATOM      6  C   UNL     1     -22.131  64.447 -25.007  0.00  0.00    +0.000 C 
ATOM      7  C   UNL     1     -21.155  64.498 -24.309  0.00  0.00    +0.000 C 
BRANCH   6   8
ATOM      8  C   UNL     1     -23.375  64.379 -25.899  0.00  0.00    +0.000 C 
BRANCH   8   9
ATOM      9  C   UNL     1     -24.424  64.319 -26.661  0.00  0.00    +0.000 C 
ATOM     10  C   UNL     1     -24.303  64.617 -28.124  0.00  0.00    +0.000 C 
BRANCH   9  12
ATOM     11  C   UNL     1     -26.686  63.396 -25.715  0.00  0.00    +0.000 C 
ATOM     12  C   UNL     1     -25.644  63.824 -26.138  0.00  0.00    +0.000 C 
BRANCH  11  16
ATOM     13  O   UNL     1     -29.950  59.761 -25.329  0.00  0.00    +0.000 OA
ATOM     14  C   UNL     1     -28.824  63.821 -24.359  0.00  0.00    +0.000 C 
ATOM     15  C   UNL     1     -30.000  63.041 -24.014  0.00  0.00    +0.000 C 
ATOM     16  C   UNL     1     -27.946  62.877 -25.221  0.00  0.00    +0.000 C 
ATOM     17  C   UNL     1     -30.496  61.762 -24.245  0.00  0.00    +0.000 C 
ATOM     18  C   UNL     1     -28.045  64.208 -23.080  0.00  0.00    +0.000 C 
ATOM     19  C   UNL     1     -29.228  65.054 -25.197  0.00  0.00    +0.000 C 
ATOM     20  C   UNL     1     -28.312  61.596 -25.519  0.00  0.00    +0.000 C 
ATOM     21  C   UNL     1     -29.612  60.908 -25.069  0.00  0.00    +0.000 C 
ATOM     22  C   UNL     1     -27.364  60.737 -26.367  0.00  0.00    +0.000 C 
BRANCH  17  23
ATOM     23  O   UNL     1     -31.695  61.325 -23.748  0.00  0.00    +0.000 OA
ATOM     24  H   UNL     1     -31.788  60.358 -23.869  0.00  0.00    +0.000 HD
ENDBRANCH  17  23
ENDBRANCH  11  16
ENDBRANCH   9  12
ENDBRANCH   8   9
ENDBRANCH   6   8
ENDBRANCH   4   7
ENDBRANCH   3   4
ENDBRANCH   2   3
BRANCH   1  25
ATOM     25  C   UNL     1     -17.352  59.882 -22.045  0.00  0.00    +0.000 C 
BRANCH  25  26
ATOM     26  C   UNL     1     -16.731  58.796 -21.705  0.00  0.00    +0.000 C 
ATOM     27  C   UNL     1     -16.031  58.720 -20.381  0.00  0.00    +0.000 C 
BRANCH  26  29
ATOM     28  C   UNL     1     -16.561  56.802 -23.388  0.00  0.00    +0.000 C 
ATOM     29  C   UNL     1     -16.639  57.719 -22.616  0.00  0.00    +0.000 C 
BRANCH  28  30
ATOM     30  C   UNL     1     -16.459  55.628 -24.371  0.00  0.00    +0.000 C 
BRANCH  30  31
ATOM     31  C   UNL     1     -16.373  54.643 -25.209  0.00  0.00    +0.000 C 
ATOM     32  C   UNL     1     -15.774  53.341 -24.772  0.00  0.00    +0.000 C 
BRANCH  31  34
ATOM     33  C   UNL     1     -17.490  54.837 -27.571  0.00  0.00    +0.000 C 
ATOM     34  C   UNL     1     -16.988  54.747 -26.482  0.00  0.00    +0.000 C 
BRANCH  33  38
ATOM     35  O   UNL     1     -19.686  52.813 -31.457  0.00  0.00    +0.000 OA
ATOM     36  C   UNL     1     -18.109  56.356 -29.545  0.00  0.00    +0.000 C 
ATOM     37  C   UNL     1     -18.744  56.163 -30.837  0.00  0.00    +0.000 C 
ATOM     38  C   UNL     1     -18.078  54.950 -28.892  0.00  0.00    +0.000 C 
ATOM     39  C   UNL     1     -19.288  55.116 -31.576  0.00  0.00    +0.000 C 
ATOM     40  C   UNL     1     -18.963  57.302 -28.667  0.00  0.00    +0.000 C 
ATOM     41  C   UNL     1     -16.665  56.869 -29.732  0.00  0.00    +0.000 C 
ATOM     42  C   UNL     1     -18.581  53.839 -29.505  0.00  0.00    +0.000 C 
ATOM     43  C   UNL     1     -19.231  53.803 -30.898  0.00  0.00    +0.000 C 
ATOM     44  C   UNL     1     -18.514  52.496 -28.765  0.00  0.00    +0.000 C 
BRANCH  39  45
ATOM     45  O   UNL     1     -19.832  55.284 -32.820  0.00  0.00    +0.000 OA
ATOM     46  H   UNL     1     -19.151  55.581 -33.459  0.00  0.00    +0.000 HD
ENDBRANCH  39  45
ENDBRANCH  33  38
ENDBRANCH  31  34
ENDBRANCH  30  31
ENDBRANCH  28  30
ENDBRANCH  26  29
ENDBRANCH  25  26
ENDBRANCH   1  25
TORSDOF 16
ENDMDL
MODEL 8
REMARK VINA RESULT:      -6.4     18.639     24.770
REMARK  Name = 5281224_Astaxanthin.pdbqt.pdb
REMARK  16 active torsions:
REMARK  status: ('A' for Active; 'I' for Inactive)
REMARK    1  A    between atoms: C_1  and  C_5
REMARK    2  A    between atoms: C_2  and  C_27
REMARK    3  A    between atoms: C_3  and  C_5
REMARK    4  A    between atoms: C_3  and  C_7
REMARK    5  A    between atoms: C_6  and  C_10
REMARK    6  A    between atoms: C_8  and  C_10
REMARK    7  A    between atoms: C_8  and  C_12
REMARK    8  A    between atoms: C_11  and  C_16
REMARK    9  A    between atoms: C_17  and  O_23
REMARK   10  A    between atoms: C_25  and  C_27
REMARK   11  A    between atoms: C_25  and  C_29
REMARK   12  A    between atoms: C_28  and  C_32
REMARK   13  A    between atoms: C_30  and  C_32
REMARK   14  A    between atoms: C_30  and  C_34
REMARK   15  A    between atoms: C_33  and  C_38
REMARK   16  A    between atoms: C_39  and  O_45
REMARK                            x       y       z     vdW  Elec       q    Type
REMARK                         _______ _______ _______ _____ _____    ______ ____
ROOT
ATOM      1  C   UNL     1     -20.600  44.730 -24.095  0.00  0.00    +0.000 C 
ATOM      2  C   UNL     1     -20.951  44.030 -23.185  0.00  0.00    +0.000 C 
ENDROOT
BRANCH   2   3
ATOM      3  C   UNL     1     -21.400  43.142 -22.018  0.00  0.00    +0.000 C 
BRANCH   3   4
ATOM      4  C   UNL     1     -21.776  42.396 -21.028  0.00  0.00    +0.000 C 
ATOM      5  C   UNL     1     -20.767  41.911 -20.031  0.00  0.00    +0.000 C 
BRANCH   4   7
ATOM      6  C   UNL     1     -24.266  41.613 -20.855  0.00  0.00    +0.000 C 
ATOM      7  C   UNL     1     -23.124  41.974 -20.933  0.00  0.00    +0.000 C 
BRANCH   6   8
ATOM      8  C   UNL     1     -25.724  41.149 -20.757  0.00  0.00    +0.000 C 
BRANCH   8   9
ATOM      9  C   UNL     1     -26.957  40.754 -20.667  0.00  0.00    +0.000 C 
ATOM     10  C   UNL     1     -27.395  39.508 -21.374  0.00  0.00    +0.000 C 
BRANCH   9  12
ATOM     11  C   UNL     1     -28.613  41.960 -19.035  0.00  0.00    +0.000 C 
ATOM     12  C   UNL     1     -27.843  41.414 -19.781  0.00  0.00    +0.000 C 
BRANCH  11  16
ATOM     13  O   UNL     1     -31.749  45.594 -18.045  0.00  0.00    +0.000 OA
ATOM     14  C   UNL     1     -29.815  41.944 -16.767  0.00  0.00    +0.000 C 
ATOM     15  C   UNL     1     -30.783  42.802 -16.105  0.00  0.00    +0.000 C 
ATOM     16  C   UNL     1     -29.553  42.610 -18.143  0.00  0.00    +0.000 C 
ATOM     17  C   UNL     1     -31.477  43.977 -16.374  0.00  0.00    +0.000 C 
ATOM     18  C   UNL     1     -30.416  40.536 -16.993  0.00  0.00    +0.000 C 
ATOM     19  C   UNL     1     -28.500  41.899 -15.958  0.00  0.00    +0.000 C 
ATOM     20  C   UNL     1     -30.171  43.762 -18.535  0.00  0.00    +0.000 C 
ATOM     21  C   UNL     1     -31.188  44.562 -17.703  0.00  0.00    +0.000 C 
ATOM     22  C   UNL     1     -29.854  44.332 -19.925  0.00  0.00    +0.000 C 
BRANCH  17  23
ATOM     23  O   UNL     1     -32.357  44.544 -15.492  0.00  0.00    +0.000 OA
ATOM     24  H   UNL     1     -31.976  44.572 -14.591  0.00  0.00    +0.000 HD
ENDBRANCH  17  23
ENDBRANCH  11  16
ENDBRANCH   9  12
ENDBRANCH   8   9
ENDBRANCH   6   8
ENDBRANCH   4   7
ENDBRANCH   3   4
ENDBRANCH   2   3
BRANCH   1  25
ATOM     25  C   UNL     1     -20.155  45.633 -25.251  0.00  0.00    +0.000 C 
BRANCH  25  26
ATOM     26  C   UNL     1     -19.781  46.400 -26.226  0.00  0.00    +0.000 C 
ATOM     27  C   UNL     1     -20.456  46.293 -27.561  0.00  0.00    +0.000 C 
BRANCH  26  29
ATOM     28  C   UNL     1     -17.749  48.017 -25.912  0.00  0.00    +0.000 C 
ATOM     29  C   UNL     1     -18.682  47.275 -26.058  0.00  0.00    +0.000 C 
BRANCH  28  30
ATOM     30  C   UNL     1     -16.559  48.967 -25.723  0.00  0.00    +0.000 C 
BRANCH  30  31
ATOM     31  C   UNL     1     -15.550  49.762 -25.559  0.00  0.00    +0.000 C 
ATOM     32  C   UNL     1     -14.154  49.218 -25.602  0.00  0.00    +0.000 C 
BRANCH  31  34
ATOM     33  C   UNL     1     -15.942  52.351 -25.468  0.00  0.00    +0.000 C 
ATOM     34  C   UNL     1     -15.760  51.163 -25.498  0.00  0.00    +0.000 C 
BRANCH  33  38
ATOM     35  O   UNL     1     -15.992  56.637 -23.091  0.00  0.00    +0.000 OA
ATOM     36  C   UNL     1     -16.605  54.458 -26.776  0.00  0.00    +0.000 C 
ATOM     37  C   UNL     1     -16.744  55.869 -26.458  0.00  0.00    +0.000 C 
ATOM     38  C   UNL     1     -16.162  53.785 -25.451  0.00  0.00    +0.000 C 
ATOM     39  C   UNL     1     -16.590  56.701 -25.352  0.00  0.00    +0.000 C 
ATOM     40  C   UNL     1     -15.501  54.257 -27.840  0.00  0.00    +0.000 C 
ATOM     41  C   UNL     1     -17.965  53.876 -27.219  0.00  0.00    +0.000 C 
ATOM     42  C   UNL     1     -15.970  54.483 -24.294  0.00  0.00    +0.000 C 
ATOM     43  C   UNL     1     -16.162  55.999 -24.122  0.00  0.00    +0.000 C 
ATOM     44  C   UNL     1     -15.515  53.723 -23.041  0.00  0.00    +0.000 C 
BRANCH  39  45
ATOM     45  O   UNL     1     -16.810  58.050 -25.397  0.00  0.00    +0.000 OA
ATOM     46  H   UNL     1     -16.838  58.367 -26.324  0.00  0.00    +0.000 HD
ENDBRANCH  39  45
ENDBRANCH  33  38
ENDBRANCH  31  34
ENDBRANCH  30  31
ENDBRANCH  28  30
ENDBRANCH  26  29
ENDBRANCH  25  26
ENDBRANCH   1  25
TORSDOF 16
ENDMDL
MODEL 9
REMARK VINA RESULT:      -6.4     22.873     29.634
REMARK  Name = 5281224_Astaxanthin.pdbqt.pdb
REMARK  16 active torsions:
REMARK  status: ('A' for Active; 'I' for Inactive)
REMARK    1  A    between atoms: C_1  and  C_5
REMARK    2  A    between atoms: C_2  and  C_27
REMARK    3  A    between atoms: C_3  and  C_5
REMARK    4  A    between atoms: C_3  and  C_7
REMARK    5  A    between atoms: C_6  and  C_10
REMARK    6  A    between atoms: C_8  and  C_10
REMARK    7  A    between atoms: C_8  and  C_12
REMARK    8  A    between atoms: C_11  and  C_16
REMARK    9  A    between atoms: C_17  and  O_23
REMARK   10  A    between atoms: C_25  and  C_27
REMARK   11  A    between atoms: C_25  and  C_29
REMARK   12  A    between atoms: C_28  and  C_32
REMARK   13  A    between atoms: C_30  and  C_32
REMARK   14  A    between atoms: C_30  and  C_34
REMARK   15  A    between atoms: C_33  and  C_38
REMARK   16  A    between atoms: C_39  and  O_45
REMARK                            x       y       z     vdW  Elec       q    Type
REMARK                         _______ _______ _______ _____ _____    ______ ____
ROOT
ATOM      1  C   UNL     1     -18.637  62.278 -18.803  0.00  0.00    +0.000 C 
ATOM      2  C   UNL     1     -18.431  62.004 -19.953  0.00  0.00    +0.000 C 
ENDROOT
BRANCH   2   3
ATOM      3  C   UNL     1     -18.164  61.646 -21.420  0.00  0.00    +0.000 C 
BRANCH   3   4
ATOM      4  C   UNL     1     -17.931  61.345 -22.659  0.00  0.00    +0.000 C 
ATOM      5  C   UNL     1     -18.138  62.374 -23.730  0.00  0.00    +0.000 C 
BRANCH   4   7
ATOM      6  C   UNL     1     -17.250  58.903 -23.304  0.00  0.00    +0.000 C 
ATOM      7  C   UNL     1     -17.561  60.025 -23.009  0.00  0.00    +0.000 C 
BRANCH   6   8
ATOM      8  C   UNL     1     -16.856  57.470 -23.680  0.00  0.00    +0.000 C 
BRANCH   8   9
ATOM      9  C   UNL     1     -16.520  56.256 -23.990  0.00  0.00    +0.000 C 
ATOM     10  C   UNL     1     -15.997  55.332 -22.933  0.00  0.00    +0.000 C 
BRANCH   9  12
ATOM     11  C   UNL     1     -17.045  55.347 -26.390  0.00  0.00    +0.000 C 
ATOM     12  C   UNL     1     -16.792  55.763 -25.290  0.00  0.00    +0.000 C 
BRANCH  11  16
ATOM     13  O   UNL     1     -19.184  55.903 -30.765  0.00  0.00    +0.000 OA
ATOM     14  C   UNL     1     -16.839  53.438 -28.095  0.00  0.00    +0.000 C 
ATOM     15  C   UNL     1     -17.308  53.210 -29.451  0.00  0.00    +0.000 C 
ATOM     16  C   UNL     1     -17.367  54.846 -27.712  0.00  0.00    +0.000 C 
ATOM     17  C   UNL     1     -18.053  53.883 -30.414  0.00  0.00    +0.000 C 
ATOM     18  C   UNL     1     -15.293  53.452 -28.060  0.00  0.00    +0.000 C 
ATOM     19  C   UNL     1     -17.441  52.386 -27.138  0.00  0.00    +0.000 C 
ATOM     20  C   UNL     1     -18.105  55.615 -28.565  0.00  0.00    +0.000 C 
ATOM     21  C   UNL     1     -18.524  55.221 -29.991  0.00  0.00    +0.000 C 
ATOM     22  C   UNL     1     -18.567  57.001 -28.094  0.00  0.00    +0.000 C 
BRANCH  17  23
ATOM     23  O   UNL     1     -18.323  53.360 -31.650  0.00  0.00    +0.000 OA
ATOM     24  H   UNL     1     -18.429  54.073 -32.313  0.00  0.00    +0.000 HD
ENDBRANCH  17  23
ENDBRANCH  11  16
ENDBRANCH   9  12
ENDBRANCH   8   9
ENDBRANCH   6   8
ENDBRANCH   4   7
ENDBRANCH   3   4
ENDBRANCH   2   3
BRANCH   1  25
ATOM     25  C   UNL     1     -18.894  62.620 -17.331  0.00  0.00    +0.000 C 
BRANCH  25  26
ATOM     26  C   UNL     1     -19.110  62.905 -16.085  0.00  0.00    +0.000 C 
ATOM     27  C   UNL     1     -18.217  62.336 -15.023  0.00  0.00    +0.000 C 
BRANCH  26  29
ATOM     28  C   UNL     1     -21.195  64.334 -15.414  0.00  0.00    +0.000 C 
ATOM     29  C   UNL     1     -20.237  63.678 -15.721  0.00  0.00    +0.000 C 
BRANCH  28  30
ATOM     30  C   UNL     1     -22.421  65.172 -15.026  0.00  0.00    +0.000 C 
BRANCH  30  31
ATOM     31  C   UNL     1     -23.454  65.877 -14.689  0.00  0.00    +0.000 C 
ATOM     32  C   UNL     1     -24.412  66.349 -15.740  0.00  0.00    +0.000 C 
BRANCH  31  34
ATOM     33  C   UNL     1     -24.019  66.204 -12.152  0.00  0.00    +0.000 C 
ATOM     34  C   UNL     1     -23.760  66.066 -13.318  0.00  0.00    +0.000 C 
BRANCH  33  38
ATOM     35  O   UNL     1     -26.523  68.376  -8.541  0.00  0.00    +0.000 OA
ATOM     36  C   UNL     1     -23.596  65.428  -9.742  0.00  0.00    +0.000 C 
ATOM     37  C   UNL     1     -24.108  65.798  -8.433  0.00  0.00    +0.000 C 
ATOM     38  C   UNL     1     -24.335  66.352 -10.744  0.00  0.00    +0.000 C 
ATOM     39  C   UNL     1     -25.022  66.700  -7.897  0.00  0.00    +0.000 C 
ATOM     40  C   UNL     1     -23.950  63.955 -10.057  0.00  0.00    +0.000 C 
ATOM     41  C   UNL     1     -22.077  65.699  -9.816  0.00  0.00    +0.000 C 
ATOM     42  C   UNL     1     -25.259  67.278 -10.353  0.00  0.00    +0.000 C 
ATOM     43  C   UNL     1     -25.696  67.549  -8.904  0.00  0.00    +0.000 C 
ATOM     44  C   UNL     1     -25.945  68.133 -11.427  0.00  0.00    +0.000 C 
BRANCH  39  45
ATOM     45  O   UNL     1     -25.280  66.793  -6.557  0.00  0.00    +0.000 OA
ATOM     46  H   UNL     1     -25.806  67.596  -6.360  0.00  0.00    +0.000 HD
ENDBRANCH  39  45
ENDBRANCH  33  38
ENDBRANCH  31  34
ENDBRANCH  30  31
ENDBRANCH  28  30
ENDBRANCH  26  29
ENDBRANCH  25  26
ENDBRANCH   1  25
TORSDOF 16
ENDMDL
