MODEL 1
REMARK VINA RESULT:      -7.3      0.000      0.000
REMARK  Name = 5289155_Peridinin.pdbqt.pdb
REMARK  13 active torsions:
REMARK  status: ('A' for Active; 'I' for Inactive)
REMARK    1  A    between atoms: C_1  and  C_3
REMARK    2  A    between atoms: C_3  and  C_25
REMARK    3  A    between atoms: C_6  and  C_12
REMARK    4  A    between atoms: C_11  and  C_14
REMARK    5  A    between atoms: C_19  and  O_23
REMARK    6  A    between atoms: C_26  and  C_28
REMARK    7  A    between atoms: C_27  and  C_31
REMARK    8  A    between atoms: C_29  and  C_31
REMARK    9  A    between atoms: C_29  and  C_42
REMARK   10  A    between atoms: C_33  and  O_43
REMARK   11  A    between atoms: C_35  and  O_45
REMARK   12  A    between atoms: C_37  and  C_41
REMARK   13  A    between atoms: O_45  and  C_47
REMARK                            x       y       z     vdW  Elec       q    Type
REMARK                         _______ _______ _______ _____ _____    ______ ____
ROOT
ATOM      1  C   UNL     1     -16.106  53.352 -25.160  0.00  0.00    +0.000 C 
ENDROOT
BRANCH   1   2
ATOM      2  C   UNL     1     -16.250  52.677 -26.257  0.00  0.00    +0.000 C 
ATOM      3  C   UNL     1     -15.479  51.411 -26.468  0.00  0.00    +0.000 C 
ATOM      4  O   UNL     1     -18.299  54.863 -28.261  0.00  0.00    +0.000 OA
ATOM      5  O   UNL     1     -19.297  55.982 -30.029  0.00  0.00    +0.000 OA
ATOM      6  C   UNL     1     -18.839  53.613 -30.146  0.00  0.00    +0.000 C 
ATOM      7  C   UNL     1     -18.312  52.803 -29.303  0.00  0.00    +0.000 C 
ATOM      8  C   UNL     1     -18.867  54.959 -29.527  0.00  0.00    +0.000 C 
ATOM      9  C   UNL     1     -18.002  53.509 -28.144  0.00  0.00    +0.000 C 
ATOM     10  C   UNL     1     -17.164  53.114 -27.242  0.00  0.00    +0.000 C 
BRANCH   6  12
ATOM     11  C   UNL     1     -19.667  52.933 -32.525  0.00  0.00    +0.000 C 
ATOM     12  C   UNL     1     -19.280  53.244 -31.431  0.00  0.00    +0.000 C 
BRANCH  11  14
ATOM     13  O   UNL     1     -20.816  51.266 -33.782  0.00  0.00    +0.000 OA
ATOM     14  C   UNL     1     -20.144  52.557 -33.846  0.00  0.00    +0.000 C 
ATOM     15  C   UNL     1     -21.659  52.376 -34.079  0.00  0.00    +0.000 C 
ATOM     16  C   UNL     1     -19.232  52.809 -35.097  0.00  0.00    +0.000 C 
ATOM     17  C   UNL     1     -22.115  52.362 -35.433  0.00  0.00    +0.000 C 
ATOM     18  C   UNL     1     -20.073  52.631 -36.285  0.00  0.00    +0.000 C 
ATOM     19  C   UNL     1     -21.420  52.451 -36.651  0.00  0.00    +0.000 C 
ATOM     20  C   UNL     1     -22.718  52.648 -33.006  0.00  0.00    +0.000 C 
ATOM     21  C   UNL     1     -18.756  54.281 -34.978  0.00  0.00    +0.000 C 
ATOM     22  C   UNL     1     -18.070  51.796 -35.006  0.00  0.00    +0.000 C 
BRANCH  19  23
ATOM     23  O   UNL     1     -21.944  53.055 -37.754  0.00  0.00    +0.000 OA
ATOM     24  H   UNL     1     -21.500  53.897 -37.962  0.00  0.00    +0.000 HD
ENDBRANCH  19  23
ENDBRANCH  11  14
ENDBRANCH   6  12
ENDBRANCH   1   2
BRANCH   1  25
ATOM     25  C   UNL     1     -15.937  54.152 -23.863  0.00  0.00    +0.000 C 
ATOM     26  C   UNL     1     -15.801  54.782 -22.851  0.00  0.00    +0.000 C 
BRANCH  26  28
ATOM     27  C   UNL     1     -15.494  56.226 -20.553  0.00  0.00    +0.000 C 
ATOM     28  C   UNL     1     -15.626  55.592 -21.563  0.00  0.00    +0.000 C 
BRANCH  27  29
ATOM     29  C   UNL     1     -15.332  57.039 -19.263  0.00  0.00    +0.000 C 
BRANCH  29  30
ATOM     30  C   UNL     1     -15.206  57.723 -18.170  0.00  0.00    +0.000 C 
ATOM     31  C   UNL     1     -14.032  57.497 -17.266  0.00  0.00    +0.000 C 
BRANCH  30  33
ATOM     32  C   UNL     1     -17.064  59.439 -17.484  0.00  0.00    +0.000 C 
ATOM     33  C   UNL     1     -16.211  58.651 -17.797  0.00  0.00    +0.000 C 
BRANCH  32  39
ATOM     34  C   UNL     1     -18.188  61.647 -17.860  0.00  0.00    +0.000 C 
ATOM     35  C   UNL     1     -18.928  60.024 -15.967  0.00  0.00    +0.000 C 
ATOM     36  C   UNL     1     -19.471  62.269 -17.503  0.00  0.00    +0.000 C 
ATOM     37  C   UNL     1     -20.554  62.054 -16.627  0.00  0.00    +0.000 C 
ATOM     38  C   UNL     1     -20.097  60.896 -15.963  0.00  0.00    +0.000 C 
ATOM     39  C   UNL     1     -18.003  60.298 -17.142  0.00  0.00    +0.000 C 
ATOM     40  C   UNL     1     -18.181  61.411 -19.402  0.00  0.00    +0.000 C 
ATOM     41  C   UNL     1     -17.017  62.585 -17.462  0.00  0.00    +0.000 C 
ATOM     42  C   UNL     1     -18.167  60.104 -14.640  0.00  0.00    +0.000 C 
BRANCH  35  43
ATOM     43  O   UNL     1     -19.389  58.692 -16.043  0.00  0.00    +0.000 OA
ATOM     44  H   UNL     1     -20.140  58.713 -15.421  0.00  0.00    +0.000 HD
ENDBRANCH  35  43
BRANCH  37  45
ATOM     45  O   UNL     1     -21.060  63.125 -15.902  0.00  0.00    +0.000 OA
BRANCH  45  47
ATOM     46  O   UNL     1     -21.807  64.499 -17.650  0.00  0.00    +0.000 OA
ATOM     47  C   UNL     1     -21.114  64.229 -16.687  0.00  0.00    +0.000 C 
ATOM     48  C   UNL     1     -20.143  65.292 -16.311  0.00  0.00    +0.000 C 
ENDBRANCH  45  47
ENDBRANCH  37  45
ENDBRANCH  32  39
ENDBRANCH  30  33
ENDBRANCH  29  30
ENDBRANCH  27  29
ENDBRANCH  26  28
ENDBRANCH   1  25
TORSDOF 13
ENDMDL
MODEL 2
REMARK VINA RESULT:      -7.1     19.663     22.433
REMARK  Name = 5289155_Peridinin.pdbqt.pdb
REMARK  13 active torsions:
REMARK  status: ('A' for Active; 'I' for Inactive)
REMARK    1  A    between atoms: C_1  and  C_3
REMARK    2  A    between atoms: C_3  and  C_25
REMARK    3  A    between atoms: C_6  and  C_12
REMARK    4  A    between atoms: C_11  and  C_14
REMARK    5  A    between atoms: C_19  and  O_23
REMARK    6  A    between atoms: C_26  and  C_28
REMARK    7  A    between atoms: C_27  and  C_31
REMARK    8  A    between atoms: C_29  and  C_31
REMARK    9  A    between atoms: C_29  and  C_42
REMARK   10  A    between atoms: C_33  and  O_43
REMARK   11  A    between atoms: C_35  and  O_45
REMARK   12  A    between atoms: C_37  and  C_41
REMARK   13  A    between atoms: O_45  and  C_47
REMARK                            x       y       z     vdW  Elec       q    Type
REMARK                         _______ _______ _______ _____ _____    ______ ____
ROOT
ATOM      1  C   UNL     1     -36.789  51.296 -21.713  0.00  0.00    +0.000 C 
ENDROOT
BRANCH   1   2
ATOM      2  C   UNL     1     -36.339  50.081 -21.762  0.00  0.00    +0.000 C 
ATOM      3  C   UNL     1     -36.648  49.210 -22.940  0.00  0.00    +0.000 C 
ATOM      4  O   UNL     1     -34.910  49.643 -18.482  0.00  0.00    +0.000 OA
ATOM      5  O   UNL     1     -34.159  48.749 -16.479  0.00  0.00    +0.000 OA
ATOM      6  C   UNL     1     -33.833  47.584 -18.570  0.00  0.00    +0.000 C 
ATOM      7  C   UNL     1     -34.152  47.887 -19.775  0.00  0.00    +0.000 C 
ATOM      8  C   UNL     1     -34.288  48.684 -17.689  0.00  0.00    +0.000 C 
ATOM      9  C   UNL     1     -34.774  49.132 -19.769  0.00  0.00    +0.000 C 
ATOM     10  C   UNL     1     -35.523  49.587 -20.719  0.00  0.00    +0.000 C 
BRANCH   6  12
ATOM     11  C   UNL     1     -32.626  45.378 -17.872  0.00  0.00    +0.000 C 
ATOM     12  C   UNL     1     -33.181  46.393 -18.199  0.00  0.00    +0.000 C 
BRANCH  11  14
ATOM     13  O   UNL     1     -31.905  43.221 -18.582  0.00  0.00    +0.000 OA
ATOM     14  C   UNL     1     -31.953  44.155 -17.466  0.00  0.00    +0.000 C 
ATOM     15  C   UNL     1     -30.644  43.742 -18.171  0.00  0.00    +0.000 C 
ATOM     16  C   UNL     1     -32.254  43.542 -16.054  0.00  0.00    +0.000 C 
ATOM     17  C   UNL     1     -29.837  42.756 -17.525  0.00  0.00    +0.000 C 
ATOM     18  C   UNL     1     -31.231  42.523 -15.801  0.00  0.00    +0.000 C 
ATOM     19  C   UNL     1     -30.025  42.032 -16.336  0.00  0.00    +0.000 C 
ATOM     20  C   UNL     1     -29.955  44.595 -19.239  0.00  0.00    +0.000 C 
ATOM     21  C   UNL     1     -32.118  44.717 -15.049  0.00  0.00    +0.000 C 
ATOM     22  C   UNL     1     -33.688  42.973 -16.116  0.00  0.00    +0.000 C 
BRANCH  19  23
ATOM     23  O   UNL     1     -28.991  41.657 -15.532  0.00  0.00    +0.000 OA
ATOM     24  H   UNL     1     -28.493  40.903 -15.895  0.00  0.00    +0.000 HD
ENDBRANCH  19  23
ENDBRANCH  11  14
ENDBRANCH   6  12
ENDBRANCH   1   2
BRANCH   1  25
ATOM     25  C   UNL     1     -37.320  52.733 -21.656  0.00  0.00    +0.000 C 
ATOM     26  C   UNL     1     -37.733  53.858 -21.606  0.00  0.00    +0.000 C 
BRANCH  26  28
ATOM     27  C   UNL     1     -38.667  56.421 -21.474  0.00  0.00    +0.000 C 
ATOM     28  C   UNL     1     -38.256  55.296 -21.535  0.00  0.00    +0.000 C 
BRANCH  27  29
ATOM     29  C   UNL     1     -39.197  57.858 -21.391  0.00  0.00    +0.000 C 
BRANCH  29  30
ATOM     30  C   UNL     1     -39.651  59.069 -21.312  0.00  0.00    +0.000 C 
ATOM     31  C   UNL     1     -40.249  59.572 -20.032  0.00  0.00    +0.000 C 
BRANCH  30  33
ATOM     32  C   UNL     1     -39.616  60.615 -23.426  0.00  0.00    +0.000 C 
ATOM     33  C   UNL     1     -39.634  59.907 -22.456  0.00  0.00    +0.000 C 
BRANCH  32  39
ATOM     34  C   UNL     1     -40.196  60.946 -25.842  0.00  0.00    +0.000 C 
ATOM     35  C   UNL     1     -38.925  62.751 -24.466  0.00  0.00    +0.000 C 
ATOM     36  C   UNL     1     -40.324  62.083 -26.765  0.00  0.00    +0.000 C 
ATOM     37  C   UNL     1     -39.981  63.449 -26.831  0.00  0.00    +0.000 C 
ATOM     38  C   UNL     1     -39.306  63.584 -25.601  0.00  0.00    +0.000 C 
ATOM     39  C   UNL     1     -39.598  61.388 -24.494  0.00  0.00    +0.000 C 
ATOM     40  C   UNL     1     -41.621  60.359 -25.602  0.00  0.00    +0.000 C 
ATOM     41  C   UNL     1     -39.274  59.863 -26.463  0.00  0.00    +0.000 C 
ATOM     42  C   UNL     1     -37.403  62.608 -24.363  0.00  0.00    +0.000 C 
BRANCH  35  43
ATOM     43  O   UNL     1     -39.307  63.431 -23.290  0.00  0.00    +0.000 OA
ATOM     44  H   UNL     1     -40.279  63.422 -23.369  0.00  0.00    +0.000 HD
ENDBRANCH  35  43
BRANCH  37  45
ATOM     45  O   UNL     1     -39.420  63.948 -28.000  0.00  0.00    +0.000 OA
BRANCH  45  47
ATOM     46  O   UNL     1     -40.976  64.579 -29.638  0.00  0.00    +0.000 OA
ATOM     47  C   UNL     1     -40.311  64.750 -28.633  0.00  0.00    +0.000 C 
ATOM     48  C   UNL     1     -40.497  66.080 -27.991  0.00  0.00    +0.000 C 
ENDBRANCH  45  47
ENDBRANCH  37  45
ENDBRANCH  32  39
ENDBRANCH  30  33
ENDBRANCH  29  30
ENDBRANCH  27  29
ENDBRANCH  26  28
ENDBRANCH   1  25
TORSDOF 13
ENDMDL
MODEL 3
REMARK VINA RESULT:      -6.9      4.316     19.002
REMARK  Name = 5289155_Peridinin.pdbqt.pdb
REMARK  13 active torsions:
REMARK  status: ('A' for Active; 'I' for Inactive)
REMARK    1  A    between atoms: C_1  and  C_3
REMARK    2  A    between atoms: C_3  and  C_25
REMARK    3  A    between atoms: C_6  and  C_12
REMARK    4  A    between atoms: C_11  and  C_14
REMARK    5  A    between atoms: C_19  and  O_23
REMARK    6  A    between atoms: C_26  and  C_28
REMARK    7  A    between atoms: C_27  and  C_31
REMARK    8  A    between atoms: C_29  and  C_31
REMARK    9  A    between atoms: C_29  and  C_42
REMARK   10  A    between atoms: C_33  and  O_43
REMARK   11  A    between atoms: C_35  and  O_45
REMARK   12  A    between atoms: C_37  and  C_41
REMARK   13  A    between atoms: O_45  and  C_47
REMARK                            x       y       z     vdW  Elec       q    Type
REMARK                         _______ _______ _______ _____ _____    ______ ____
ROOT
ATOM      1  C   UNL     1     -17.152  60.207 -18.250  0.00  0.00    +0.000 C 
ENDROOT
BRANCH   1   2
ATOM      2  C   UNL     1     -17.372  61.173 -17.414  0.00  0.00    +0.000 C 
ATOM      3  C   UNL     1     -17.532  62.576 -17.911  0.00  0.00    +0.000 C 
ATOM      4  O   UNL     1     -16.964  59.554 -14.220  0.00  0.00    +0.000 OA
ATOM      5  O   UNL     1     -16.512  59.103 -11.992  0.00  0.00    +0.000 OA
ATOM      6  C   UNL     1     -17.612  61.148 -12.655  0.00  0.00    +0.000 C 
ATOM      7  C   UNL     1     -17.962  61.595 -13.806  0.00  0.00    +0.000 C 
ATOM      8  C   UNL     1     -16.970  59.828 -12.856  0.00  0.00    +0.000 C 
ATOM      9  C   UNL     1     -17.618  60.652 -14.771  0.00  0.00    +0.000 C 
ATOM     10  C   UNL     1     -17.499  60.899 -16.034  0.00  0.00    +0.000 C 
BRANCH   6  12
ATOM     11  C   UNL     1     -17.986  62.427 -10.412  0.00  0.00    +0.000 C 
ATOM     12  C   UNL     1     -17.808  61.838 -11.444  0.00  0.00    +0.000 C 
BRANCH  11  14
ATOM     13  O   UNL     1     -19.264  62.491  -8.401  0.00  0.00    +0.000 OA
ATOM     14  C   UNL     1     -18.211  63.144  -9.167  0.00  0.00    +0.000 C 
ATOM     15  C   UNL     1     -17.962  62.425  -7.825  0.00  0.00    +0.000 C 
ATOM     16  C   UNL     1     -18.219  64.713  -9.172  0.00  0.00    +0.000 C 
ATOM     17  C   UNL     1     -17.846  63.241  -6.658  0.00  0.00    +0.000 C 
ATOM     18  C   UNL     1     -18.153  65.147  -7.773  0.00  0.00    +0.000 C 
ATOM     19  C   UNL     1     -17.950  64.631  -6.479  0.00  0.00    +0.000 C 
ATOM     20  C   UNL     1     -17.409  61.001  -7.719  0.00  0.00    +0.000 C 
ATOM     21  C   UNL     1     -16.938  65.137  -9.938  0.00  0.00    +0.000 C 
ATOM     22  C   UNL     1     -19.516  65.145  -9.891  0.00  0.00    +0.000 C 
BRANCH  19  23
ATOM     23  O   UNL     1     -17.221  65.309  -5.549  0.00  0.00    +0.000 OA
ATOM     24  H   UNL     1     -17.603  65.240  -4.656  0.00  0.00    +0.000 HD
ENDBRANCH  19  23
ENDBRANCH  11  14
ENDBRANCH   6  12
ENDBRANCH   1   2
BRANCH   1  25
ATOM     25  C   UNL     1     -16.893  59.064 -19.238  0.00  0.00    +0.000 C 
ATOM     26  C   UNL     1     -16.692  58.166 -20.008  0.00  0.00    +0.000 C 
BRANCH  26  28
ATOM     27  C   UNL     1     -16.236  56.109 -21.747  0.00  0.00    +0.000 C 
ATOM     28  C   UNL     1     -16.438  57.014 -20.985  0.00  0.00    +0.000 C 
BRANCH  27  29
ATOM     29  C   UNL     1     -15.970  54.952 -22.717  0.00  0.00    +0.000 C 
BRANCH  29  30
ATOM     30  C   UNL     1     -15.738  53.980 -23.541  0.00  0.00    +0.000 C 
ATOM     31  C   UNL     1     -14.953  52.782 -23.098  0.00  0.00    +0.000 C 
BRANCH  30  33
ATOM     32  C   UNL     1     -16.552  54.148 -26.026  0.00  0.00    +0.000 C 
ATOM     33  C   UNL     1     -16.179  54.072 -24.886  0.00  0.00    +0.000 C 
BRANCH  32  39
ATOM     34  C   UNL     1     -16.973  53.008 -28.219  0.00  0.00    +0.000 C 
ATOM     35  C   UNL     1     -17.397  55.552 -27.879  0.00  0.00    +0.000 C 
ATOM     36  C   UNL     1     -17.751  53.284 -29.435  0.00  0.00    +0.000 C 
ATOM     37  C   UNL     1     -18.420  54.360 -30.054  0.00  0.00    +0.000 C 
ATOM     38  C   UNL     1     -18.133  55.383 -29.126  0.00  0.00    +0.000 C 
ATOM     39  C   UNL     1     -16.962  54.225 -27.277  0.00  0.00    +0.000 C 
ATOM     40  C   UNL     1     -17.637  51.802 -27.486  0.00  0.00    +0.000 C 
ATOM     41  C   UNL     1     -15.509  52.658 -28.595  0.00  0.00    +0.000 C 
ATOM     42  C   UNL     1     -16.200  56.490 -28.060  0.00  0.00    +0.000 C 
BRANCH  35  43
ATOM     43  O   UNL     1     -18.246  56.217 -26.969  0.00  0.00    +0.000 OA
ATOM     44  H   UNL     1     -19.068  55.698 -27.058  0.00  0.00    +0.000 HD
ENDBRANCH  35  43
BRANCH  37  45
ATOM     45  O   UNL     1     -18.240  54.574 -31.414  0.00  0.00    +0.000 OA
BRANCH  45  47
ATOM     46  O   UNL     1     -19.122  56.593 -32.217  0.00  0.00    +0.000 OA
ATOM     47  C   UNL     1     -19.186  55.427 -31.877  0.00  0.00    +0.000 C 
ATOM     48  C   UNL     1     -20.547  54.833 -31.972  0.00  0.00    +0.000 C 
ENDBRANCH  45  47
ENDBRANCH  37  45
ENDBRANCH  32  39
ENDBRANCH  30  33
ENDBRANCH  29  30
ENDBRANCH  27  29
ENDBRANCH  26  28
ENDBRANCH   1  25
TORSDOF 13
ENDMDL
MODEL 4
REMARK VINA RESULT:      -6.9     20.342     25.128
REMARK  Name = 5289155_Peridinin.pdbqt.pdb
REMARK  13 active torsions:
REMARK  status: ('A' for Active; 'I' for Inactive)
REMARK    1  A    between atoms: C_1  and  C_3
REMARK    2  A    between atoms: C_3  and  C_25
REMARK    3  A    between atoms: C_6  and  C_12
REMARK    4  A    between atoms: C_11  and  C_14
REMARK    5  A    between atoms: C_19  and  O_23
REMARK    6  A    between atoms: C_26  and  C_28
REMARK    7  A    between atoms: C_27  and  C_31
REMARK    8  A    between atoms: C_29  and  C_31
REMARK    9  A    between atoms: C_29  and  C_42
REMARK   10  A    between atoms: C_33  and  O_43
REMARK   11  A    between atoms: C_35  and  O_45
REMARK   12  A    between atoms: C_37  and  C_41
REMARK   13  A    between atoms: O_45  and  C_47
REMARK                            x       y       z     vdW  Elec       q    Type
REMARK                         _______ _______ _______ _____ _____    ______ ____
ROOT
ATOM      1  C   UNL     1     -33.143  46.135 -17.673  0.00  0.00    +0.000 C 
ENDROOT
BRANCH   1   2
ATOM      2  C   UNL     1     -32.650  45.479 -16.670  0.00  0.00    +0.000 C 
ATOM      3  C   UNL     1     -31.507  44.533 -16.878  0.00  0.00    +0.000 C 
ATOM      4  O   UNL     1     -34.957  46.258 -14.013  0.00  0.00    +0.000 OA
ATOM      5  O   UNL     1     -36.266  46.173 -12.102  0.00  0.00    +0.000 OA
ATOM      6  C   UNL     1     -33.997  45.343 -12.102  0.00  0.00    +0.000 C 
ATOM      7  C   UNL     1     -33.105  45.296 -13.023  0.00  0.00    +0.000 C 
ATOM      8  C   UNL     1     -35.214  45.963 -12.678  0.00  0.00    +0.000 C 
ATOM      9  C   UNL     1     -33.632  45.865 -14.179  0.00  0.00    +0.000 C 
ATOM     10  C   UNL     1     -33.165  45.681 -15.370  0.00  0.00    +0.000 C 
BRANCH   6  12
ATOM     11  C   UNL     1     -33.654  44.456  -9.672  0.00  0.00    +0.000 C 
ATOM     12  C   UNL     1     -33.811  44.860 -10.793  0.00  0.00    +0.000 C 
BRANCH  11  14
ATOM     13  O   UNL     1     -32.060  44.101  -7.937  0.00  0.00    +0.000 OA
ATOM     14  C   UNL     1     -33.462  43.979  -8.312  0.00  0.00    +0.000 C 
ATOM     15  C   UNL     1     -32.955  44.957  -7.231  0.00  0.00    +0.000 C 
ATOM     16  C   UNL     1     -34.201  42.678  -7.840  0.00  0.00    +0.000 C 
ATOM     17  C   UNL     1     -33.116  44.564  -5.868  0.00  0.00    +0.000 C 
ATOM     18  C   UNL     1     -34.074  42.618  -6.381  0.00  0.00    +0.000 C 
ATOM     19  C   UNL     1     -33.639  43.395  -5.290  0.00  0.00    +0.000 C 
ATOM     20  C   UNL     1     -32.711  46.447  -7.488  0.00  0.00    +0.000 C 
ATOM     21  C   UNL     1     -35.684  42.866  -8.254  0.00  0.00    +0.000 C 
ATOM     22  C   UNL     1     -33.522  41.497  -8.567  0.00  0.00    +0.000 C 
BRANCH  19  23
ATOM     23  O   UNL     1     -34.313  43.397  -4.106  0.00  0.00    +0.000 OA
ATOM     24  H   UNL     1     -35.176  42.949  -4.169  0.00  0.00    +0.000 HD
ENDBRANCH  19  23
ENDBRANCH  11  14
ENDBRANCH   6  12
ENDBRANCH   1   2
BRANCH   1  25
ATOM     25  C   UNL     1     -33.725  46.913 -18.859  0.00  0.00    +0.000 C 
ATOM     26  C   UNL     1     -34.185  47.517 -19.788  0.00  0.00    +0.000 C 
BRANCH  26  28
ATOM     27  C   UNL     1     -35.246  48.881 -21.903  0.00  0.00    +0.000 C 
ATOM     28  C   UNL     1     -34.778  48.284 -20.974  0.00  0.00    +0.000 C 
BRANCH  27  29
ATOM     29  C   UNL     1     -35.848  49.637 -23.095  0.00  0.00    +0.000 C 
BRANCH  29  30
ATOM     30  C   UNL     1     -36.349  50.269 -24.107  0.00  0.00    +0.000 C 
ATOM     31  C   UNL     1     -36.229  49.703 -25.490  0.00  0.00    +0.000 C 
BRANCH  30  33
ATOM     32  C   UNL     1     -37.490  52.602 -23.755  0.00  0.00    +0.000 C 
ATOM     33  C   UNL     1     -36.968  51.531 -23.917  0.00  0.00    +0.000 C 
BRANCH  32  39
ATOM     34  C   UNL     1     -38.931  54.101 -22.355  0.00  0.00    +0.000 C 
ATOM     35  C   UNL     1     -37.932  54.873 -24.630  0.00  0.00    +0.000 C 
ATOM     36  C   UNL     1     -39.185  55.545 -22.249  0.00  0.00    +0.000 C 
ATOM     37  C   UNL     1     -38.953  56.727 -22.981  0.00  0.00    +0.000 C 
ATOM     38  C   UNL     1     -38.319  56.182 -24.117  0.00  0.00    +0.000 C 
ATOM     39  C   UNL     1     -38.060  53.778 -23.583  0.00  0.00    +0.000 C 
ATOM     40  C   UNL     1     -38.182  53.648 -21.064  0.00  0.00    +0.000 C 
ATOM     41  C   UNL     1     -40.275  53.335 -22.485  0.00  0.00    +0.000 C 
ATOM     42  C   UNL     1     -38.717  54.515 -25.895  0.00  0.00    +0.000 C 
BRANCH  35  43
ATOM     43  O   UNL     1     -36.587  54.959 -25.048  0.00  0.00    +0.000 OA
ATOM     44  H   UNL     1     -36.447  55.924 -25.049  0.00  0.00    +0.000 HD
ENDBRANCH  35  43
BRANCH  37  45
ATOM     45  O   UNL     1     -39.984  57.646 -23.125  0.00  0.00    +0.000 OA
BRANCH  45  47
ATOM     46  O   UNL     1     -39.126  59.829 -23.105  0.00  0.00    +0.000 OA
ATOM     47  C   UNL     1     -39.617  58.839 -22.595  0.00  0.00    +0.000 C 
ATOM     48  C   UNL     1     -39.844  58.950 -21.129  0.00  0.00    +0.000 C 
ENDBRANCH  45  47
ENDBRANCH  37  45
ENDBRANCH  32  39
ENDBRANCH  30  33
ENDBRANCH  29  30
ENDBRANCH  27  29
ENDBRANCH  26  28
ENDBRANCH   1  25
TORSDOF 13
ENDMDL
MODEL 5
REMARK VINA RESULT:      -6.8      1.817      2.909
REMARK  Name = 5289155_Peridinin.pdbqt.pdb
REMARK  13 active torsions:
REMARK  status: ('A' for Active; 'I' for Inactive)
REMARK    1  A    between atoms: C_1  and  C_3
REMARK    2  A    between atoms: C_3  and  C_25
REMARK    3  A    between atoms: C_6  and  C_12
REMARK    4  A    between atoms: C_11  and  C_14
REMARK    5  A    between atoms: C_19  and  O_23
REMARK    6  A    between atoms: C_26  and  C_28
REMARK    7  A    between atoms: C_27  and  C_31
REMARK    8  A    between atoms: C_29  and  C_31
REMARK    9  A    between atoms: C_29  and  C_42
REMARK   10  A    between atoms: C_33  and  O_43
REMARK   11  A    between atoms: C_35  and  O_45
REMARK   12  A    between atoms: C_37  and  C_41
REMARK   13  A    between atoms: O_45  and  C_47
REMARK                            x       y       z     vdW  Elec       q    Type
REMARK                         _______ _______ _______ _____ _____    ______ ____
ROOT
ATOM      1  C   UNL     1     -16.262  55.093 -24.085  0.00  0.00    +0.000 C 
ENDROOT
BRANCH   1   2
ATOM      2  C   UNL     1     -16.334  54.484 -25.227  0.00  0.00    +0.000 C 
ATOM      3  C   UNL     1     -15.588  53.205 -25.447  0.00  0.00    +0.000 C 
ATOM      4  O   UNL     1     -18.140  56.848 -27.262  0.00  0.00    +0.000 OA
ATOM      5  O   UNL     1     -18.951  58.097 -29.038  0.00  0.00    +0.000 OA
ATOM      6  C   UNL     1     -18.559  55.723 -29.254  0.00  0.00    +0.000 C 
ATOM      7  C   UNL     1     -18.130  54.850 -28.419  0.00  0.00    +0.000 C 
ATOM      8  C   UNL     1     -18.597  57.034 -28.563  0.00  0.00    +0.000 C 
ATOM      9  C   UNL     1     -17.896  55.480 -27.200  0.00  0.00    +0.000 C 
ATOM     10  C   UNL     1     -17.149  55.006 -26.256  0.00  0.00    +0.000 C 
BRANCH   6  12
ATOM     11  C   UNL     1     -19.190  55.205 -31.732  0.00  0.00    +0.000 C 
ATOM     12  C   UNL     1     -18.904  55.441 -30.589  0.00  0.00    +0.000 C 
BRANCH  11  14
ATOM     13  O   UNL     1     -19.512  56.164 -33.890  0.00  0.00    +0.000 OA
ATOM     14  C   UNL     1     -19.530  54.929 -33.119  0.00  0.00    +0.000 C 
ATOM     15  C   UNL     1     -18.495  55.223 -34.225  0.00  0.00    +0.000 C 
ATOM     16  C   UNL     1     -20.687  53.920 -33.443  0.00  0.00    +0.000 C 
ATOM     17  C   UNL     1     -18.714  54.622 -35.501  0.00  0.00    +0.000 C 
ATOM     18  C   UNL     1     -20.596  53.607 -34.872  0.00  0.00    +0.000 C 
ATOM     19  C   UNL     1     -19.752  53.804 -35.981  0.00  0.00    +0.000 C 
ATOM     20  C   UNL     1     -17.077  55.726 -33.942  0.00  0.00    +0.000 C 
ATOM     21  C   UNL     1     -20.394  52.659 -32.586  0.00  0.00    +0.000 C 
ATOM     22  C   UNL     1     -22.006  54.618 -33.046  0.00  0.00    +0.000 C 
BRANCH  19  23
ATOM     23  O   UNL     1     -19.548  52.821 -36.902  0.00  0.00    +0.000 OA
ATOM     24  H   UNL     1     -19.984  53.014 -37.752  0.00  0.00    +0.000 HD
ENDBRANCH  19  23
ENDBRANCH  11  14
ENDBRANCH   6  12
ENDBRANCH   1   2
BRANCH   1  25
ATOM     25  C   UNL     1     -16.175  55.812 -22.734  0.00  0.00    +0.000 C 
ATOM     26  C   UNL     1     -16.111  56.372 -21.675  0.00  0.00    +0.000 C 
BRANCH  26  28
ATOM     27  C   UNL     1     -15.972  57.633 -19.256  0.00  0.00    +0.000 C 
ATOM     28  C   UNL     1     -16.035  57.081 -20.319  0.00  0.00    +0.000 C 
BRANCH  27  29
ATOM     29  C   UNL     1     -15.888  58.332 -17.893  0.00  0.00    +0.000 C 
BRANCH  29  30
ATOM     30  C   UNL     1     -15.821  58.932 -16.747  0.00  0.00    +0.000 C 
ATOM     31  C   UNL     1     -14.803  58.511 -15.731  0.00  0.00    +0.000 C 
BRANCH  30  33
ATOM     32  C   UNL     1     -17.538  60.823 -16.163  0.00  0.00    +0.000 C 
ATOM     33  C   UNL     1     -16.751  59.955 -16.429  0.00  0.00    +0.000 C 
BRANCH  32  39
ATOM     34  C   UNL     1     -18.169  62.789 -14.742  0.00  0.00    +0.000 C 
ATOM     35  C   UNL     1     -19.726  61.882 -16.618  0.00  0.00    +0.000 C 
ATOM     36  C   UNL     1     -19.116  63.910 -14.828  0.00  0.00    +0.000 C 
ATOM     37  C   UNL     1     -20.243  64.301 -15.579  0.00  0.00    +0.000 C 
ATOM     38  C   UNL     1     -20.378  63.170 -16.411  0.00  0.00    +0.000 C 
ATOM     39  C   UNL     1     -18.404  61.774 -15.874  0.00  0.00    +0.000 C 
ATOM     40  C   UNL     1     -16.726  63.368 -14.866  0.00  0.00    +0.000 C 
ATOM     41  C   UNL     1     -18.333  62.061 -13.381  0.00  0.00    +0.000 C 
ATOM     42  C   UNL     1     -20.657  60.721 -16.253  0.00  0.00    +0.000 C 
BRANCH  35  43
ATOM     43  O   UNL     1     -19.492  61.740 -18.002  0.00  0.00    +0.000 OA
ATOM     44  H   UNL     1     -18.517  61.764 -18.036  0.00  0.00    +0.000 HD
ENDBRANCH  35  43
BRANCH  37  45
ATOM     45  O   UNL     1     -21.348  64.823 -14.918  0.00  0.00    +0.000 OA
BRANCH  45  47
ATOM     46  O   UNL     1     -23.351  64.565 -16.111  0.00  0.00    +0.000 OA
ATOM     47  C   UNL     1     -22.317  65.134 -15.813  0.00  0.00    +0.000 C 
ATOM     48  C   UNL     1     -22.063  66.387 -16.574  0.00  0.00    +0.000 C 
ENDBRANCH  45  47
ENDBRANCH  37  45
ENDBRANCH  32  39
ENDBRANCH  30  33
ENDBRANCH  29  30
ENDBRANCH  27  29
ENDBRANCH  26  28
ENDBRANCH   1  25
TORSDOF 13
ENDMDL
MODEL 6
REMARK VINA RESULT:      -6.7     21.531     23.891
REMARK  Name = 5289155_Peridinin.pdbqt.pdb
REMARK  13 active torsions:
REMARK  status: ('A' for Active; 'I' for Inactive)
REMARK    1  A    between atoms: C_1  and  C_3
REMARK    2  A    between atoms: C_3  and  C_25
REMARK    3  A    between atoms: C_6  and  C_12
REMARK    4  A    between atoms: C_11  and  C_14
REMARK    5  A    between atoms: C_19  and  O_23
REMARK    6  A    between atoms: C_26  and  C_28
REMARK    7  A    between atoms: C_27  and  C_31
REMARK    8  A    between atoms: C_29  and  C_31
REMARK    9  A    between atoms: C_29  and  C_42
REMARK   10  A    between atoms: C_33  and  O_43
REMARK   11  A    between atoms: C_35  and  O_45
REMARK   12  A    between atoms: C_37  and  C_41
REMARK   13  A    between atoms: O_45  and  C_47
REMARK                            x       y       z     vdW  Elec       q    Type
REMARK                         _______ _______ _______ _____ _____    ______ ____
ROOT
ATOM      1  C   UNL     1     -38.585  51.143 -15.893  0.00  0.00    +0.000 C 
ENDROOT
BRANCH   1   2
ATOM      2  C   UNL     1     -39.309  52.066 -16.444  0.00  0.00    +0.000 C 
ATOM      3  C   UNL     1     -40.538  52.572 -15.753  0.00  0.00    +0.000 C 
ATOM      4  O   UNL     1     -37.820  52.385 -19.711  0.00  0.00    +0.000 OA
ATOM      5  O   UNL     1     -37.464  52.752 -21.972  0.00  0.00    +0.000 OA
ATOM      6  C   UNL     1     -38.881  54.217 -20.674  0.00  0.00    +0.000 C 
ATOM      7  C   UNL     1     -39.207  54.210 -19.434  0.00  0.00    +0.000 C 
ATOM      8  C   UNL     1     -37.978  53.066 -20.913  0.00  0.00    +0.000 C 
ATOM      9  C   UNL     1     -38.565  53.142 -18.812  0.00  0.00    +0.000 C 
ATOM     10  C   UNL     1     -38.920  52.626 -17.681  0.00  0.00    +0.000 C 
BRANCH   6  12
ATOM     11  C   UNL     1     -39.726  55.968 -22.413  0.00  0.00    +0.000 C 
ATOM     12  C   UNL     1     -39.341  55.162 -21.610  0.00  0.00    +0.000 C 
BRANCH  11  14
ATOM     13  O   UNL     1     -41.578  57.276 -23.147  0.00  0.00    +0.000 OA
ATOM     14  C   UNL     1     -40.180  56.947 -23.388  0.00  0.00    +0.000 C 
ATOM     15  C   UNL     1     -40.654  58.334 -22.904  0.00  0.00    +0.000 C 
ATOM     16  C   UNL     1     -39.746  56.800 -24.889  0.00  0.00    +0.000 C 
ATOM     17  C   UNL     1     -40.749  59.369 -23.883  0.00  0.00    +0.000 C 
ATOM     18  C   UNL     1     -40.078  58.061 -25.558  0.00  0.00    +0.000 C 
ATOM     19  C   UNL     1     -40.518  59.367 -25.269  0.00  0.00    +0.000 C 
ATOM     20  C   UNL     1     -40.602  58.780 -21.440  0.00  0.00    +0.000 C 
ATOM     21  C   UNL     1     -38.210  56.582 -24.860  0.00  0.00    +0.000 C 
ATOM     22  C   UNL     1     -40.511  55.582 -25.452  0.00  0.00    +0.000 C 
BRANCH  19  23
ATOM     23  O   UNL     1     -40.021  60.447 -25.934  0.00  0.00    +0.000 OA
ATOM     24  H   UNL     1     -40.558  61.248 -25.793  0.00  0.00    +0.000 HD
ENDBRANCH  19  23
ENDBRANCH  11  14
ENDBRANCH   6  12
ENDBRANCH   1   2
BRANCH   1  25
ATOM     25  C   UNL     1     -37.730  50.051 -15.240  0.00  0.00    +0.000 C 
ATOM     26  C   UNL     1     -37.061  49.193 -14.734  0.00  0.00    +0.000 C 
BRANCH  26  28
ATOM     27  C   UNL     1     -35.535  47.233 -13.599  0.00  0.00    +0.000 C 
ATOM     28  C   UNL     1     -36.207  48.094 -14.095  0.00  0.00    +0.000 C 
BRANCH  27  29
ATOM     29  C   UNL     1     -34.675  46.129 -12.971  0.00  0.00    +0.000 C 
BRANCH  29  30
ATOM     30  C   UNL     1     -33.942  45.196 -12.451  0.00  0.00    +0.000 C 
ATOM     31  C   UNL     1     -33.146  44.279 -13.329  0.00  0.00    +0.000 C 
BRANCH  30  33
ATOM     32  C   UNL     1     -33.931  44.842  -9.854  0.00  0.00    +0.000 C 
ATOM     33  C   UNL     1     -33.935  45.004 -11.046  0.00  0.00    +0.000 C 
BRANCH  32  39
ATOM     34  C   UNL     1     -34.309  43.312  -7.905  0.00  0.00    +0.000 C 
ATOM     35  C   UNL     1     -33.605  45.797  -7.597  0.00  0.00    +0.000 C 
ATOM     36  C   UNL     1     -33.934  43.278  -6.485  0.00  0.00    +0.000 C 
ATOM     37  C   UNL     1     -33.413  44.138  -5.497  0.00  0.00    +0.000 C 
ATOM     38  C   UNL     1     -33.313  45.328  -6.246  0.00  0.00    +0.000 C 
ATOM     39  C   UNL     1     -33.930  44.657  -8.549  0.00  0.00    +0.000 C 
ATOM     40  C   UNL     1     -33.544  42.164  -8.632  0.00  0.00    +0.000 C 
ATOM     41  C   UNL     1     -35.840  43.105  -8.053  0.00  0.00    +0.000 C 
ATOM     42  C   UNL     1     -34.722  46.845  -7.594  0.00  0.00    +0.000 C 
BRANCH  35  43
ATOM     43  O   UNL     1     -32.464  46.482  -8.066  0.00  0.00    +0.000 OA
ATOM     44  H   UNL     1     -31.861  45.740  -8.263  0.00  0.00    +0.000 HD
ENDBRANCH  35  43
BRANCH  37  45
ATOM     45  O   UNL     1     -33.994  44.148  -4.235  0.00  0.00    +0.000 OA
BRANCH  45  47
ATOM     46  O   UNL     1     -33.685  42.542  -2.554  0.00  0.00    +0.000 OA
ATOM     47  C   UNL     1     -33.307  43.327  -3.404  0.00  0.00    +0.000 C 
ATOM     48  C   UNL     1     -31.828  43.410  -3.550  0.00  0.00    +0.000 C 
ENDBRANCH  45  47
ENDBRANCH  37  45
ENDBRANCH  32  39
ENDBRANCH  30  33
ENDBRANCH  29  30
ENDBRANCH  27  29
ENDBRANCH  26  28
ENDBRANCH   1  25
TORSDOF 13
ENDMDL
MODEL 7
REMARK VINA RESULT:      -6.7     21.590     24.314
REMARK  Name = 5289155_Peridinin.pdbqt.pdb
REMARK  13 active torsions:
REMARK  status: ('A' for Active; 'I' for Inactive)
REMARK    1  A    between atoms: C_1  and  C_3
REMARK    2  A    between atoms: C_3  and  C_25
REMARK    3  A    between atoms: C_6  and  C_12
REMARK    4  A    between atoms: C_11  and  C_14
REMARK    5  A    between atoms: C_19  and  O_23
REMARK    6  A    between atoms: C_26  and  C_28
REMARK    7  A    between atoms: C_27  and  C_31
REMARK    8  A    between atoms: C_29  and  C_31
REMARK    9  A    between atoms: C_29  and  C_42
REMARK   10  A    between atoms: C_33  and  O_43
REMARK   11  A    between atoms: C_35  and  O_45
REMARK   12  A    between atoms: C_37  and  C_41
REMARK   13  A    between atoms: O_45  and  C_47
REMARK                            x       y       z     vdW  Elec       q    Type
REMARK                         _______ _______ _______ _____ _____    ______ ____
ROOT
ATOM      1  C   UNL     1     -36.551  46.694  -9.621  0.00  0.00    +0.000 C 
ENDROOT
BRANCH   1   2
ATOM      2  C   UNL     1     -35.836  45.782 -10.200  0.00  0.00    +0.000 C 
ATOM      3  C   UNL     1     -35.423  44.557  -9.445  0.00  0.00    +0.000 C 
ATOM      4  O   UNL     1     -35.014  47.317 -13.356  0.00  0.00    +0.000 OA
ATOM      5  O   UNL     1     -33.958  47.939 -15.323  0.00  0.00    +0.000 OA
ATOM      6  C   UNL     1     -33.960  45.641 -14.578  0.00  0.00    +0.000 C 
ATOM      7  C   UNL     1     -34.477  45.079 -13.547  0.00  0.00    +0.000 C 
ATOM      8  C   UNL     1     -34.281  47.087 -14.516  0.00  0.00    +0.000 C 
ATOM      9  C   UNL     1     -35.146  46.047 -12.803  0.00  0.00    +0.000 C 
ATOM     10  C   UNL     1     -35.476  45.922 -11.559  0.00  0.00    +0.000 C 
BRANCH   6  12
ATOM     11  C   UNL     1     -32.580  44.389 -16.404  0.00  0.00    +0.000 C 
ATOM     12  C   UNL     1     -33.212  44.964 -15.559  0.00  0.00    +0.000 C 
BRANCH  11  14
ATOM     13  O   UNL     1     -32.735  43.016 -18.346  0.00  0.00    +0.000 OA
ATOM     14  C   UNL     1     -31.824  43.693 -17.433  0.00  0.00    +0.000 C 
ATOM     15  C   UNL     1     -32.004  44.102 -18.910  0.00  0.00    +0.000 C 
ATOM     16  C   UNL     1     -30.522  42.912 -17.038  0.00  0.00    +0.000 C 
ATOM     17  C   UNL     1     -31.010  43.660 -19.835  0.00  0.00    +0.000 C 
ATOM     18  C   UNL     1     -29.821  42.588 -18.284  0.00  0.00    +0.000 C 
ATOM     19  C   UNL     1     -29.865  42.863 -19.664  0.00  0.00    +0.000 C 
ATOM     20  C   UNL     1     -32.887  45.268 -19.363  0.00  0.00    +0.000 C 
ATOM     21  C   UNL     1     -29.687  43.898 -16.179  0.00  0.00    +0.000 C 
ATOM     22  C   UNL     1     -30.978  41.668 -16.245  0.00  0.00    +0.000 C 
BRANCH  19  23
ATOM     23  O   UNL     1     -28.726  43.045 -20.389  0.00  0.00    +0.000 OA
ATOM     24  H   UNL     1     -28.684  43.928 -20.797  0.00  0.00    +0.000 HD
ENDBRANCH  19  23
ENDBRANCH  11  14
ENDBRANCH   6  12
ENDBRANCH   1   2
BRANCH   1  25
ATOM     25  C   UNL     1     -37.398  47.773  -8.935  0.00  0.00    +0.000 C 
ATOM     26  C   UNL     1     -38.057  48.621  -8.400  0.00  0.00    +0.000 C 
BRANCH  26  28
ATOM     27  C   UNL     1     -39.553  50.558  -7.188  0.00  0.00    +0.000 C 
ATOM     28  C   UNL     1     -38.893  49.709  -7.720  0.00  0.00    +0.000 C 
BRANCH  27  29
ATOM     29  C   UNL     1     -40.403  51.642  -6.512  0.00  0.00    +0.000 C 
BRANCH  29  30
ATOM     30  C   UNL     1     -41.113  52.557  -5.933  0.00  0.00    +0.000 C 
ATOM     31  C   UNL     1     -42.000  52.208  -4.776  0.00  0.00    +0.000 C 
BRANCH  30  33
ATOM     32  C   UNL     1     -41.083  55.011  -6.851  0.00  0.00    +0.000 C 
ATOM     33  C   UNL     1     -41.095  53.885  -6.429  0.00  0.00    +0.000 C 
BRANCH  32  39
ATOM     34  C   UNL     1     -41.224  57.470  -6.388  0.00  0.00    +0.000 C 
ATOM     35  C   UNL     1     -40.970  56.530  -8.800  0.00  0.00    +0.000 C 
ATOM     36  C   UNL     1     -40.876  58.712  -7.092  0.00  0.00    +0.000 C 
ATOM     37  C   UNL     1     -40.531  59.145  -8.389  0.00  0.00    +0.000 C 
ATOM     38  C   UNL     1     -40.626  57.919  -9.081  0.00  0.00    +0.000 C 
ATOM     39  C   UNL     1     -41.073  56.247  -7.310  0.00  0.00    +0.000 C 
ATOM     40  C   UNL     1     -40.257  57.318  -5.174  0.00  0.00    +0.000 C 
ATOM     41  C   UNL     1     -42.693  57.538  -5.891  0.00  0.00    +0.000 C 
ATOM     42  C   UNL     1     -42.252  56.114  -9.527  0.00  0.00    +0.000 C 
BRANCH  35  43
ATOM     43  O   UNL     1     -39.957  55.719  -9.356  0.00  0.00    +0.000 OA
ATOM     44  H   UNL     1     -39.661  55.218  -8.573  0.00  0.00    +0.000 HD
ENDBRANCH  35  43
BRANCH  37  45
ATOM     45  O   UNL     1     -41.128  60.289  -8.901  0.00  0.00    +0.000 OA
BRANCH  45  47
ATOM     46  O   UNL     1     -39.244  61.614  -9.343  0.00  0.00    +0.000 OA
ATOM     47  C   UNL     1     -40.236  60.980  -9.651  0.00  0.00    +0.000 C 
ATOM     48  C   UNL     1     -40.530  60.970 -11.110  0.00  0.00    +0.000 C 
ENDBRANCH  45  47
ENDBRANCH  37  45
ENDBRANCH  32  39
ENDBRANCH  30  33
ENDBRANCH  29  30
ENDBRANCH  27  29
ENDBRANCH  26  28
ENDBRANCH   1  25
TORSDOF 13
ENDMDL
MODEL 8
REMARK VINA RESULT:      -6.6      1.375      2.197
REMARK  Name = 5289155_Peridinin.pdbqt.pdb
REMARK  13 active torsions:
REMARK  status: ('A' for Active; 'I' for Inactive)
REMARK    1  A    between atoms: C_1  and  C_3
REMARK    2  A    between atoms: C_3  and  C_25
REMARK    3  A    between atoms: C_6  and  C_12
REMARK    4  A    between atoms: C_11  and  C_14
REMARK    5  A    between atoms: C_19  and  O_23
REMARK    6  A    between atoms: C_26  and  C_28
REMARK    7  A    between atoms: C_27  and  C_31
REMARK    8  A    between atoms: C_29  and  C_31
REMARK    9  A    between atoms: C_29  and  C_42
REMARK   10  A    between atoms: C_33  and  O_43
REMARK   11  A    between atoms: C_35  and  O_45
REMARK   12  A    between atoms: C_37  and  C_41
REMARK   13  A    between atoms: O_45  and  C_47
REMARK                            x       y       z     vdW  Elec       q    Type
REMARK                         _______ _______ _______ _____ _____    ______ ____
ROOT
ATOM      1  C   UNL     1     -16.298  54.428 -24.683  0.00  0.00    +0.000 C 
ENDROOT
BRANCH   1   2
ATOM      2  C   UNL     1     -16.342  53.698 -25.752  0.00  0.00    +0.000 C 
ATOM      3  C   UNL     1     -15.533  52.441 -25.841  0.00  0.00    +0.000 C 
ATOM      4  O   UNL     1     -18.268  55.739 -28.015  0.00  0.00    +0.000 OA
ATOM      5  O   UNL     1     -19.146  56.748 -29.908  0.00  0.00    +0.000 OA
ATOM      6  C   UNL     1     -18.635  54.387 -29.872  0.00  0.00    +0.000 C 
ATOM      7  C   UNL     1     -18.161  53.631 -28.951  0.00  0.00    +0.000 C 
ATOM      8  C   UNL     1     -18.737  55.761 -29.324  0.00  0.00    +0.000 C 
ATOM      9  C   UNL     1     -17.956  54.398 -27.808  0.00  0.00    +0.000 C 
ATOM     10  C   UNL     1     -17.185  54.066 -26.825  0.00  0.00    +0.000 C 
BRANCH   6  12
ATOM     11  C   UNL     1     -19.243  53.571 -32.274  0.00  0.00    +0.000 C 
ATOM     12  C   UNL     1     -18.968  53.948 -31.167  0.00  0.00    +0.000 C 
BRANCH  11  14
ATOM     13  O   UNL     1     -20.079  51.756 -33.573  0.00  0.00    +0.000 OA
ATOM     14  C   UNL     1     -19.565  53.118 -33.618  0.00  0.00    +0.000 C 
ATOM     15  C   UNL     1     -21.023  52.750 -33.963  0.00  0.00    +0.000 C 
ATOM     16  C   UNL     1     -18.592  53.460 -34.801  0.00  0.00    +0.000 C 
ATOM     17  C   UNL     1     -21.364  52.657 -35.347  0.00  0.00    +0.000 C 
ATOM     18  C   UNL     1     -19.307  53.161 -36.045  0.00  0.00    +0.000 C 
ATOM     19  C   UNL     1     -20.589  52.811 -36.510  0.00  0.00    +0.000 C 
ATOM     20  C   UNL     1     -22.189  52.907 -32.982  0.00  0.00    +0.000 C 
ATOM     21  C   UNL     1     -18.308  54.981 -34.683  0.00  0.00    +0.000 C 
ATOM     22  C   UNL     1     -17.327  52.598 -34.594  0.00  0.00    +0.000 C 
BRANCH  19  23
ATOM     23  O   UNL     1     -21.092  53.329 -37.665  0.00  0.00    +0.000 OA
ATOM     24  H   UNL     1     -20.592  53.041 -38.450  0.00  0.00    +0.000 HD
ENDBRANCH  19  23
ENDBRANCH  11  14
ENDBRANCH   6  12
ENDBRANCH   1   2
BRANCH   1  25
ATOM     25  C   UNL     1     -16.244  55.292 -23.417  0.00  0.00    +0.000 C 
ATOM     26  C   UNL     1     -16.199  55.971 -22.429  0.00  0.00    +0.000 C 
BRANCH  26  28
ATOM     27  C   UNL     1     -16.097  57.530 -20.189  0.00  0.00    +0.000 C 
ATOM     28  C   UNL     1     -16.139  56.845 -21.172  0.00  0.00    +0.000 C 
BRANCH  27  29
ATOM     29  C   UNL     1     -16.050  58.410 -18.933  0.00  0.00    +0.000 C 
BRANCH  29  30
ATOM     30  C   UNL     1     -16.005  59.161 -17.879  0.00  0.00    +0.000 C 
ATOM     31  C   UNL     1     -14.952  58.939 -16.836  0.00  0.00    +0.000 C 
BRANCH  30  33
ATOM     32  C   UNL     1     -17.821  61.014 -17.513  0.00  0.00    +0.000 C 
ATOM     33  C   UNL     1     -16.988  60.163 -17.682  0.00  0.00    +0.000 C 
BRANCH  32  39
ATOM     34  C   UNL     1     -19.724  61.918 -16.155  0.00  0.00    +0.000 C 
ATOM     35  C   UNL     1     -18.882  63.099 -18.315  0.00  0.00    +0.000 C 
ATOM     36  C   UNL     1     -20.410  63.209 -16.003  0.00  0.00    +0.000 C 
ATOM     37  C   UNL     1     -20.508  64.451 -16.663  0.00  0.00    +0.000 C 
ATOM     38  C   UNL     1     -19.677  64.196 -17.773  0.00  0.00    +0.000 C 
ATOM     39  C   UNL     1     -18.729  61.951 -17.330  0.00  0.00    +0.000 C 
ATOM     40  C   UNL     1     -18.946  61.629 -14.835  0.00  0.00    +0.000 C 
ATOM     41  C   UNL     1     -20.762  60.794 -16.416  0.00  0.00    +0.000 C 
ATOM     42  C   UNL     1     -19.451  62.604 -19.648  0.00  0.00    +0.000 C 
BRANCH  35  43
ATOM     43  O   UNL     1     -17.606  63.612 -18.630  0.00  0.00    +0.000 OA
ATOM     44  H   UNL     1     -17.024  62.927 -18.251  0.00  0.00    +0.000 HD
ENDBRANCH  35  43
BRANCH  37  45
ATOM     45  O   UNL     1     -21.761  65.025 -16.840  0.00  0.00    +0.000 OA
BRANCH  45  47
ATOM     46  O   UNL     1     -22.515  65.990 -14.839  0.00  0.00    +0.000 OA
ATOM     47  C   UNL     1     -21.955  66.001 -15.919  0.00  0.00    +0.000 C 
ATOM     48  C   UNL     1     -21.393  67.324 -16.307  0.00  0.00    +0.000 C 
ENDBRANCH  45  47
ENDBRANCH  37  45
ENDBRANCH  32  39
ENDBRANCH  30  33
ENDBRANCH  29  30
ENDBRANCH  27  29
ENDBRANCH  26  28
ENDBRANCH   1  25
TORSDOF 13
ENDMDL
MODEL 9
REMARK VINA RESULT:      -6.6     24.167     26.681
REMARK  Name = 5289155_Peridinin.pdbqt.pdb
REMARK  13 active torsions:
REMARK  status: ('A' for Active; 'I' for Inactive)
REMARK    1  A    between atoms: C_1  and  C_3
REMARK    2  A    between atoms: C_3  and  C_25
REMARK    3  A    between atoms: C_6  and  C_12
REMARK    4  A    between atoms: C_11  and  C_14
REMARK    5  A    between atoms: C_19  and  O_23
REMARK    6  A    between atoms: C_26  and  C_28
REMARK    7  A    between atoms: C_27  and  C_31
REMARK    8  A    between atoms: C_29  and  C_31
REMARK    9  A    between atoms: C_29  and  C_42
REMARK   10  A    between atoms: C_33  and  O_43
REMARK   11  A    between atoms: C_35  and  O_45
REMARK   12  A    between atoms: C_37  and  C_41
REMARK   13  A    between atoms: O_45  and  C_47
REMARK                            x       y       z     vdW  Elec       q    Type
REMARK                         _______ _______ _______ _____ _____    ______ ____
ROOT
ATOM      1  C   UNL     1     -36.059  46.286 -10.021  0.00  0.00    +0.000 C 
ENDROOT
BRANCH   1   2
ATOM      2  C   UNL     1     -35.342  45.469 -10.726  0.00  0.00    +0.000 C 
ATOM      3  C   UNL     1     -34.831  44.198 -10.118  0.00  0.00    +0.000 C 
ATOM      4  O   UNL     1     -34.777  47.336 -13.756  0.00  0.00    +0.000 OA
ATOM      5  O   UNL     1     -33.869  48.194 -15.709  0.00  0.00    +0.000 OA
ATOM      6  C   UNL     1     -33.728  45.838 -15.194  0.00  0.00    +0.000 C 
ATOM      7  C   UNL     1     -34.157  45.155 -14.196  0.00  0.00    +0.000 C 
ATOM      8  C   UNL     1     -34.106  47.254 -14.972  0.00  0.00    +0.000 C 
ATOM      9  C   UNL     1     -34.821  46.014 -13.324  0.00  0.00    +0.000 C 
ATOM     10  C   UNL     1     -35.070  45.756 -12.082  0.00  0.00    +0.000 C 
BRANCH   6  12
ATOM     11  C   UNL     1     -32.396  44.825 -17.195  0.00  0.00    +0.000 C 
ATOM     12  C   UNL     1     -33.012  45.295 -16.277  0.00  0.00    +0.000 C 
BRANCH  11  14
ATOM     13  O   UNL     1     -30.452  45.050 -18.555  0.00  0.00    +0.000 OA
ATOM     14  C   UNL     1     -31.643  44.252 -18.300  0.00  0.00    +0.000 C 
ATOM     15  C   UNL     1     -30.209  43.739 -18.052  0.00  0.00    +0.000 C 
ATOM     16  C   UNL     1     -32.409  43.716 -19.559  0.00  0.00    +0.000 C 
ATOM     17  C   UNL     1     -29.644  42.877 -19.040  0.00  0.00    +0.000 C 
ATOM     18  C   UNL     1     -31.450  42.933 -20.344  0.00  0.00    +0.000 C 
ATOM     19  C   UNL     1     -30.147  42.408 -20.266  0.00  0.00    +0.000 C 
ATOM     20  C   UNL     1     -29.544  43.725 -16.672  0.00  0.00    +0.000 C 
ATOM     21  C   UNL     1     -33.538  42.806 -19.007  0.00  0.00    +0.000 C 
ATOM     22  C   UNL     1     -32.952  44.954 -20.305  0.00  0.00    +0.000 C 
BRANCH  19  23
ATOM     23  O   UNL     1     -29.845  41.175 -20.761  0.00  0.00    +0.000 OA
ATOM     24  H   UNL     1     -30.461  40.489 -20.447  0.00  0.00    +0.000 HD
ENDBRANCH  19  23
ENDBRANCH  11  14
ENDBRANCH   6  12
ENDBRANCH   1   2
BRANCH   1  25
ATOM     25  C   UNL     1     -36.909  47.252  -9.187  0.00  0.00    +0.000 C 
ATOM     26  C   UNL     1     -37.570  48.012  -8.535  0.00  0.00    +0.000 C 
BRANCH  26  28
ATOM     27  C   UNL     1     -39.068  49.747  -7.050  0.00  0.00    +0.000 C 
ATOM     28  C   UNL     1     -38.409  48.988  -7.704  0.00  0.00    +0.000 C 
BRANCH  27  29
ATOM     29  C   UNL     1     -39.915  50.713  -6.212  0.00  0.00    +0.000 C 
BRANCH  29  30
ATOM     30  C   UNL     1     -40.632  51.521  -5.498  0.00  0.00    +0.000 C 
ATOM     31  C   UNL     1     -40.912  52.913  -5.979  0.00  0.00    +0.000 C 
BRANCH  30  33
ATOM     32  C   UNL     1     -41.519  50.758  -3.153  0.00  0.00    +0.000 C 
ATOM     33  C   UNL     1     -41.111  51.107  -4.229  0.00  0.00    +0.000 C 
BRANCH  32  39
ATOM     34  C   UNL     1     -41.969  48.901  -1.531  0.00  0.00    +0.000 C 
ATOM     35  C   UNL     1     -42.582  51.374  -1.006  0.00  0.00    +0.000 C 
ATOM     36  C   UNL     1     -42.230  48.780  -0.090  0.00  0.00    +0.000 C 
ATOM     37  C   UNL     1     -42.577  49.598   1.005  0.00  0.00    +0.000 C 
ATOM     38  C   UNL     1     -42.697  50.839   0.346  0.00  0.00    +0.000 C 
ATOM     39  C   UNL     1     -41.972  50.374  -1.976  0.00  0.00    +0.000 C 
ATOM     40  C   UNL     1     -40.566  48.283  -1.819  0.00  0.00    +0.000 C 
ATOM     41  C   UNL     1     -43.058  48.139  -2.332  0.00  0.00    +0.000 C 
ATOM     42  C   UNL     1     -43.931  51.884  -1.522  0.00  0.00    +0.000 C 
BRANCH  35  43
ATOM     43  O   UNL     1     -41.759  52.519  -0.943  0.00  0.00    +0.000 OA
ATOM     44  H   UNL     1     -41.163  52.369  -1.701  0.00  0.00    +0.000 HD
ENDBRANCH  35  43
BRANCH  37  45
ATOM     45  O   UNL     1     -43.566  49.169   1.881  0.00  0.00    +0.000 OA
BRANCH  45  47
ATOM     46  O   UNL     1     -42.375  49.686   3.835  0.00  0.00    +0.000 OA
ATOM     47  C   UNL     1     -43.353  49.698   3.111  0.00  0.00    +0.000 C 
ATOM     48  C   UNL     1     -44.530  50.410   3.679  0.00  0.00    +0.000 C 
ENDBRANCH  45  47
ENDBRANCH  37  45
ENDBRANCH  32  39
ENDBRANCH  30  33
ENDBRANCH  29  30
ENDBRANCH  27  29
ENDBRANCH  26  28
ENDBRANCH   1  25
TORSDOF 13
ENDMDL
