MODEL 1
REMARK VINA RESULT:      -6.3      0.000      0.000
REMARK  Name = 5318517_Andrographolide.pdbqt.pdb
REMARK  6 active torsions:
REMARK  status: ('A' for Active; 'I' for Inactive)
REMARK    1  A    between atoms: C_3  and  C_16
REMARK    2  A    between atoms: C_4  and  C_19
REMARK    3  A    between atoms: C_6  and  O_14
REMARK    4  A    between atoms: C_16  and  O_17
REMARK    5  A    between atoms: C_22  and  C_23
REMARK    6  A    between atoms: C_24  and  O_27
REMARK                            x       y       z     vdW  Elec       q    Type
REMARK                         _______ _______ _______ _____ _____    ______ ____
ROOT
ATOM      1  C   UNL     1     -36.021  45.649 -11.759  0.00  0.00    +0.000 C 
ATOM      2  C   UNL     1     -36.505  46.367 -13.055  0.00  0.00    +0.000 C 
ATOM      3  C   UNL     1     -35.795  46.197 -14.410  0.00  0.00    +0.000 C 
ATOM      4  C   UNL     1     -36.309  46.365 -10.409  0.00  0.00    +0.000 C 
ATOM      5  C   UNL     1     -34.581  45.489 -11.941  0.00  0.00    +0.000 C 
ATOM      6  C   UNL     1     -34.291  45.789 -14.378  0.00  0.00    +0.000 C 
ATOM      7  C   UNL     1     -37.625  47.222 -12.850  0.00  0.00    +0.000 C 
ATOM      8  C   UNL     1     -33.687  45.532 -13.134  0.00  0.00    +0.000 C 
ATOM      9  C   UNL     1     -36.725  44.259 -11.714  0.00  0.00    +0.000 C 
ATOM     10  C   UNL     1     -38.090  47.631 -11.489  0.00  0.00    +0.000 C 
ATOM     11  C   UNL     1     -37.480  47.244 -10.278  0.00  0.00    +0.000 C 
ATOM     12  C   UNL     1     -35.840  47.581 -15.153  0.00  0.00    +0.000 C 
ATOM     13  C   UNL     1     -37.853  47.872  -9.162  0.00  0.00    +0.000 C 
ENDROOT
BRANCH   6  14
ATOM     14  O   UNL     1     -33.614  45.485 -15.547  0.00  0.00    +0.000 OA
ATOM     15  H   UNL     1     -33.894  44.633 -15.925  0.00  0.00    +0.000 HD
ENDBRANCH   6  14
BRANCH   4  16
ATOM     16  C   UNL     1     -35.510  46.074  -9.252  0.00  0.00    +0.000 C 
ATOM     17  C   UNL     1     -34.666  45.770  -8.011  0.00  0.00    +0.000 C 
BRANCH  17  20
ATOM     18  O   UNL     1     -33.497  45.047  -4.725  0.00  0.00    +0.000 OA
ATOM     19  O   UNL     1     -35.649  45.808  -5.203  0.00  0.00    +0.000 OA
ATOM     20  C   UNL     1     -33.958  45.508  -6.958  0.00  0.00    +0.000 C 
ATOM     21  C   UNL     1     -32.579  45.090  -6.904  0.00  0.00    +0.000 C 
ATOM     22  C   UNL     1     -34.525  45.494  -5.552  0.00  0.00    +0.000 C 
ATOM     23  C   UNL     1     -32.470  44.838  -5.535  0.00  0.00    +0.000 C 
BRANCH  21  24
ATOM     24  O   UNL     1     -32.064  44.287  -7.882  0.00  0.00    +0.000 OA
ATOM     25  H   UNL     1     -32.750  43.994  -8.508  0.00  0.00    +0.000 HD
ENDBRANCH  21  24
ENDBRANCH  17  20
ENDBRANCH   4  16
BRANCH   3  26
ATOM     26  C   UNL     1     -36.547  45.171 -15.188  0.00  0.00    +0.000 C 
BRANCH  26  27
ATOM     27  O   UNL     1     -37.221  44.259 -15.894  0.00  0.00    +0.000 OA
ATOM     28  H   UNL     1     -38.177  44.326 -15.717  0.00  0.00    +0.000 HD
ENDBRANCH  26  27
ENDBRANCH   3  26
TORSDOF 6
ENDMDL
MODEL 2
REMARK VINA RESULT:      -6.1     22.524     24.965
REMARK  Name = 5318517_Andrographolide.pdbqt.pdb
REMARK  6 active torsions:
REMARK  status: ('A' for Active; 'I' for Inactive)
REMARK    1  A    between atoms: C_3  and  C_16
REMARK    2  A    between atoms: C_4  and  C_19
REMARK    3  A    between atoms: C_6  and  O_14
REMARK    4  A    between atoms: C_16  and  O_17
REMARK    5  A    between atoms: C_22  and  C_23
REMARK    6  A    between atoms: C_24  and  O_27
REMARK                            x       y       z     vdW  Elec       q    Type
REMARK                         _______ _______ _______ _____ _____    ______ ____
ROOT
ATOM      1  C   UNL     1     -16.757  59.607 -18.847  0.00  0.00    +0.000 C 
ATOM      2  C   UNL     1     -17.661  60.730 -18.254  0.00  0.00    +0.000 C 
ATOM      3  C   UNL     1     -18.177  60.699 -16.804  0.00  0.00    +0.000 C 
ATOM      4  C   UNL     1     -16.864  59.352 -20.377  0.00  0.00    +0.000 C 
ATOM      5  C   UNL     1     -17.137  58.403 -18.113  0.00  0.00    +0.000 C 
ATOM      6  C   UNL     1     -18.286  59.304 -16.118  0.00  0.00    +0.000 C 
ATOM      7  C   UNL     1     -17.995  61.748 -19.192  0.00  0.00    +0.000 C 
ATOM      8  C   UNL     1     -17.849  58.168 -16.824  0.00  0.00    +0.000 C 
ATOM      9  C   UNL     1     -15.279  59.994 -18.536  0.00  0.00    +0.000 C 
ATOM     10  C   UNL     1     -17.768  61.597 -20.662  0.00  0.00    +0.000 C 
ATOM     11  C   UNL     1     -17.227  60.452 -21.282  0.00  0.00    +0.000 C 
ATOM     12  C   UNL     1     -19.634  61.286 -16.800  0.00  0.00    +0.000 C 
ATOM     13  C   UNL     1     -17.304  60.365 -22.611  0.00  0.00    +0.000 C 
ENDROOT
BRANCH   6  14
ATOM     14  O   UNL     1     -18.613  59.197 -14.778  0.00  0.00    +0.000 OA
ATOM     15  H   UNL     1     -19.462  58.742 -14.639  0.00  0.00    +0.000 HD
ENDBRANCH   6  14
BRANCH   4  16
ATOM     16  C   UNL     1     -16.487  58.080 -20.926  0.00  0.00    +0.000 C 
ATOM     17  C   UNL     1     -16.095  56.720 -21.512  0.00  0.00    +0.000 C 
BRANCH  17  20
ATOM     18  O   UNL     1     -15.245  53.306 -22.065  0.00  0.00    +0.000 OA
ATOM     19  O   UNL     1     -15.268  54.318 -19.964  0.00  0.00    +0.000 OA
ATOM     20  C   UNL     1     -15.768  55.571 -22.015  0.00  0.00    +0.000 C 
ATOM     21  C   UNL     1     -15.785  55.181 -23.402  0.00  0.00    +0.000 C 
ATOM     22  C   UNL     1     -15.402  54.364 -21.174  0.00  0.00    +0.000 C 
ATOM     23  C   UNL     1     -15.479  53.825 -23.261  0.00  0.00    +0.000 C 
BRANCH  21  24
ATOM     24  O   UNL     1     -16.738  55.675 -24.246  0.00  0.00    +0.000 OA
ATOM     25  H   UNL     1     -17.574  55.856 -23.780  0.00  0.00    +0.000 HD
ENDBRANCH  21  24
ENDBRANCH  17  20
ENDBRANCH   4  16
BRANCH   3  26
ATOM     26  C   UNL     1     -17.274  61.558 -15.986  0.00  0.00    +0.000 C 
BRANCH  26  27
ATOM     27  O   UNL     1     -16.455  62.321 -15.256  0.00  0.00    +0.000 OA
ATOM     28  H   UNL     1     -16.921  62.681 -14.480  0.00  0.00    +0.000 HD
ENDBRANCH  26  27
ENDBRANCH   3  26
TORSDOF 6
ENDMDL
MODEL 3
REMARK VINA RESULT:      -6.0      3.316      6.154
REMARK  Name = 5318517_Andrographolide.pdbqt.pdb
REMARK  6 active torsions:
REMARK  status: ('A' for Active; 'I' for Inactive)
REMARK    1  A    between atoms: C_3  and  C_16
REMARK    2  A    between atoms: C_4  and  C_19
REMARK    3  A    between atoms: C_6  and  O_14
REMARK    4  A    between atoms: C_16  and  O_17
REMARK    5  A    between atoms: C_22  and  C_23
REMARK    6  A    between atoms: C_24  and  O_27
REMARK                            x       y       z     vdW  Elec       q    Type
REMARK                         _______ _______ _______ _____ _____    ______ ____
ROOT
ATOM      1  C   UNL     1     -36.699  46.234  -9.421  0.00  0.00    +0.000 C 
ATOM      2  C   UNL     1     -35.654  45.511 -10.323  0.00  0.00    +0.000 C 
ATOM      3  C   UNL     1     -34.289  45.036  -9.793  0.00  0.00    +0.000 C 
ATOM      4  C   UNL     1     -37.657  47.240 -10.120  0.00  0.00    +0.000 C 
ATOM      5  C   UNL     1     -35.900  46.926  -8.414  0.00  0.00    +0.000 C 
ATOM      6  C   UNL     1     -33.717  45.773  -8.544  0.00  0.00    +0.000 C 
ATOM      7  C   UNL     1     -36.066  45.379 -11.680  0.00  0.00    +0.000 C 
ATOM      8  C   UNL     1     -34.497  46.771  -7.933  0.00  0.00    +0.000 C 
ATOM      9  C   UNL     1     -37.577  45.130  -8.758  0.00  0.00    +0.000 C 
ATOM     10  C   UNL     1     -37.229  46.127 -12.247  0.00  0.00    +0.000 C 
ATOM     11  C   UNL     1     -38.027  47.043 -11.530  0.00  0.00    +0.000 C 
ATOM     12  C   UNL     1     -33.229  45.254 -10.933  0.00  0.00    +0.000 C 
ATOM     13  C   UNL     1     -38.873  47.809 -12.220  0.00  0.00    +0.000 C 
ENDROOT
BRANCH   6  14
ATOM     14  O   UNL     1     -32.563  45.325  -7.924  0.00  0.00    +0.000 OA
ATOM     15  H   UNL     1     -31.758  45.686  -8.337  0.00  0.00    +0.000 HD
ENDBRANCH   6  14
BRANCH   4  16
ATOM     16  C   UNL     1     -38.284  48.287  -9.364  0.00  0.00    +0.000 C 
ATOM     17  C   UNL     1     -38.959  49.396  -8.552  0.00  0.00    +0.000 C 
BRANCH  17  20
ATOM     18  O   UNL     1     -40.096  51.586  -5.984  0.00  0.00    +0.000 OA
ATOM     19  O   UNL     1     -39.060  49.535  -5.582  0.00  0.00    +0.000 OA
ATOM     20  C   UNL     1     -39.526  50.332  -7.857  0.00  0.00    +0.000 C 
ATOM     21  C   UNL     1     -40.172  51.523  -8.347  0.00  0.00    +0.000 C 
ATOM     22  C   UNL     1     -39.504  50.378  -6.342  0.00  0.00    +0.000 C 
ATOM     23  C   UNL     1     -40.428  52.160  -7.130  0.00  0.00    +0.000 C 
BRANCH  21  24
ATOM     24  O   UNL     1     -39.703  52.151  -9.466  0.00  0.00    +0.000 OA
ATOM     25  H   UNL     1     -38.824  51.822  -9.723  0.00  0.00    +0.000 HD
ENDBRANCH  21  24
ENDBRANCH  17  20
ENDBRANCH   4  16
BRANCH   3  26
ATOM     26  C   UNL     1     -34.409  43.586  -9.472  0.00  0.00    +0.000 C 
BRANCH  26  27
ATOM     27  O   UNL     1     -34.529  42.286  -9.184  0.00  0.00    +0.000 OA
ATOM     28  H   UNL     1     -33.811  41.775  -9.600  0.00  0.00    +0.000 HD
ENDBRANCH  26  27
ENDBRANCH   3  26
TORSDOF 6
ENDMDL
MODEL 4
REMARK VINA RESULT:      -6.0     24.476     25.979
REMARK  Name = 5318517_Andrographolide.pdbqt.pdb
REMARK  6 active torsions:
REMARK  status: ('A' for Active; 'I' for Inactive)
REMARK    1  A    between atoms: C_3  and  C_16
REMARK    2  A    between atoms: C_4  and  C_19
REMARK    3  A    between atoms: C_6  and  O_14
REMARK    4  A    between atoms: C_16  and  O_17
REMARK    5  A    between atoms: C_22  and  C_23
REMARK    6  A    between atoms: C_24  and  O_27
REMARK                            x       y       z     vdW  Elec       q    Type
REMARK                         _______ _______ _______ _____ _____    ______ ____
ROOT
ATOM      1  C   UNL     1     -16.430  54.407 -27.362  0.00  0.00    +0.000 C 
ATOM      2  C   UNL     1     -17.056  53.569 -28.518  0.00  0.00    +0.000 C 
ATOM      3  C   UNL     1     -17.933  54.197 -29.616  0.00  0.00    +0.000 C 
ATOM      4  C   UNL     1     -16.186  53.673 -26.013  0.00  0.00    +0.000 C 
ATOM      5  C   UNL     1     -17.360  55.515 -27.166  0.00  0.00    +0.000 C 
ATOM      6  C   UNL     1     -18.666  55.527 -29.265  0.00  0.00    +0.000 C 
ATOM      7  C   UNL     1     -16.776  52.175 -28.428  0.00  0.00    +0.000 C 
ATOM      8  C   UNL     1     -18.436  56.113 -28.007  0.00  0.00    +0.000 C 
ATOM      9  C   UNL     1     -15.052  54.931 -27.868  0.00  0.00    +0.000 C 
ATOM     10  C   UNL     1     -16.213  51.542 -27.197  0.00  0.00    +0.000 C 
ATOM     11  C   UNL     1     -15.916  52.228 -26.001  0.00  0.00    +0.000 C 
ATOM     12  C   UNL     1     -19.070  53.170 -29.968  0.00  0.00    +0.000 C 
ATOM     13  C   UNL     1     -15.647  51.502 -24.914  0.00  0.00    +0.000 C 
ENDROOT
BRANCH   6  14
ATOM     14  O   UNL     1     -19.366  56.227 -30.233  0.00  0.00    +0.000 OA
ATOM     15  H   UNL     1     -19.453  55.723 -31.061  0.00  0.00    +0.000 HD
ENDBRANCH   6  14
BRANCH   4  16
ATOM     16  C   UNL     1     -16.097  54.419 -24.790  0.00  0.00    +0.000 C 
ATOM     17  C   UNL     1     -16.013  55.221 -23.487  0.00  0.00    +0.000 C 
BRANCH  17  20
ATOM     18  O   UNL     1     -16.376  57.606 -20.867  0.00  0.00    +0.000 OA
ATOM     19  O   UNL     1     -17.035  57.984 -23.072  0.00  0.00    +0.000 OA
ATOM     20  C   UNL     1     -15.948  55.893 -22.382  0.00  0.00    +0.000 C 
ATOM     21  C   UNL     1     -15.431  55.451 -21.111  0.00  0.00    +0.000 C 
ATOM     22  C   UNL     1     -16.531  57.282 -22.213  0.00  0.00    +0.000 C 
ATOM     23  C   UNL     1     -15.777  56.555 -20.328  0.00  0.00    +0.000 C 
BRANCH  21  24
ATOM     24  O   UNL     1     -15.579  54.150 -20.722  0.00  0.00    +0.000 OA
ATOM     25  H   UNL     1     -15.789  54.077 -19.774  0.00  0.00    +0.000 HD
ENDBRANCH  21  24
ENDBRANCH  17  20
ENDBRANCH   4  16
BRANCH   3  26
ATOM     26  C   UNL     1     -17.067  54.434 -30.805  0.00  0.00    +0.000 C 
BRANCH  26  27
ATOM     27  O   UNL     1     -16.280  54.645 -31.864  0.00  0.00    +0.000 OA
ATOM     28  H   UNL     1     -15.601  53.949 -31.931  0.00  0.00    +0.000 HD
ENDBRANCH  26  27
ENDBRANCH   3  26
TORSDOF 6
ENDMDL
MODEL 5
REMARK VINA RESULT:      -5.9     24.630     25.980
REMARK  Name = 5318517_Andrographolide.pdbqt.pdb
REMARK  6 active torsions:
REMARK  status: ('A' for Active; 'I' for Inactive)
REMARK    1  A    between atoms: C_3  and  C_16
REMARK    2  A    between atoms: C_4  and  C_19
REMARK    3  A    between atoms: C_6  and  O_14
REMARK    4  A    between atoms: C_16  and  O_17
REMARK    5  A    between atoms: C_22  and  C_23
REMARK    6  A    between atoms: C_24  and  O_27
REMARK                            x       y       z     vdW  Elec       q    Type
REMARK                         _______ _______ _______ _____ _____    ______ ____
ROOT
ATOM      1  C   UNL     1     -16.343  54.346 -27.219  0.00  0.00    +0.000 C 
ATOM      2  C   UNL     1     -16.964  53.594 -28.435  0.00  0.00    +0.000 C 
ATOM      3  C   UNL     1     -17.828  54.304 -29.494  0.00  0.00    +0.000 C 
ATOM      4  C   UNL     1     -16.116  53.518 -25.922  0.00  0.00    +0.000 C 
ATOM      5  C   UNL     1     -17.268  55.444 -26.953  0.00  0.00    +0.000 C 
ATOM      6  C   UNL     1     -18.555  55.611 -29.057  0.00  0.00    +0.000 C 
ATOM      7  C   UNL     1     -16.694  52.196 -28.441  0.00  0.00    +0.000 C 
ATOM      8  C   UNL     1     -18.332  56.107 -27.760  0.00  0.00    +0.000 C 
ATOM      9  C   UNL     1     -14.958  54.895 -27.675  0.00  0.00    +0.000 C 
ATOM     10  C   UNL     1     -16.145  51.475 -27.251  0.00  0.00    +0.000 C 
ATOM     11  C   UNL     1     -15.854  52.074 -26.008  0.00  0.00    +0.000 C 
ATOM     12  C   UNL     1     -18.967  53.312 -29.926  0.00  0.00    +0.000 C 
ATOM     13  C   UNL     1     -15.599  51.272 -24.973  0.00  0.00    +0.000 C 
ENDROOT
BRANCH   6  14
ATOM     14  O   UNL     1     -19.242  56.381 -29.979  0.00  0.00    +0.000 OA
ATOM     15  H   UNL     1     -19.325  55.937 -30.842  0.00  0.00    +0.000 HD
ENDBRANCH   6  14
BRANCH   4  16
ATOM     16  C   UNL     1     -16.033  54.176 -24.649  0.00  0.00    +0.000 C 
ATOM     17  C   UNL     1     -15.954  54.885 -23.294  0.00  0.00    +0.000 C 
BRANCH  17  20
ATOM     18  O   UNL     1     -15.123  55.979 -20.007  0.00  0.00    +0.000 OA
ATOM     19  O   UNL     1     -14.320  54.010 -20.966  0.00  0.00    +0.000 OA
ATOM     20  C   UNL     1     -15.895  55.481 -22.144  0.00  0.00    +0.000 C 
ATOM     21  C   UNL     1     -16.543  56.707 -21.753  0.00  0.00    +0.000 C 
ATOM     22  C   UNL     1     -15.005  55.017 -21.008  0.00  0.00    +0.000 C 
ATOM     23  C   UNL     1     -15.972  56.874 -20.489  0.00  0.00    +0.000 C 
BRANCH  21  24
ATOM     24  O   UNL     1     -16.721  57.712 -22.661  0.00  0.00    +0.000 OA
ATOM     25  H   UNL     1     -16.566  58.588 -22.265  0.00  0.00    +0.000 HD
ENDBRANCH  21  24
ENDBRANCH  17  20
ENDBRANCH   4  16
BRANCH   3  26
ATOM     26  C   UNL     1     -16.949  54.617 -30.656  0.00  0.00    +0.000 C 
BRANCH  26  27
ATOM     27  O   UNL     1     -16.152  54.896 -31.692  0.00  0.00    +0.000 OA
ATOM     28  H   UNL     1     -15.268  54.510 -31.557  0.00  0.00    +0.000 HD
ENDBRANCH  26  27
ENDBRANCH   3  26
TORSDOF 6
ENDMDL
MODEL 6
REMARK VINA RESULT:      -5.7     23.189     25.168
REMARK  Name = 5318517_Andrographolide.pdbqt.pdb
REMARK  6 active torsions:
REMARK  status: ('A' for Active; 'I' for Inactive)
REMARK    1  A    between atoms: C_3  and  C_16
REMARK    2  A    between atoms: C_4  and  C_19
REMARK    3  A    between atoms: C_6  and  O_14
REMARK    4  A    between atoms: C_16  and  O_17
REMARK    5  A    between atoms: C_22  and  C_23
REMARK    6  A    between atoms: C_24  and  O_27
REMARK                            x       y       z     vdW  Elec       q    Type
REMARK                         _______ _______ _______ _____ _____    ______ ____
ROOT
ATOM      1  C   UNL     1     -16.062  49.756   4.698  0.00  0.00    +0.000 C 
ATOM      2  C   UNL     1     -16.557  51.080   4.040  0.00  0.00    +0.000 C 
ATOM      3  C   UNL     1     -16.933  52.324   4.864  0.00  0.00    +0.000 C 
ATOM      4  C   UNL     1     -16.367  48.435   3.938  0.00  0.00    +0.000 C 
ATOM      5  C   UNL     1     -16.701  49.736   6.011  0.00  0.00    +0.000 C 
ATOM      6  C   UNL     1     -17.374  52.092   6.341  0.00  0.00    +0.000 C 
ATOM      7  C   UNL     1     -16.669  51.005   2.623  0.00  0.00    +0.000 C 
ATOM      8  C   UNL     1     -17.337  50.784   6.859  0.00  0.00    +0.000 C 
ATOM      9  C   UNL     1     -14.513  49.867   4.846  0.00  0.00    +0.000 C 
ATOM     10  C   UNL     1     -16.621  49.710   1.876  0.00  0.00    +0.000 C 
ATOM     11  C   UNL     1     -16.481  48.439   2.472  0.00  0.00    +0.000 C 
ATOM     12  C   UNL     1     -18.160  53.011   4.162  0.00  0.00    +0.000 C 
ATOM     13  C   UNL     1     -16.693  47.365   1.711  0.00  0.00    +0.000 C 
ENDROOT
BRANCH   6  14
ATOM     14  O   UNL     1     -17.600  53.162   7.189  0.00  0.00    +0.000 OA
ATOM     15  H   UNL     1     -18.549  53.340   7.313  0.00  0.00    +0.000 HD
ENDBRANCH   6  14
BRANCH   4  16
ATOM     16  C   UNL     1     -16.413  47.187   4.646  0.00  0.00    +0.000 C 
ATOM     17  C   UNL     1     -16.471  45.852   5.395  0.00  0.00    +0.000 C 
BRANCH  17  20
ATOM     18  O   UNL     1     -17.238  43.126   7.555  0.00  0.00    +0.000 OA
ATOM     19  O   UNL     1     -17.999  45.305   7.889  0.00  0.00    +0.000 OA
ATOM     20  C   UNL     1     -16.516  44.719   6.022  0.00  0.00    +0.000 C 
ATOM     21  C   UNL     1     -15.900  43.474   5.636  0.00  0.00    +0.000 C 
ATOM     22  C   UNL     1     -17.352  44.483   7.264  0.00  0.00    +0.000 C 
ATOM     23  C   UNL     1     -16.437  42.640   6.619  0.00  0.00    +0.000 C 
BRANCH  21  24
ATOM     24  O   UNL     1     -15.786  43.142   4.316  0.00  0.00    +0.000 OA
ATOM     25  H   UNL     1     -15.139  43.705   3.856  0.00  0.00    +0.000 HD
ENDBRANCH  21  24
ENDBRANCH  17  20
ENDBRANCH   4  16
BRANCH   3  26
ATOM     26  C   UNL     1     -15.758  53.241   4.860  0.00  0.00    +0.000 C 
BRANCH  26  27
ATOM     27  O   UNL     1     -14.710  54.070   4.848  0.00  0.00    +0.000 OA
ATOM     28  H   UNL     1     -13.920  53.620   4.498  0.00  0.00    +0.000 HD
ENDBRANCH  26  27
ENDBRANCH   3  26
TORSDOF 6
ENDMDL
MODEL 7
REMARK VINA RESULT:      -5.6     21.222     24.448
REMARK  Name = 5318517_Andrographolide.pdbqt.pdb
REMARK  6 active torsions:
REMARK  status: ('A' for Active; 'I' for Inactive)
REMARK    1  A    between atoms: C_3  and  C_16
REMARK    2  A    between atoms: C_4  and  C_19
REMARK    3  A    between atoms: C_6  and  O_14
REMARK    4  A    between atoms: C_16  and  O_17
REMARK    5  A    between atoms: C_22  and  C_23
REMARK    6  A    between atoms: C_24  and  O_27
REMARK                            x       y       z     vdW  Elec       q    Type
REMARK                         _______ _______ _______ _____ _____    ______ ____
ROOT
ATOM      1  C   UNL     1     -30.660  61.127 -26.469  0.00  0.00    +0.000 C 
ATOM      2  C   UNL     1     -30.762  62.219 -25.361  0.00  0.00    +0.000 C 
ATOM      3  C   UNL     1     -32.069  62.976 -25.063  0.00  0.00    +0.000 C 
ATOM      4  C   UNL     1     -29.274  60.940 -27.148  0.00  0.00    +0.000 C 
ATOM      5  C   UNL     1     -31.654  61.518 -27.465  0.00  0.00    +0.000 C 
ATOM      6  C   UNL     1     -33.112  63.077 -26.217  0.00  0.00    +0.000 C 
ATOM      7  C   UNL     1     -29.529  62.475 -24.697  0.00  0.00    +0.000 C 
ATOM      8  C   UNL     1     -32.840  62.420 -27.431  0.00  0.00    +0.000 C 
ATOM      9  C   UNL     1     -31.050  59.768 -25.812  0.00  0.00    +0.000 C 
ATOM     10  C   UNL     1     -28.216  61.981 -25.214  0.00  0.00    +0.000 C 
ATOM     11  C   UNL     1     -28.043  61.237 -26.400  0.00  0.00    +0.000 C 
ATOM     12  C   UNL     1     -31.693  64.459 -24.704  0.00  0.00    +0.000 C 
ATOM     13  C   UNL     1     -26.802  61.072 -26.859  0.00  0.00    +0.000 C 
ENDROOT
BRANCH   6  14
ATOM     14  O   UNL     1     -34.364  63.622 -25.994  0.00  0.00    +0.000 OA
ATOM     15  H   UNL     1     -34.537  64.393 -26.563  0.00  0.00    +0.000 HD
ENDBRANCH   6  14
BRANCH   4  16
ATOM     16  C   UNL     1     -29.182  60.358 -28.457  0.00  0.00    +0.000 C 
ATOM     17  C   UNL     1     -29.080  59.747 -29.857  0.00  0.00    +0.000 C 
BRANCH  17  20
ATOM     18  O   UNL     1     -28.061  58.756 -33.123  0.00  0.00    +0.000 OA
ATOM     19  O   UNL     1     -27.072  60.493 -31.922  0.00  0.00    +0.000 OA
ATOM     20  C   UNL     1     -28.984  59.229 -31.042  0.00  0.00    +0.000 C 
ATOM     21  C   UNL     1     -29.769  58.158 -31.601  0.00  0.00    +0.000 C 
ATOM     22  C   UNL     1     -27.907  59.614 -32.037  0.00  0.00    +0.000 C 
ATOM     23  C   UNL     1     -29.091  57.984 -32.809  0.00  0.00    +0.000 C 
BRANCH  21  24
ATOM     24  O   UNL     1     -30.207  57.137 -30.806  0.00  0.00    +0.000 OA
ATOM     25  H   UNL     1     -31.131  57.268 -30.526  0.00  0.00    +0.000 HD
ENDBRANCH  21  24
ENDBRANCH  17  20
ENDBRANCH   4  16
BRANCH   3  26
ATOM     26  C   UNL     1     -32.718  62.313 -23.896  0.00  0.00    +0.000 C 
BRANCH  26  27
ATOM     27  O   UNL     1     -33.307  61.728 -22.848  0.00  0.00    +0.000 OA
ATOM     28  H   UNL     1     -33.244  62.296 -22.059  0.00  0.00    +0.000 HD
ENDBRANCH  26  27
ENDBRANCH   3  26
TORSDOF 6
ENDMDL
MODEL 8
REMARK VINA RESULT:      -5.6     22.866     25.180
REMARK  Name = 5318517_Andrographolide.pdbqt.pdb
REMARK  6 active torsions:
REMARK  status: ('A' for Active; 'I' for Inactive)
REMARK    1  A    between atoms: C_3  and  C_16
REMARK    2  A    between atoms: C_4  and  C_19
REMARK    3  A    between atoms: C_6  and  O_14
REMARK    4  A    between atoms: C_16  and  O_17
REMARK    5  A    between atoms: C_22  and  C_23
REMARK    6  A    between atoms: C_24  and  O_27
REMARK                            x       y       z     vdW  Elec       q    Type
REMARK                         _______ _______ _______ _____ _____    ______ ____
ROOT
ATOM      1  C   UNL     1     -15.745  48.629   4.425  0.00  0.00    +0.000 C 
ATOM      2  C   UNL     1     -16.225  47.164   4.658  0.00  0.00    +0.000 C 
ATOM      3  C   UNL     1     -16.363  46.146   3.512  0.00  0.00    +0.000 C 
ATOM      4  C   UNL     1     -16.275  49.708   5.412  0.00  0.00    +0.000 C 
ATOM      5  C   UNL     1     -16.173  48.945   3.065  0.00  0.00    +0.000 C 
ATOM      6  C   UNL     1     -16.587  46.716   2.079  0.00  0.00    +0.000 C 
ATOM      7  C   UNL     1     -16.561  46.883   6.013  0.00  0.00    +0.000 C 
ATOM      8  C   UNL     1     -16.579  48.111   1.898  0.00  0.00    +0.000 C 
ATOM      9  C   UNL     1     -14.189  48.625   4.523  0.00  0.00    +0.000 C 
ATOM     10  C   UNL     1     -16.738  47.954   7.040  0.00  0.00    +0.000 C 
ATOM     11  C   UNL     1     -16.614  49.337   6.794  0.00  0.00    +0.000 C 
ATOM     12  C   UNL     1     -17.622  45.255   3.811  0.00  0.00    +0.000 C 
ATOM     13  C   UNL     1     -17.031  50.180   7.739  0.00  0.00    +0.000 C 
ENDROOT
BRANCH   6  14
ATOM     14  O   UNL     1     -16.589  45.879   0.976  0.00  0.00    +0.000 OA
ATOM     15  H   UNL     1     -15.768  45.361   0.905  0.00  0.00    +0.000 HD
ENDBRANCH   6  14
BRANCH   4  16
ATOM     16  C   UNL     1     -16.314  51.089   5.021  0.00  0.00    +0.000 C 
ATOM     17  C   UNL     1     -16.364  52.564   4.611  0.00  0.00    +0.000 C 
BRANCH  17  20
ATOM     18  O   UNL     1     -16.148  55.697   2.932  0.00  0.00    +0.000 OA
ATOM     19  O   UNL     1     -15.109  53.746   2.187  0.00  0.00    +0.000 OA
ATOM     20  C   UNL     1     -16.403  53.814   4.273  0.00  0.00    +0.000 C 
ATOM     21  C   UNL     1     -17.093  54.887   4.943  0.00  0.00    +0.000 C 
ATOM     22  C   UNL     1     -15.786  54.354   2.997  0.00  0.00    +0.000 C 
ATOM     23  C   UNL     1     -16.868  55.913   4.022  0.00  0.00    +0.000 C 
BRANCH  21  24
ATOM     24  O   UNL     1     -18.287  54.655   5.566  0.00  0.00    +0.000 OA
ATOM     25  H   UNL     1     -19.042  54.842   4.981  0.00  0.00    +0.000 HD
ENDBRANCH  21  24
ENDBRANCH  17  20
ENDBRANCH   4  16
BRANCH   3  26
ATOM     26  C   UNL     1     -15.130  45.309   3.501  0.00  0.00    +0.000 C 
BRANCH  26  27
ATOM     27  O   UNL     1     -14.032  44.547   3.489  0.00  0.00    +0.000 OA
ATOM     28  H   UNL     1     -14.270  43.602   3.504  0.00  0.00    +0.000 HD
ENDBRANCH  26  27
ENDBRANCH   3  26
TORSDOF 6
ENDMDL
MODEL 9
REMARK VINA RESULT:      -5.5      3.209      7.304
REMARK  Name = 5318517_Andrographolide.pdbqt.pdb
REMARK  6 active torsions:
REMARK  status: ('A' for Active; 'I' for Inactive)
REMARK    1  A    between atoms: C_3  and  C_16
REMARK    2  A    between atoms: C_4  and  C_19
REMARK    3  A    between atoms: C_6  and  O_14
REMARK    4  A    between atoms: C_16  and  O_17
REMARK    5  A    between atoms: C_22  and  C_23
REMARK    6  A    between atoms: C_24  and  O_27
REMARK                            x       y       z     vdW  Elec       q    Type
REMARK                         _______ _______ _______ _____ _____    ______ ____
ROOT
ATOM      1  C   UNL     1     -35.822  45.227  -8.062  0.00  0.00    +0.000 C 
ATOM      2  C   UNL     1     -34.399  44.592  -8.094  0.00  0.00    +0.000 C 
ATOM      3  C   UNL     1     -33.597  44.294  -6.814  0.00  0.00    +0.000 C 
ATOM      4  C   UNL     1     -36.235  46.090  -9.288  0.00  0.00    +0.000 C 
ATOM      5  C   UNL     1     -35.836  46.043  -6.852  0.00  0.00    +0.000 C 
ATOM      6  C   UNL     1     -33.939  45.138  -5.549  0.00  0.00    +0.000 C 
ATOM      7  C   UNL     1     -33.906  44.362  -9.409  0.00  0.00    +0.000 C 
ATOM      8  C   UNL     1     -34.995  46.064  -5.620  0.00  0.00    +0.000 C 
ATOM      9  C   UNL     1     -36.846  44.057  -7.945  0.00  0.00    +0.000 C 
ATOM     10  C   UNL     1     -34.544  44.953 -10.625  0.00  0.00    +0.000 C 
ATOM     11  C   UNL     1     -35.672  45.800 -10.615  0.00  0.00    +0.000 C 
ATOM     12  C   UNL     1     -32.083  44.586  -7.118  0.00  0.00    +0.000 C 
ATOM     13  C   UNL     1     -35.984  46.438 -11.743  0.00  0.00    +0.000 C 
ENDROOT
BRANCH   6  14
ATOM     14  O   UNL     1     -33.361  44.846  -4.326  0.00  0.00    +0.000 OA
ATOM     15  H   UNL     1     -32.431  45.132  -4.279  0.00  0.00    +0.000 HD
ENDBRANCH   6  14
BRANCH   4  16
ATOM     16  C   UNL     1     -37.259  47.089  -9.158  0.00  0.00    +0.000 C 
ATOM     17  C   UNL     1     -38.357  48.146  -9.014  0.00  0.00    +0.000 C 
BRANCH  17  20
ATOM     18  O   UNL     1     -41.419  49.963  -8.946  0.00  0.00    +0.000 OA
ATOM     19  O   UNL     1     -41.139  47.927 -10.047  0.00  0.00    +0.000 OA
ATOM     20  C   UNL     1     -39.286  49.040  -8.883  0.00  0.00    +0.000 C 
ATOM     21  C   UNL     1     -39.208  50.293  -8.175  0.00  0.00    +0.000 C 
ATOM     22  C   UNL     1     -40.703  48.854  -9.388  0.00  0.00    +0.000 C 
ATOM     23  C   UNL     1     -40.540  50.700  -8.284  0.00  0.00    +0.000 C 
BRANCH  21  24
ATOM     24  O   UNL     1     -38.458  50.396  -7.038  0.00  0.00    +0.000 OA
ATOM     25  H   UNL     1     -38.145  49.526  -6.731  0.00  0.00    +0.000 HD
ENDBRANCH  21  24
ENDBRANCH  17  20
ENDBRANCH   4  16
BRANCH   3  26
ATOM     26  C   UNL     1     -33.788  42.853  -6.487  0.00  0.00    +0.000 C 
BRANCH  26  27
ATOM     27  O   UNL     1     -33.950  41.558  -6.200  0.00  0.00    +0.000 OA
ATOM     28  H   UNL     1     -33.635  41.002  -6.936  0.00  0.00    +0.000 HD
ENDBRANCH  26  27
ENDBRANCH   3  26
TORSDOF 6
ENDMDL
