MODEL 1
REMARK VINA RESULT:      -7.1      0.000      0.000
REMARK  Name = 5326018_Caulerpin.pdbqt.pdb
REMARK  4 active torsions:
REMARK  status: ('A' for Active; 'I' for Inactive)
REMARK    1  A    between atoms: C_11  and  C_26
REMARK    2  A    between atoms: C_12  and  C_30
REMARK    3  A    between atoms: C_26  and  O_27
REMARK    4  A    between atoms: C_30  and  O_31
REMARK                            x       y       z     vdW  Elec       q    Type
REMARK                         _______ _______ _______ _____ _____    ______ ____
ROOT
ATOM      1  N   UNL     1     -16.415  54.741 -24.011  0.00  0.00    +0.000 N 
ATOM      2  N   UNL     1     -18.986  56.713 -29.684  0.00  0.00    +0.000 N 
ATOM      3  C   UNL     1     -16.928  56.438 -25.341  0.00  0.00    +0.000 C 
ATOM      4  C   UNL     1     -18.105  55.054 -28.507  0.00  0.00    +0.000 C 
ATOM      5  C   UNL     1     -16.701  55.064 -25.321  0.00  0.00    +0.000 C 
ATOM      6  C   UNL     1     -18.204  56.441 -28.581  0.00  0.00    +0.000 C 
ATOM      7  C   UNL     1     -16.713  56.960 -24.043  0.00  0.00    +0.000 A 
ATOM      8  C   UNL     1     -18.780  54.484 -29.614  0.00  0.00    +0.000 A 
ATOM      9  C   UNL     1     -16.387  55.876 -23.229  0.00  0.00    +0.000 A 
ATOM     10  C   UNL     1     -19.319  55.546 -30.339  0.00  0.00    +0.000 A 
ATOM     11  C   UNL     1     -16.794  54.057 -26.345  0.00  0.00    +0.000 C 
ATOM     12  C   UNL     1     -17.724  57.489 -27.719  0.00  0.00    +0.000 C 
ATOM     13  C   UNL     1     -17.432  54.382 -27.440  0.00  0.00    +0.000 C 
ATOM     14  C   UNL     1     -17.335  57.138 -26.520  0.00  0.00    +0.000 C 
ATOM     15  C   UNL     1     -16.779  58.245 -23.471  0.00  0.00    +0.000 A 
ATOM     16  C   UNL     1     -19.002  53.170 -30.066  0.00  0.00    +0.000 A 
ATOM     17  C   UNL     1     -16.117  56.010 -21.862  0.00  0.00    +0.000 A 
ATOM     18  C   UNL     1     -20.072  55.362 -31.504  0.00  0.00    +0.000 A 
ATOM     19  C   UNL     1     -16.507  58.397 -22.110  0.00  0.00    +0.000 A 
ATOM     20  C   UNL     1     -19.747  52.969 -31.229  0.00  0.00    +0.000 A 
ATOM     21  C   UNL     1     -16.181  57.297 -21.323  0.00  0.00    +0.000 A 
ATOM     22  C   UNL     1     -20.270  54.048 -31.934  0.00  0.00    +0.000 A 
ATOM     23  H   UNL     1     -16.254  53.815 -23.638  0.00  0.00    +0.000 HD
ATOM     24  H   UNL     1     -19.301  57.624 -29.995  0.00  0.00    +0.000 HD
ENDROOT
BRANCH  11  26
ATOM     25  O   UNL     1     -15.426  52.349 -25.376  0.00  0.00    +0.000 OA
ATOM     26  C   UNL     1     -16.116  52.728 -26.315  0.00  0.00    +0.000 C 
BRANCH  26  27
ATOM     27  O   UNL     1     -16.422  52.052 -27.460  0.00  0.00    +0.000 OA
ATOM     28  C   UNL     1     -15.395  51.354 -28.113  0.00  0.00    +0.000 C 
ENDBRANCH  26  27
ENDBRANCH  11  26
BRANCH  12  30
ATOM     29  O   UNL     1     -17.969  59.392 -29.150  0.00  0.00    +0.000 OA
ATOM     30  C   UNL     1     -17.511  58.911 -28.120  0.00  0.00    +0.000 C 
BRANCH  30  31
ATOM     31  O   UNL     1     -16.772  59.533 -27.157  0.00  0.00    +0.000 OA
ATOM     32  C   UNL     1     -17.119  60.845 -26.799  0.00  0.00    +0.000 C 
ENDBRANCH  30  31
ENDBRANCH  12  30
TORSDOF 4
ENDMDL
MODEL 2
REMARK VINA RESULT:      -7.0      1.844      2.995
REMARK  Name = 5326018_Caulerpin.pdbqt.pdb
REMARK  4 active torsions:
REMARK  status: ('A' for Active; 'I' for Inactive)
REMARK    1  A    between atoms: C_11  and  C_26
REMARK    2  A    between atoms: C_12  and  C_30
REMARK    3  A    between atoms: C_26  and  O_27
REMARK    4  A    between atoms: C_30  and  O_31
REMARK                            x       y       z     vdW  Elec       q    Type
REMARK                         _______ _______ _______ _____ _____    ______ ____
ROOT
ATOM      1  N   UNL     1     -16.151  56.050 -21.184  0.00  0.00    +0.000 N 
ATOM      2  N   UNL     1     -17.472  56.430 -27.572  0.00  0.00    +0.000 N 
ATOM      3  C   UNL     1     -16.428  57.344 -22.962  0.00  0.00    +0.000 C 
ATOM      4  C   UNL     1     -16.805  55.173 -25.872  0.00  0.00    +0.000 C 
ATOM      5  C   UNL     1     -16.151  56.038 -22.564  0.00  0.00    +0.000 C 
ATOM      6  C   UNL     1     -16.945  56.491 -26.298  0.00  0.00    +0.000 C 
ATOM      7  C   UNL     1     -16.531  58.165 -21.814  0.00  0.00    +0.000 A 
ATOM      8  C   UNL     1     -17.190  54.304 -26.923  0.00  0.00    +0.000 A 
ATOM      9  C   UNL     1     -16.349  57.330 -20.712  0.00  0.00    +0.000 A 
ATOM     10  C   UNL     1     -17.600  55.118 -27.978  0.00  0.00    +0.000 A 
ATOM     11  C   UNL     1     -15.969  54.821 -23.310  0.00  0.00    +0.000 C 
ATOM     12  C   UNL     1     -16.716  57.748 -25.635  0.00  0.00    +0.000 C 
ATOM     13  C   UNL     1     -16.360  54.827 -24.558  0.00  0.00    +0.000 C 
ATOM     14  C   UNL     1     -16.591  57.717 -24.333  0.00  0.00    +0.000 C 
ATOM     15  C   UNL     1     -16.779  59.533 -21.597  0.00  0.00    +0.000 A 
ATOM     16  C   UNL     1     -17.249  52.907 -27.079  0.00  0.00    +0.000 A 
ATOM     17  C   UNL     1     -16.397  57.795 -19.393  0.00  0.00    +0.000 A 
ATOM     18  C   UNL     1     -18.065  54.604 -29.194  0.00  0.00    +0.000 A 
ATOM     19  C   UNL     1     -16.824  60.015 -20.287  0.00  0.00    +0.000 A 
ATOM     20  C   UNL     1     -17.705  52.378 -28.287  0.00  0.00    +0.000 A 
ATOM     21  C   UNL     1     -16.636  59.159 -19.207  0.00  0.00    +0.000 A 
ATOM     22  C   UNL     1     -18.103  53.214 -29.325  0.00  0.00    +0.000 A 
ATOM     23  H   UNL     1     -16.037  55.252 -20.573  0.00  0.00    +0.000 HD
ATOM     24  H   UNL     1     -17.749  57.212 -28.152  0.00  0.00    +0.000 HD
ENDROOT
BRANCH  11  26
ATOM     25  O   UNL     1     -14.593  53.587 -21.790  0.00  0.00    +0.000 OA
ATOM     26  C   UNL     1     -15.258  53.605 -22.819  0.00  0.00    +0.000 C 
BRANCH  26  27
ATOM     27  O   UNL     1     -15.503  52.575 -23.680  0.00  0.00    +0.000 OA
ATOM     28  C   UNL     1     -14.845  51.355 -23.460  0.00  0.00    +0.000 C 
ENDBRANCH  26  27
ENDBRANCH  11  26
BRANCH  12  30
ATOM     29  O   UNL     1     -16.249  59.154 -27.515  0.00  0.00    +0.000 OA
ATOM     30  C   UNL     1     -16.482  59.055 -26.316  0.00  0.00    +0.000 C 
BRANCH  30  31
ATOM     31  O   UNL     1     -16.596  60.056 -25.396  0.00  0.00    +0.000 OA
ATOM     32  C   UNL     1     -17.105  61.293 -25.822  0.00  0.00    +0.000 C 
ENDBRANCH  30  31
ENDBRANCH  12  30
TORSDOF 4
ENDMDL
MODEL 3
REMARK VINA RESULT:      -7.0      0.682      7.794
REMARK  Name = 5326018_Caulerpin.pdbqt.pdb
REMARK  4 active torsions:
REMARK  status: ('A' for Active; 'I' for Inactive)
REMARK    1  A    between atoms: C_11  and  C_26
REMARK    2  A    between atoms: C_12  and  C_30
REMARK    3  A    between atoms: C_26  and  O_27
REMARK    4  A    between atoms: C_30  and  O_31
REMARK                            x       y       z     vdW  Elec       q    Type
REMARK                         _______ _______ _______ _____ _____    ______ ____
ROOT
ATOM      1  N   UNL     1     -18.659  56.815 -29.319  0.00  0.00    +0.000 N 
ATOM      2  N   UNL     1     -16.327  54.993 -23.494  0.00  0.00    +0.000 N 
ATOM      3  C   UNL     1     -17.842  55.185 -28.060  0.00  0.00    +0.000 C 
ATOM      4  C   UNL     1     -16.771  56.654 -24.894  0.00  0.00    +0.000 C 
ATOM      5  C   UNL     1     -17.922  56.571 -28.179  0.00  0.00    +0.000 C 
ATOM      6  C   UNL     1     -16.560  55.280 -24.823  0.00  0.00    +0.000 C 
ATOM      7  C   UNL     1     -18.479  54.588 -29.174  0.00  0.00    +0.000 A 
ATOM      8  C   UNL     1     -16.601  57.214 -23.604  0.00  0.00    +0.000 A 
ATOM      9  C   UNL     1     -18.979  55.632 -29.950  0.00  0.00    +0.000 A 
ATOM     10  C   UNL     1     -16.318  56.152 -22.746  0.00  0.00    +0.000 A 
ATOM     11  C   UNL     1     -17.465  57.639 -27.331  0.00  0.00    +0.000 C 
ATOM     12  C   UNL     1     -16.625  54.242 -25.819  0.00  0.00    +0.000 C 
ATOM     13  C   UNL     1     -17.126  57.322 -26.108  0.00  0.00    +0.000 C 
ATOM     14  C   UNL     1     -17.218  54.539 -26.947  0.00  0.00    +0.000 C 
ATOM     15  C   UNL     1     -18.699  53.263 -29.593  0.00  0.00    +0.000 A 
ATOM     16  C   UNL     1     -16.674  58.515 -23.074  0.00  0.00    +0.000 A 
ATOM     17  C   UNL     1     -19.689  55.420 -31.137  0.00  0.00    +0.000 A 
ATOM     18  C   UNL     1     -16.099  56.325 -21.375  0.00  0.00    +0.000 A 
ATOM     19  C   UNL     1     -19.400  53.033 -30.779  0.00  0.00    +0.000 A 
ATOM     20  C   UNL     1     -16.453  58.706 -21.709  0.00  0.00    +0.000 A 
ATOM     21  C   UNL     1     -19.885  54.096 -31.535  0.00  0.00    +0.000 A 
ATOM     22  C   UNL     1     -16.169  57.628 -20.878  0.00  0.00    +0.000 A 
ATOM     23  H   UNL     1     -18.952  57.719 -29.668  0.00  0.00    +0.000 HD
ATOM     24  H   UNL     1     -16.190  54.077 -23.086  0.00  0.00    +0.000 HD
ENDROOT
BRANCH  11  26
ATOM     25  O   UNL     1     -17.323  59.413 -28.931  0.00  0.00    +0.000 OA
ATOM     26  C   UNL     1     -17.222  59.045 -27.766  0.00  0.00    +0.000 C 
BRANCH  26  27
ATOM     27  O   UNL     1     -16.910  59.798 -26.672  0.00  0.00    +0.000 OA
ATOM     28  C   UNL     1     -16.079  60.914 -26.848  0.00  0.00    +0.000 C 
ENDBRANCH  26  27
ENDBRANCH  11  26
BRANCH  12  30
ATOM     29  O   UNL     1     -15.263  52.574 -24.774  0.00  0.00    +0.000 OA
ATOM     30  C   UNL     1     -15.962  52.908 -25.723  0.00  0.00    +0.000 C 
BRANCH  30  31
ATOM     31  O   UNL     1     -16.293  52.173 -26.824  0.00  0.00    +0.000 OA
ATOM     32  C   UNL     1     -16.705  50.844 -26.635  0.00  0.00    +0.000 C 
ENDBRANCH  30  31
ENDBRANCH  12  30
TORSDOF 4
ENDMDL
MODEL 4
REMARK VINA RESULT:      -6.5      4.238      6.946
REMARK  Name = 5326018_Caulerpin.pdbqt.pdb
REMARK  4 active torsions:
REMARK  status: ('A' for Active; 'I' for Inactive)
REMARK    1  A    between atoms: C_11  and  C_26
REMARK    2  A    between atoms: C_12  and  C_30
REMARK    3  A    between atoms: C_26  and  O_27
REMARK    4  A    between atoms: C_30  and  O_31
REMARK                            x       y       z     vdW  Elec       q    Type
REMARK                         _______ _______ _______ _____ _____    ______ ____
ROOT
ATOM      1  N   UNL     1     -16.098  57.676 -17.665  0.00  0.00    +0.000 N 
ATOM      2  N   UNL     1     -16.725  56.911 -24.123  0.00  0.00    +0.000 N 
ATOM      3  C   UNL     1     -16.559  58.610 -19.622  0.00  0.00    +0.000 C 
ATOM      4  C   UNL     1     -15.898  56.132 -22.220  0.00  0.00    +0.000 C 
ATOM      5  C   UNL     1     -15.935  57.516 -19.025  0.00  0.00    +0.000 C 
ATOM      6  C   UNL     1     -16.394  57.278 -22.835  0.00  0.00    +0.000 C 
ATOM      7  C   UNL     1     -17.046  59.471 -18.610  0.00  0.00    +0.000 A 
ATOM      8  C   UNL     1     -15.868  55.077 -23.164  0.00  0.00    +0.000 A 
ATOM      9  C   UNL     1     -16.740  58.865 -17.392  0.00  0.00    +0.000 A 
ATOM     10  C   UNL     1     -16.387  55.594 -24.351  0.00  0.00    +0.000 A 
ATOM     11  C   UNL     1     -15.296  56.351 -19.578  0.00  0.00    +0.000 C 
ATOM     12  C   UNL     1     -16.649  58.605 -22.339  0.00  0.00    +0.000 C 
ATOM     13  C   UNL     1     -15.522  56.094 -20.841  0.00  0.00    +0.000 C 
ATOM     14  C   UNL     1     -16.671  58.758 -21.040  0.00  0.00    +0.000 C 
ATOM     15  C   UNL     1     -17.733  60.699 -18.605  0.00  0.00    +0.000 A 
ATOM     16  C   UNL     1     -15.467  53.729 -23.128  0.00  0.00    +0.000 A 
ATOM     17  C   UNL     1     -17.083  59.429 -16.158  0.00  0.00    +0.000 A 
ATOM     18  C   UNL     1     -16.524  54.828 -25.514  0.00  0.00    +0.000 A 
ATOM     19  C   UNL     1     -18.079  61.279 -17.382  0.00  0.00    +0.000 A 
ATOM     20  C   UNL     1     -15.592  52.952 -24.281  0.00  0.00    +0.000 A 
ATOM     21  C   UNL     1     -17.757  60.653 -16.183  0.00  0.00    +0.000 A 
ATOM     22  C   UNL     1     -16.110  53.496 -25.452  0.00  0.00    +0.000 A 
ATOM     23  H   UNL     1     -15.811  57.030 -16.941  0.00  0.00    +0.000 HD
ATOM     24  H   UNL     1     -17.164  57.493 -24.826  0.00  0.00    +0.000 HD
ENDROOT
BRANCH  11  26
ATOM     25  O   UNL     1     -14.238  54.279 -19.019  0.00  0.00    +0.000 OA
ATOM     26  C   UNL     1     -14.301  55.493 -18.871  0.00  0.00    +0.000 C 
BRANCH  26  27
ATOM     27  O   UNL     1     -13.509  56.288 -18.094  0.00  0.00    +0.000 OA
ATOM     28  C   UNL     1     -12.963  55.739 -16.924  0.00  0.00    +0.000 C 
ENDBRANCH  26  27
ENDBRANCH  11  26
BRANCH  12  30
ATOM     29  O   UNL     1     -16.426  59.876 -24.355  0.00  0.00    +0.000 OA
ATOM     30  C   UNL     1     -16.759  59.836 -23.176  0.00  0.00    +0.000 C 
BRANCH  30  31
ATOM     31  O   UNL     1     -17.295  60.836 -22.419  0.00  0.00    +0.000 OA
ATOM     32  C   UNL     1     -18.498  61.419 -22.845  0.00  0.00    +0.000 C 
ENDBRANCH  30  31
ENDBRANCH  12  30
TORSDOF 4
ENDMDL
MODEL 5
REMARK VINA RESULT:      -6.5      5.524      8.652
REMARK  Name = 5326018_Caulerpin.pdbqt.pdb
REMARK  4 active torsions:
REMARK  status: ('A' for Active; 'I' for Inactive)
REMARK    1  A    between atoms: C_11  and  C_26
REMARK    2  A    between atoms: C_12  and  C_30
REMARK    3  A    between atoms: C_26  and  O_27
REMARK    4  A    between atoms: C_30  and  O_31
REMARK                            x       y       z     vdW  Elec       q    Type
REMARK                         _______ _______ _______ _____ _____    ______ ____
ROOT
ATOM      1  N   UNL     1     -16.901  58.832 -16.037  0.00  0.00    +0.000 N 
ATOM      2  N   UNL     1     -16.735  57.857 -22.496  0.00  0.00    +0.000 N 
ATOM      3  C   UNL     1     -17.176  59.685 -18.064  0.00  0.00    +0.000 C 
ATOM      4  C   UNL     1     -16.099  57.174 -20.485  0.00  0.00    +0.000 C 
ATOM      5  C   UNL     1     -16.573  58.643 -17.364  0.00  0.00    +0.000 C 
ATOM      6  C   UNL     1     -16.574  58.276 -21.191  0.00  0.00    +0.000 C 
ATOM      7  C   UNL     1     -17.818  60.548 -17.144  0.00  0.00    +0.000 A 
ATOM      8  C   UNL     1     -15.908  56.097 -21.384  0.00  0.00    +0.000 A 
ATOM      9  C   UNL     1     -17.627  59.993 -15.880  0.00  0.00    +0.000 A 
ATOM     10  C   UNL     1     -16.309  56.553 -22.639  0.00  0.00    +0.000 A 
ATOM     11  C   UNL     1     -15.819  57.497 -17.800  0.00  0.00    +0.000 C 
ATOM     12  C   UNL     1     -16.949  59.602 -20.772  0.00  0.00    +0.000 C 
ATOM     13  C   UNL     1     -15.884  57.194 -19.071  0.00  0.00    +0.000 C 
ATOM     14  C   UNL     1     -17.129  59.788 -19.490  0.00  0.00    +0.000 C 
ATOM     15  C   UNL     1     -18.560  61.739 -17.259  0.00  0.00    +0.000 A 
ATOM     16  C   UNL     1     -15.449  54.773 -21.257  0.00  0.00    +0.000 A 
ATOM     17  C   UNL     1     -18.139  60.572 -14.713  0.00  0.00    +0.000 A 
ATOM     18  C   UNL     1     -16.273  55.750 -23.784  0.00  0.00    +0.000 A 
ATOM     19  C   UNL     1     -19.073  62.333 -16.104  0.00  0.00    +0.000 A 
ATOM     20  C   UNL     1     -15.401  53.959 -22.390  0.00  0.00    +0.000 A 
ATOM     21  C   UNL     1     -18.863  61.758 -14.856  0.00  0.00    +0.000 A 
ATOM     22  C   UNL     1     -15.805  54.443 -23.630  0.00  0.00    +0.000 A 
ATOM     23  H   UNL     1     -16.670  58.221 -15.264  0.00  0.00    +0.000 HD
ATOM     24  H   UNL     1     -17.117  58.396 -23.263  0.00  0.00    +0.000 HD
ENDROOT
BRANCH  11  26
ATOM     25  O   UNL     1     -13.660  56.719 -17.124  0.00  0.00    +0.000 OA
ATOM     26  C   UNL     1     -14.873  56.712 -16.955  0.00  0.00    +0.000 C 
BRANCH  26  27
ATOM     27  O   UNL     1     -15.586  56.046 -16.001  0.00  0.00    +0.000 OA
ATOM     28  C   UNL     1     -15.154  54.765 -15.623  0.00  0.00    +0.000 C 
ENDBRANCH  26  27
ENDBRANCH  11  26
BRANCH  12  30
ATOM     29  O   UNL     1     -16.271  61.764 -21.541  0.00  0.00    +0.000 OA
ATOM     30  C   UNL     1     -17.019  60.801 -21.657  0.00  0.00    +0.000 C 
BRANCH  30  31
ATOM     31  O   UNL     1     -18.006  60.609 -22.579  0.00  0.00    +0.000 OA
ATOM     32  C   UNL     1     -18.797  61.709 -22.944  0.00  0.00    +0.000 C 
ENDBRANCH  30  31
ENDBRANCH  12  30
TORSDOF 4
ENDMDL
MODEL 6
REMARK VINA RESULT:      -6.3     20.005     21.137
REMARK  Name = 5326018_Caulerpin.pdbqt.pdb
REMARK  4 active torsions:
REMARK  status: ('A' for Active; 'I' for Inactive)
REMARK    1  A    between atoms: C_11  and  C_26
REMARK    2  A    between atoms: C_12  and  C_30
REMARK    3  A    between atoms: C_26  and  O_27
REMARK    4  A    between atoms: C_30  and  O_31
REMARK                            x       y       z     vdW  Elec       q    Type
REMARK                         _______ _______ _______ _____ _____    ______ ____
ROOT
ATOM      1  N   UNL     1     -34.685  47.071 -22.193  0.00  0.00    +0.000 N 
ATOM      2  N   UNL     1     -31.956  45.751 -16.405  0.00  0.00    +0.000 N 
ATOM      3  C   UNL     1     -34.435  47.651 -20.068  0.00  0.00    +0.000 C 
ATOM      4  C   UNL     1     -32.547  45.005 -18.407  0.00  0.00    +0.000 C 
ATOM      5  C   UNL     1     -34.317  46.583 -20.956  0.00  0.00    +0.000 C 
ATOM      6  C   UNL     1     -32.785  46.013 -17.476  0.00  0.00    +0.000 C 
ATOM      7  C   UNL     1     -34.942  48.775 -20.763  0.00  0.00    +0.000 A 
ATOM      8  C   UNL     1     -31.613  44.088 -17.866  0.00  0.00    +0.000 A 
ATOM      9  C   UNL     1     -35.094  48.384 -22.092  0.00  0.00    +0.000 A 
ATOM     10  C   UNL     1     -31.262  44.577 -16.608  0.00  0.00    +0.000 A 
ATOM     11  C   UNL     1     -33.844  45.235 -20.785  0.00  0.00    +0.000 C 
ATOM     12  C   UNL     1     -33.618  47.186 -17.517  0.00  0.00    +0.000 C 
ATOM     13  C   UNL     1     -33.168  44.978 -19.695  0.00  0.00    +0.000 C 
ATOM     14  C   UNL     1     -34.062  47.556 -18.691  0.00  0.00    +0.000 C 
ATOM     15  C   UNL     1     -35.270  50.094 -20.401  0.00  0.00    +0.000 A 
ATOM     16  C   UNL     1     -31.015  42.899 -18.324  0.00  0.00    +0.000 A 
ATOM     17  C   UNL     1     -35.566  49.248 -23.087  0.00  0.00    +0.000 A 
ATOM     18  C   UNL     1     -30.340  43.932 -15.776  0.00  0.00    +0.000 A 
ATOM     19  C   UNL     1     -35.749  50.968 -21.379  0.00  0.00    +0.000 A 
ATOM     20  C   UNL     1     -30.098  42.240 -17.505  0.00  0.00    +0.000 A 
ATOM     21  C   UNL     1     -35.893  50.548 -22.698  0.00  0.00    +0.000 A 
ATOM     22  C   UNL     1     -29.770  42.750 -16.253  0.00  0.00    +0.000 A 
ATOM     23  H   UNL     1     -34.660  46.570 -23.072  0.00  0.00    +0.000 HD
ATOM     24  H   UNL     1     -31.837  46.321 -15.576  0.00  0.00    +0.000 HD
ENDROOT
BRANCH  11  26
ATOM     25  O   UNL     1     -34.308  44.194 -22.889  0.00  0.00    +0.000 OA
ATOM     26  C   UNL     1     -34.171  44.085 -21.676  0.00  0.00    +0.000 C 
BRANCH  26  27
ATOM     27  O   UNL     1     -34.257  42.952 -20.920  0.00  0.00    +0.000 OA
ATOM     28  C   UNL     1     -33.632  41.789 -21.393  0.00  0.00    +0.000 C 
ENDBRANCH  26  27
ENDBRANCH  11  26
BRANCH  12  30
ATOM     29  O   UNL     1     -33.751  47.695 -15.182  0.00  0.00    +0.000 OA
ATOM     30  C   UNL     1     -34.120  47.933 -16.327  0.00  0.00    +0.000 C 
BRANCH  30  31
ATOM     31  O   UNL     1     -34.997  48.890 -16.746  0.00  0.00    +0.000 OA
ATOM     32  C   UNL     1     -36.169  49.089 -16.000  0.00  0.00    +0.000 C 
ENDBRANCH  30  31
ENDBRANCH  12  30
TORSDOF 4
ENDMDL
MODEL 7
REMARK VINA RESULT:      -6.3     23.312     24.669
REMARK  Name = 5326018_Caulerpin.pdbqt.pdb
REMARK  4 active torsions:
REMARK  status: ('A' for Active; 'I' for Inactive)
REMARK    1  A    between atoms: C_11  and  C_26
REMARK    2  A    between atoms: C_12  and  C_30
REMARK    3  A    between atoms: C_26  and  O_27
REMARK    4  A    between atoms: C_30  and  O_31
REMARK                            x       y       z     vdW  Elec       q    Type
REMARK                         _______ _______ _______ _____ _____    ______ ____
ROOT
ATOM      1  N   UNL     1     -36.165  46.079 -10.015  0.00  0.00    +0.000 N 
ATOM      2  N   UNL     1     -33.387  46.789 -15.886  0.00  0.00    +0.000 N 
ATOM      3  C   UNL     1     -34.623  45.388 -11.450  0.00  0.00    +0.000 C 
ATOM      4  C   UNL     1     -35.144  47.173 -14.591  0.00  0.00    +0.000 C 
ATOM      5  C   UNL     1     -35.821  46.091 -11.351  0.00  0.00    +0.000 C 
ATOM      6  C   UNL     1     -34.021  46.363 -14.738  0.00  0.00    +0.000 C 
ATOM      7  C   UNL     1     -34.274  44.890 -10.171  0.00  0.00    +0.000 A 
ATOM      8  C   UNL     1     -35.225  48.055 -15.695  0.00  0.00    +0.000 A 
ATOM      9  C   UNL     1     -35.259  45.334  -9.290  0.00  0.00    +0.000 A 
ATOM     10  C   UNL     1     -34.114  47.791 -16.495  0.00  0.00    +0.000 A 
ATOM     11  C   UNL     1     -36.603  46.805 -12.327  0.00  0.00    +0.000 C 
ATOM     12  C   UNL     1     -33.466  45.325 -13.909  0.00  0.00    +0.000 C 
ATOM     13  C   UNL     1     -36.019  47.087 -13.463  0.00  0.00    +0.000 C 
ATOM     14  C   UNL     1     -33.903  45.252 -12.678  0.00  0.00    +0.000 C 
ATOM     15  C   UNL     1     -33.208  44.122  -9.668  0.00  0.00    +0.000 A 
ATOM     16  C   UNL     1     -36.121  49.065 -16.091  0.00  0.00    +0.000 A 
ATOM     17  C   UNL     1     -35.239  45.043  -7.922  0.00  0.00    +0.000 A 
ATOM     18  C   UNL     1     -33.851  48.486 -17.681  0.00  0.00    +0.000 A 
ATOM     19  C   UNL     1     -33.175  43.817  -8.305  0.00  0.00    +0.000 A 
ATOM     20  C   UNL     1     -35.878  49.765 -17.274  0.00  0.00    +0.000 A 
ATOM     21  C   UNL     1     -34.175  44.270  -7.451  0.00  0.00    +0.000 A 
ATOM     22  C   UNL     1     -34.762  49.476 -18.053  0.00  0.00    +0.000 A 
ATOM     23  H   UNL     1     -36.955  46.547  -9.590  0.00  0.00    +0.000 HD
ATOM     24  H   UNL     1     -32.507  46.449 -16.255  0.00  0.00    +0.000 HD
ENDROOT
BRANCH  11  26
ATOM     25  O   UNL     1     -38.790  46.602 -11.379  0.00  0.00    +0.000 OA
ATOM     26  C   UNL     1     -38.053  47.132 -12.201  0.00  0.00    +0.000 C 
BRANCH  26  27
ATOM     27  O   UNL     1     -38.366  48.099 -13.111  0.00  0.00    +0.000 OA
ATOM     28  C   UNL     1     -39.209  49.144 -12.706  0.00  0.00    +0.000 C 
ENDBRANCH  26  27
ENDBRANCH  11  26
BRANCH  12  30
ATOM     29  O   UNL     1     -32.799  43.059 -14.294  0.00  0.00    +0.000 OA
ATOM     30  C   UNL     1     -32.536  44.253 -14.371  0.00  0.00    +0.000 C 
BRANCH  30  31
ATOM     31  O   UNL     1     -31.416  44.836 -14.889  0.00  0.00    +0.000 OA
ATOM     32  C   UNL     1     -30.784  44.211 -15.974  0.00  0.00    +0.000 C 
ENDBRANCH  30  31
ENDBRANCH  12  30
TORSDOF 4
ENDMDL
MODEL 8
REMARK VINA RESULT:      -6.2     28.267     32.168
REMARK  Name = 5326018_Caulerpin.pdbqt.pdb
REMARK  4 active torsions:
REMARK  status: ('A' for Active; 'I' for Inactive)
REMARK    1  A    between atoms: C_11  and  C_26
REMARK    2  A    between atoms: C_12  and  C_30
REMARK    3  A    between atoms: C_26  and  O_27
REMARK    4  A    between atoms: C_30  and  O_31
REMARK                            x       y       z     vdW  Elec       q    Type
REMARK                         _______ _______ _______ _____ _____    ______ ____
ROOT
ATOM      1  N   UNL     1     -17.372  51.273   7.443  0.00  0.00    +0.000 N 
ATOM      2  N   UNL     1     -14.802  52.578   1.580  0.00  0.00    +0.000 N 
ATOM      3  C   UNL     1     -16.589  50.480   5.527  0.00  0.00    +0.000 C 
ATOM      4  C   UNL     1     -15.945  53.322   3.328  0.00  0.00    +0.000 C 
ATOM      5  C   UNL     1     -17.107  51.622   6.135  0.00  0.00    +0.000 C 
ATOM      6  C   UNL     1     -15.552  52.164   2.661  0.00  0.00    +0.000 C 
ATOM      7  C   UNL     1     -16.602  49.415   6.459  0.00  0.00    +0.000 A 
ATOM      8  C   UNL     1     -15.482  54.449   2.607  0.00  0.00    +0.000 A 
ATOM      9  C   UNL     1     -17.102  49.937   7.651  0.00  0.00    +0.000 A 
ATOM     10  C   UNL     1     -14.772  53.955   1.513  0.00  0.00    +0.000 A 
ATOM     11  C   UNL     1     -17.300  52.965   5.657  0.00  0.00    +0.000 C 
ATOM     12  C   UNL     1     -15.737  50.768   2.962  0.00  0.00    +0.000 C 
ATOM     13  C   UNL     1     -16.678  53.297   4.555  0.00  0.00    +0.000 C 
ATOM     14  C   UNL     1     -16.115  50.470   4.178  0.00  0.00    +0.000 C 
ATOM     15  C   UNL     1     -16.223  48.061   6.416  0.00  0.00    +0.000 A 
ATOM     16  C   UNL     1     -15.579  55.842   2.781  0.00  0.00    +0.000 A 
ATOM     17  C   UNL     1     -17.249  49.169   8.812  0.00  0.00    +0.000 A 
ATOM     18  C   UNL     1     -14.153  54.787   0.574  0.00  0.00    +0.000 A 
ATOM     19  C   UNL     1     -16.368  47.278   7.564  0.00  0.00    +0.000 A 
ATOM     20  C   UNL     1     -14.972  56.687   1.850  0.00  0.00    +0.000 A 
ATOM     21  C   UNL     1     -16.874  47.826   8.738  0.00  0.00    +0.000 A 
ATOM     22  C   UNL     1     -14.273  56.165   0.767  0.00  0.00    +0.000 A 
ATOM     23  H   UNL     1     -17.706  51.885   8.177  0.00  0.00    +0.000 HD
ATOM     24  H   UNL     1     -14.317  51.987   0.916  0.00  0.00    +0.000 HD
ENDROOT
BRANCH  11  26
ATOM     25  O   UNL     1     -17.935  55.122   6.475  0.00  0.00    +0.000 OA
ATOM     26  C   UNL     1     -18.247  53.962   6.237  0.00  0.00    +0.000 C 
BRANCH  26  27
ATOM     27  O   UNL     1     -19.460  53.363   6.415  0.00  0.00    +0.000 OA
ATOM     28  C   UNL     1     -20.319  53.883   7.396  0.00  0.00    +0.000 C 
ENDBRANCH  26  27
ENDBRANCH  11  26
BRANCH  12  30
ATOM     29  O   UNL     1     -14.695  49.469   1.244  0.00  0.00    +0.000 OA
ATOM     30  C   UNL     1     -15.662  49.653   1.973  0.00  0.00    +0.000 C 
BRANCH  30  31
ATOM     31  O   UNL     1     -16.804  48.912   2.058  0.00  0.00    +0.000 OA
ATOM     32  C   UNL     1     -16.715  47.528   1.845  0.00  0.00    +0.000 C 
ENDBRANCH  30  31
ENDBRANCH  12  30
TORSDOF 4
ENDMDL
MODEL 9
REMARK VINA RESULT:      -6.2     25.685     27.784
REMARK  Name = 5326018_Caulerpin.pdbqt.pdb
REMARK  4 active torsions:
REMARK  status: ('A' for Active; 'I' for Inactive)
REMARK    1  A    between atoms: C_11  and  C_26
REMARK    2  A    between atoms: C_12  and  C_30
REMARK    3  A    between atoms: C_26  and  O_27
REMARK    4  A    between atoms: C_30  and  O_31
REMARK                            x       y       z     vdW  Elec       q    Type
REMARK                         _______ _______ _______ _____ _____    ______ ____
ROOT
ATOM      1  N   UNL     1     -39.343  47.055 -11.094  0.00  0.00    +0.000 N 
ATOM      2  N   UNL     1     -33.386  44.894  -9.501  0.00  0.00    +0.000 N 
ATOM      3  C   UNL     1     -37.399  46.249 -11.789  0.00  0.00    +0.000 C 
ATOM      4  C   UNL     1     -35.176  46.056  -8.900  0.00  0.00    +0.000 C 
ATOM      5  C   UNL     1     -38.026  46.886 -10.721  0.00  0.00    +0.000 C 
ATOM      6  C   UNL     1     -34.495  45.544 -10.002  0.00  0.00    +0.000 C 
ATOM      7  C   UNL     1     -38.331  46.091 -12.843  0.00  0.00    +0.000 A 
ATOM      8  C   UNL     1     -34.438  45.769  -7.727  0.00  0.00    +0.000 A 
ATOM      9  C   UNL     1     -39.541  46.609 -12.383  0.00  0.00    +0.000 A 
ATOM     10  C   UNL     1     -33.318  45.044  -8.131  0.00  0.00    +0.000 A 
ATOM     11  C   UNL     1     -37.555  47.267  -9.415  0.00  0.00    +0.000 C 
ATOM     12  C   UNL     1     -34.803  45.538 -11.408  0.00  0.00    +0.000 C 
ATOM     13  C   UNL     1     -36.430  46.734  -9.012  0.00  0.00    +0.000 C 
ATOM     14  C   UNL     1     -36.033  45.829 -11.747  0.00  0.00    +0.000 C 
ATOM     15  C   UNL     1     -38.274  45.543 -14.138  0.00  0.00    +0.000 A 
ATOM     16  C   UNL     1     -34.615  46.037  -6.357  0.00  0.00    +0.000 A 
ATOM     17  C   UNL     1     -40.706  46.612 -13.158  0.00  0.00    +0.000 A 
ATOM     18  C   UNL     1     -32.356  44.571  -7.232  0.00  0.00    +0.000 A 
ATOM     19  C   UNL     1     -39.427  45.544 -14.927  0.00  0.00    +0.000 A 
ATOM     20  C   UNL     1     -33.662  45.578  -5.446  0.00  0.00    +0.000 A 
ATOM     21  C   UNL     1     -40.619  46.071 -14.442  0.00  0.00    +0.000 A 
ATOM     22  C   UNL     1     -32.553  44.860  -5.880  0.00  0.00    +0.000 A 
ATOM     23  H   UNL     1     -40.088  47.437 -10.526  0.00  0.00    +0.000 HD
ATOM     24  H   UNL     1     -32.705  44.363 -10.029  0.00  0.00    +0.000 HD
ENDROOT
BRANCH  11  26
ATOM     25  O   UNL     1     -38.008  48.352  -7.332  0.00  0.00    +0.000 OA
ATOM     26  C   UNL     1     -38.170  48.310  -8.545  0.00  0.00    +0.000 C 
BRANCH  26  27
ATOM     27  O   UNL     1     -38.884  49.171  -9.328  0.00  0.00    +0.000 OA
ATOM     28  C   UNL     1     -39.719  50.105  -8.697  0.00  0.00    +0.000 C 
ENDBRANCH  26  27
ENDBRANCH  11  26
BRANCH  12  30
ATOM     29  O   UNL     1     -32.849  44.605 -12.428  0.00  0.00    +0.000 OA
ATOM     30  C   UNL     1     -33.813  45.357 -12.510  0.00  0.00    +0.000 C 
BRANCH  30  31
ATOM     31  O   UNL     1     -34.187  46.132 -13.569  0.00  0.00    +0.000 OA
ATOM     32  C   UNL     1     -33.968  45.636 -14.864  0.00  0.00    +0.000 C 
ENDBRANCH  30  31
ENDBRANCH  12  30
TORSDOF 4
ENDMDL
