MODEL 1
REMARK VINA RESULT:      -3.2      0.000      0.000
REMARK  Name = 5350_Sulforaphane.pdbqt.pdb
REMARK  3 active torsions:
REMARK  status: ('A' for Active; 'I' for Inactive)
REMARK    1  A    between atoms: C_1  and  C_2
REMARK    2  A    between atoms: C_3  and  N_5
REMARK    3  A    between atoms: C_7  and  S_8
REMARK                            x       y       z     vdW  Elec       q    Type
REMARK                         _______ _______ _______ _____ _____    ______ ____
ROOT
ATOM      1  C   UNL     1     -32.077  45.449 -16.745  0.00  0.00    +0.000 C 
ATOM      2  C   UNL     1     -31.082  44.671 -17.612  0.00  0.00    +0.000 C 
ENDROOT
BRANCH   2   3
ATOM      3  S   UNL     1     -29.936  43.780 -18.609  0.00  0.00    +0.000 S 
ATOM      4  O   UNL     1     -29.201  45.033 -18.981  0.00  0.00    +0.000 OA
ATOM      5  C   UNL     1     -30.953  43.872 -20.044  0.00  0.00    +0.000 C 
ENDBRANCH   2   3
BRANCH   1   6
ATOM      6  C   UNL     1     -33.073  46.228 -15.880  0.00  0.00    +0.000 C 
ATOM      7  C   UNL     1     -34.071  47.007 -15.015  0.00  0.00    +0.000 C 
BRANCH   7   9
ATOM      8  S   UNL     1     -36.086  46.107 -12.308  0.00  0.00    +0.000 S 
ATOM      9  N   UNL     1     -34.934  47.698 -14.258  0.00  0.00    +0.000 NA
ATOM     10  C   UNL     1     -35.410  47.007 -13.438  0.00  0.00    +0.000 C 
ENDBRANCH   7   9
ENDBRANCH   1   6
TORSDOF 3
ENDMDL
MODEL 2
REMARK VINA RESULT:      -3.2     19.100     19.443
REMARK  Name = 5350_Sulforaphane.pdbqt.pdb
REMARK  3 active torsions:
REMARK  status: ('A' for Active; 'I' for Inactive)
REMARK    1  A    between atoms: C_1  and  C_2
REMARK    2  A    between atoms: C_3  and  N_5
REMARK    3  A    between atoms: C_7  and  S_8
REMARK                            x       y       z     vdW  Elec       q    Type
REMARK                         _______ _______ _______ _____ _____    ______ ____
ROOT
ATOM      1  C   UNL     1     -29.026  60.544 -28.154  0.00  0.00    +0.000 C 
ATOM      2  C   UNL     1     -28.330  60.416 -29.514  0.00  0.00    +0.000 C 
ENDROOT
BRANCH   2   3
ATOM      3  S   UNL     1     -27.531  60.265 -31.077  0.00  0.00    +0.000 S 
ATOM      4  O   UNL     1     -26.190  60.073 -30.434  0.00  0.00    +0.000 OA
ATOM      5  C   UNL     1     -27.281  62.001 -31.233  0.00  0.00    +0.000 C 
ENDBRANCH   2   3
BRANCH   1   6
ATOM      6  C   UNL     1     -29.719  60.672 -26.795  0.00  0.00    +0.000 C 
ATOM      7  C   UNL     1     -30.413  60.799 -25.433  0.00  0.00    +0.000 C 
BRANCH   7   9
ATOM      8  S   UNL     1     -31.539  63.560 -23.615  0.00  0.00    +0.000 S 
ATOM      9  N   UNL     1     -31.030  60.915 -24.250  0.00  0.00    +0.000 NA
ATOM     10  C   UNL     1     -31.237  62.043 -23.999  0.00  0.00    +0.000 C 
ENDBRANCH   7   9
ENDBRANCH   1   6
TORSDOF 3
ENDMDL
MODEL 3
REMARK VINA RESULT:      -3.1     20.747     21.382
REMARK  Name = 5350_Sulforaphane.pdbqt.pdb
REMARK  3 active torsions:
REMARK  status: ('A' for Active; 'I' for Inactive)
REMARK    1  A    between atoms: C_1  and  C_2
REMARK    2  A    between atoms: C_3  and  N_5
REMARK    3  A    between atoms: C_7  and  S_8
REMARK                            x       y       z     vdW  Elec       q    Type
REMARK                         _______ _______ _______ _____ _____    ______ ____
ROOT
ATOM      1  C   UNL     1     -17.646  59.071  -9.825  0.00  0.00    +0.000 C 
ATOM      2  C   UNL     1     -17.345  58.306  -8.531  0.00  0.00    +0.000 C 
ENDROOT
BRANCH   2   3
ATOM      3  S   UNL     1     -16.995  57.427  -7.045  0.00  0.00    +0.000 S 
ATOM      4  O   UNL     1     -16.617  56.188  -7.801  0.00  0.00    +0.000 OA
ATOM      5  C   UNL     1     -18.658  56.882  -6.853  0.00  0.00    +0.000 C 
ENDBRANCH   2   3
BRANCH   1   6
ATOM      6  C   UNL     1     -17.947  59.832 -11.119  0.00  0.00    +0.000 C 
ATOM      7  C   UNL     1     -18.248  60.595 -12.414  0.00  0.00    +0.000 C 
BRANCH   7   9
ATOM      8  S   UNL     1     -18.937  59.569 -15.681  0.00  0.00    +0.000 S 
ATOM      9  N   UNL     1     -18.505  61.271 -13.542  0.00  0.00    +0.000 NA
ATOM     10  C   UNL     1     -18.685  60.533 -14.436  0.00  0.00    +0.000 C 
ENDBRANCH   7   9
ENDBRANCH   1   6
TORSDOF 3
ENDMDL
MODEL 4
REMARK VINA RESULT:      -3.1      8.034      8.321
REMARK  Name = 5350_Sulforaphane.pdbqt.pdb
REMARK  3 active torsions:
REMARK  status: ('A' for Active; 'I' for Inactive)
REMARK    1  A    between atoms: C_1  and  C_2
REMARK    2  A    between atoms: C_3  and  N_5
REMARK    3  A    between atoms: C_7  and  S_8
REMARK                            x       y       z     vdW  Elec       q    Type
REMARK                         _______ _______ _______ _____ _____    ______ ____
ROOT
ATOM      1  C   UNL     1     -34.529  49.663 -23.642  0.00  0.00    +0.000 C 
ATOM      2  C   UNL     1     -34.127  49.334 -25.083  0.00  0.00    +0.000 C 
ENDROOT
BRANCH   2   3
ATOM      3  S   UNL     1     -33.667  48.952 -26.741  0.00  0.00    +0.000 S 
ATOM      4  O   UNL     1     -33.144  50.338 -26.973  0.00  0.00    +0.000 OA
ATOM      5  C   UNL     1     -35.251  49.372 -27.386  0.00  0.00    +0.000 C 
ENDBRANCH   2   3
BRANCH   1   6
ATOM      6  C   UNL     1     -34.929  49.990 -22.200  0.00  0.00    +0.000 C 
ATOM      7  C   UNL     1     -35.330  50.318 -20.757  0.00  0.00    +0.000 C 
BRANCH   7   9
ATOM      8  S   UNL     1     -34.297  49.084 -17.658  0.00  0.00    +0.000 S 
ATOM      9  N   UNL     1     -35.682  50.616 -19.499  0.00  0.00    +0.000 NA
ATOM     10  C   UNL     1     -35.084  49.957 -18.734  0.00  0.00    +0.000 C 
ENDBRANCH   7   9
ENDBRANCH   1   6
TORSDOF 3
ENDMDL
MODEL 5
REMARK VINA RESULT:      -3.0      5.850      8.378
REMARK  Name = 5350_Sulforaphane.pdbqt.pdb
REMARK  3 active torsions:
REMARK  status: ('A' for Active; 'I' for Inactive)
REMARK    1  A    between atoms: C_1  and  C_2
REMARK    2  A    between atoms: C_3  and  N_5
REMARK    3  A    between atoms: C_7  and  S_8
REMARK                            x       y       z     vdW  Elec       q    Type
REMARK                         _______ _______ _______ _____ _____    ______ ____
ROOT
ATOM      1  C   UNL     1     -33.585  45.069 -10.506  0.00  0.00    +0.000 C 
ATOM      2  C   UNL     1     -33.972  45.386  -9.058  0.00  0.00    +0.000 C 
ENDROOT
BRANCH   2   3
ATOM      3  S   UNL     1     -34.414  45.752  -7.392  0.00  0.00    +0.000 S 
ATOM      4  O   UNL     1     -34.589  47.209  -7.700  0.00  0.00    +0.000 OA
ATOM      5  C   UNL     1     -32.742  45.991  -6.893  0.00  0.00    +0.000 C 
ENDBRANCH   2   3
BRANCH   1   6
ATOM      6  C   UNL     1     -33.198  44.750 -11.953  0.00  0.00    +0.000 C 
ATOM      7  C   UNL     1     -32.810  44.429 -13.402  0.00  0.00    +0.000 C 
BRANCH   7   9
ATOM      8  S   UNL     1     -33.190  46.178 -16.400  0.00  0.00    +0.000 S 
ATOM      9  N   UNL     1     -32.458  44.151 -14.664  0.00  0.00    +0.000 NA
ATOM     10  C   UNL     1     -32.777  45.022 -15.384  0.00  0.00    +0.000 C 
ENDBRANCH   7   9
ENDBRANCH   1   6
TORSDOF 3
ENDMDL
MODEL 6
REMARK VINA RESULT:      -2.9      3.858      7.061
REMARK  Name = 5350_Sulforaphane.pdbqt.pdb
REMARK  3 active torsions:
REMARK  status: ('A' for Active; 'I' for Inactive)
REMARK    1  A    between atoms: C_1  and  C_2
REMARK    2  A    between atoms: C_3  and  N_5
REMARK    3  A    between atoms: C_7  and  S_8
REMARK                            x       y       z     vdW  Elec       q    Type
REMARK                         _______ _______ _______ _____ _____    ______ ____
ROOT
ATOM      1  C   UNL     1     -32.483  45.324 -16.226  0.00  0.00    +0.000 C 
ATOM      2  C   UNL     1     -33.646  45.705 -15.304  0.00  0.00    +0.000 C 
ENDROOT
BRANCH   2   3
ATOM      3  S   UNL     1     -34.987  46.143 -14.249  0.00  0.00    +0.000 S 
ATOM      4  O   UNL     1     -34.462  47.536 -14.069  0.00  0.00    +0.000 OA
ATOM      5  C   UNL     1     -34.166  45.576 -12.798  0.00  0.00    +0.000 C 
ENDBRANCH   2   3
BRANCH   1   6
ATOM      6  C   UNL     1     -31.318  44.947 -17.146  0.00  0.00    +0.000 C 
ATOM      7  C   UNL     1     -30.153  44.568 -18.067  0.00  0.00    +0.000 C 
BRANCH   7   9
ATOM      8  S   UNL     1     -29.091  41.536 -19.436  0.00  0.00    +0.000 S 
ATOM      9  N   UNL     1     -29.138  44.247 -18.882  0.00  0.00    +0.000 NA
ATOM     10  C   UNL     1     -29.136  43.095 -19.105  0.00  0.00    +0.000 C 
ENDBRANCH   7   9
ENDBRANCH   1   6
TORSDOF 3
ENDMDL
MODEL 7
REMARK VINA RESULT:      -2.9      9.327      9.846
REMARK  Name = 5350_Sulforaphane.pdbqt.pdb
REMARK  3 active torsions:
REMARK  status: ('A' for Active; 'I' for Inactive)
REMARK    1  A    between atoms: C_1  and  C_2
REMARK    2  A    between atoms: C_3  and  N_5
REMARK    3  A    between atoms: C_7  and  S_8
REMARK                            x       y       z     vdW  Elec       q    Type
REMARK                         _______ _______ _______ _____ _____    ______ ____
ROOT
ATOM      1  C   UNL     1     -35.399  46.613  -8.191  0.00  0.00    +0.000 C 
ATOM      2  C   UNL     1     -34.137  45.839  -7.796  0.00  0.00    +0.000 C 
ENDROOT
BRANCH   2   3
ATOM      3  S   UNL     1     -32.685  44.949  -7.345  0.00  0.00    +0.000 S 
ATOM      4  O   UNL     1     -33.462  43.687  -7.120  0.00  0.00    +0.000 OA
ATOM      5  C   UNL     1     -32.807  45.404  -5.649  0.00  0.00    +0.000 C 
ENDBRANCH   2   3
BRANCH   1   6
ATOM      6  C   UNL     1     -36.662  47.384  -8.586  0.00  0.00    +0.000 C 
ATOM      7  C   UNL     1     -37.927  48.156  -8.981  0.00  0.00    +0.000 C 
BRANCH   7   9
ATOM      8  S   UNL     1     -39.826  50.607  -7.374  0.00  0.00    +0.000 S 
ATOM      9  N   UNL     1     -39.029  48.829  -9.339  0.00  0.00    +0.000 NA
ATOM     10  C   UNL     1     -39.350  49.577  -8.494  0.00  0.00    +0.000 C 
ENDBRANCH   7   9
ENDBRANCH   1   6
TORSDOF 3
ENDMDL
MODEL 8
REMARK VINA RESULT:      -2.9      6.587      7.948
REMARK  Name = 5350_Sulforaphane.pdbqt.pdb
REMARK  3 active torsions:
REMARK  status: ('A' for Active; 'I' for Inactive)
REMARK    1  A    between atoms: C_1  and  C_2
REMARK    2  A    between atoms: C_3  and  N_5
REMARK    3  A    between atoms: C_7  and  S_8
REMARK                            x       y       z     vdW  Elec       q    Type
REMARK                         _______ _______ _______ _____ _____    ______ ____
ROOT
ATOM      1  C   UNL     1     -33.423  44.723  -9.855  0.00  0.00    +0.000 C 
ATOM      2  C   UNL     1     -33.652  44.423 -11.340  0.00  0.00    +0.000 C 
ENDROOT
BRANCH   2   3
ATOM      3  S   UNL     1     -33.920  44.081 -13.047  0.00  0.00    +0.000 S 
ATOM      4  O   UNL     1     -32.546  44.557 -13.415  0.00  0.00    +0.000 OA
ATOM      5  C   UNL     1     -34.624  45.664 -13.361  0.00  0.00    +0.000 C 
ENDBRANCH   2   3
BRANCH   1   6
ATOM      6  C   UNL     1     -33.194  45.018  -8.370  0.00  0.00    +0.000 C 
ATOM      7  C   UNL     1     -32.964  45.315  -6.883  0.00  0.00    +0.000 C 
BRANCH   7   9
ATOM      8  S   UNL     1     -32.606  43.240  -4.097  0.00  0.00    +0.000 S 
ATOM      9  N   UNL     1     -32.776  45.570  -5.581  0.00  0.00    +0.000 NA
ATOM     10  C   UNL     1     -32.706  44.570  -4.969  0.00  0.00    +0.000 C 
ENDBRANCH   7   9
ENDBRANCH   1   6
TORSDOF 3
ENDMDL
MODEL 9
REMARK VINA RESULT:      -2.8     19.891     21.170
REMARK  Name = 5350_Sulforaphane.pdbqt.pdb
REMARK  3 active torsions:
REMARK  status: ('A' for Active; 'I' for Inactive)
REMARK    1  A    between atoms: C_1  and  C_2
REMARK    2  A    between atoms: C_3  and  N_5
REMARK    3  A    between atoms: C_7  and  S_8
REMARK                            x       y       z     vdW  Elec       q    Type
REMARK                         _______ _______ _______ _____ _____    ______ ____
ROOT
ATOM      1  C   UNL     1     -13.519  46.280  -7.663  0.00  0.00    +0.000 C 
ATOM      2  C   UNL     1     -13.399  47.300  -6.526  0.00  0.00    +0.000 C 
ENDROOT
BRANCH   2   3
ATOM      3  S   UNL     1     -13.258  48.475  -5.221  0.00  0.00    +0.000 S 
ATOM      4  O   UNL     1     -14.240  47.728  -4.368  0.00  0.00    +0.000 OA
ATOM      5  C   UNL     1     -14.519  49.513  -5.879  0.00  0.00    +0.000 C 
ENDBRANCH   2   3
BRANCH   1   6
ATOM      6  C   UNL     1     -13.638  45.258  -8.797  0.00  0.00    +0.000 C 
ATOM      7  C   UNL     1     -13.757  44.235  -9.933  0.00  0.00    +0.000 C 
BRANCH   7   9
ATOM      8  S   UNL     1     -16.307  43.490 -12.200  0.00  0.00    +0.000 S 
ATOM      9  N   UNL     1     -13.851  43.346 -10.932  0.00  0.00    +0.000 NA
ATOM     10  C   UNL     1     -14.898  43.423 -11.457  0.00  0.00    +0.000 C 
ENDBRANCH   7   9
ENDBRANCH   1   6
TORSDOF 3
ENDMDL
