MODEL 1
REMARK VINA RESULT:      -5.0      0.000      0.000
REMARK  Name = 5357283_Methylferulate.pdbqt.pdb
REMARK  5 active torsions:
REMARK  status: ('A' for Active; 'I' for Inactive)
REMARK    1  A    between atoms: C_1  and  C_11
REMARK    2  A    between atoms: C_2  and  O_7
REMARK    3  A    between atoms: C_5  and  O_9
REMARK    4  A    between atoms: C_12  and  C_14
REMARK    5  A    between atoms: C_14  and  O_15
REMARK                            x       y       z     vdW  Elec       q    Type
REMARK                         _______ _______ _______ _____ _____    ______ ____
ROOT
ATOM      1  C   UNL     1     -35.299  46.375  -8.609  0.00  0.00    +0.000 A 
ATOM      2  C   UNL     1     -33.313  45.478  -7.544  0.00  0.00    +0.000 A 
ATOM      3  C   UNL     1     -34.413  46.342  -7.533  0.00  0.00    +0.000 A 
ATOM      4  C   UNL     1     -35.095  45.544  -9.708  0.00  0.00    +0.000 A 
ATOM      5  C   UNL     1     -33.122  44.650  -8.653  0.00  0.00    +0.000 A 
ATOM      6  C   UNL     1     -34.005  44.679  -9.731  0.00  0.00    +0.000 A 
ENDROOT
BRANCH   2   7
ATOM      7  O   UNL     1     -32.394  45.384  -6.526  0.00  0.00    +0.000 OA
ATOM      8  C   UNL     1     -32.890  44.882  -5.312  0.00  0.00    +0.000 C 
ENDBRANCH   2   7
BRANCH   5   9
ATOM      9  O   UNL     1     -32.052  43.797  -8.681  0.00  0.00    +0.000 OA
ATOM     10  H   UNL     1     -31.878  43.484  -7.774  0.00  0.00    +0.000 HD
ENDBRANCH   5   9
BRANCH   1  11
ATOM     11  C   UNL     1     -36.414  47.263  -8.582  0.00  0.00    +0.000 C 
ATOM     12  C   UNL     1     -37.355  48.011  -8.561  0.00  0.00    +0.000 C 
BRANCH  12  14
ATOM     13  O   UNL     1     -39.343  48.829  -9.409  0.00  0.00    +0.000 OA
ATOM     14  C   UNL     1     -38.486  48.910  -8.539  0.00  0.00    +0.000 C 
BRANCH  14  15
ATOM     15  O   UNL     1     -38.415  49.767  -7.479  0.00  0.00    +0.000 OA
ATOM     16  C   UNL     1     -39.402  49.666  -6.484  0.00  0.00    +0.000 C 
ENDBRANCH  14  15
ENDBRANCH  12  14
ENDBRANCH   1  11
TORSDOF 5
ENDMDL
MODEL 2
REMARK VINA RESULT:      -4.8      3.261      5.506
REMARK  Name = 5357283_Methylferulate.pdbqt.pdb
REMARK  5 active torsions:
REMARK  status: ('A' for Active; 'I' for Inactive)
REMARK    1  A    between atoms: C_1  and  C_11
REMARK    2  A    between atoms: C_2  and  O_7
REMARK    3  A    between atoms: C_5  and  O_9
REMARK    4  A    between atoms: C_12  and  C_14
REMARK    5  A    between atoms: C_14  and  O_15
REMARK                            x       y       z     vdW  Elec       q    Type
REMARK                         _______ _______ _______ _____ _____    ______ ____
ROOT
ATOM      1  C   UNL     1     -33.661  45.178  -8.180  0.00  0.00    +0.000 A 
ATOM      2  C   UNL     1     -34.766  45.603  -6.064  0.00  0.00    +0.000 A 
ATOM      3  C   UNL     1     -34.779  45.598  -7.462  0.00  0.00    +0.000 A 
ATOM      4  C   UNL     1     -32.516  44.757  -7.507  0.00  0.00    +0.000 A 
ATOM      5  C   UNL     1     -33.611  45.179  -5.403  0.00  0.00    +0.000 A 
ATOM      6  C   UNL     1     -32.490  44.757  -6.116  0.00  0.00    +0.000 A 
ENDROOT
BRANCH   2   7
ATOM      7  O   UNL     1     -35.824  46.002  -5.282  0.00  0.00    +0.000 OA
ATOM      8  C   UNL     1     -37.090  45.592  -5.728  0.00  0.00    +0.000 C 
ENDBRANCH   2   7
BRANCH   5   9
ATOM      9  O   UNL     1     -33.579  45.175  -4.034  0.00  0.00    +0.000 OA
ATOM     10  H   UNL     1     -33.938  44.327  -3.715  0.00  0.00    +0.000 HD
ENDBRANCH   5   9
BRANCH   1  11
ATOM     11  C   UNL     1     -33.691  45.181  -9.605  0.00  0.00    +0.000 C 
ATOM     12  C   UNL     1     -33.716  45.181 -10.808  0.00  0.00    +0.000 C 
BRANCH  12  14
ATOM     13  O   UNL     1     -34.442  45.991 -12.847  0.00  0.00    +0.000 OA
ATOM     14  C   UNL     1     -33.741  45.183 -12.252  0.00  0.00    +0.000 C 
BRANCH  14  15
ATOM     15  O   UNL     1     -32.922  44.217 -12.761  0.00  0.00    +0.000 OA
ATOM     16  C   UNL     1     -33.486  43.267 -13.630  0.00  0.00    +0.000 C 
ENDBRANCH  14  15
ENDBRANCH  12  14
ENDBRANCH   1  11
TORSDOF 5
ENDMDL
MODEL 3
REMARK VINA RESULT:      -4.3     15.263     16.668
REMARK  Name = 5357283_Methylferulate.pdbqt.pdb
REMARK  5 active torsions:
REMARK  status: ('A' for Active; 'I' for Inactive)
REMARK    1  A    between atoms: C_1  and  C_11
REMARK    2  A    between atoms: C_2  and  O_7
REMARK    3  A    between atoms: C_5  and  O_9
REMARK    4  A    between atoms: C_12  and  C_14
REMARK    5  A    between atoms: C_14  and  O_15
REMARK                            x       y       z     vdW  Elec       q    Type
REMARK                         _______ _______ _______ _____ _____    ______ ____
ROOT
ATOM      1  C   UNL     1     -31.661  50.231   6.853  0.00  0.00    +0.000 A 
ATOM      2  C   UNL     1     -30.470  52.193   7.636  0.00  0.00    +0.000 A 
ATOM      3  C   UNL     1     -31.395  51.167   7.851  0.00  0.00    +0.000 A 
ATOM      4  C   UNL     1     -31.003  50.310   5.628  0.00  0.00    +0.000 A 
ATOM      5  C   UNL     1     -29.818  52.260   6.402  0.00  0.00    +0.000 A 
ATOM      6  C   UNL     1     -30.080  51.326   5.400  0.00  0.00    +0.000 A 
ENDROOT
BRANCH   2   7
ATOM      7  O   UNL     1     -30.151  53.155   8.564  0.00  0.00    +0.000 OA
ATOM      8  C   UNL     1     -29.680  52.670   9.794  0.00  0.00    +0.000 C 
ENDBRANCH   2   7
BRANCH   5   9
ATOM      9  O   UNL     1     -28.908  53.256   6.172  0.00  0.00    +0.000 OA
ATOM     10  H   UNL     1     -28.550  53.151   5.272  0.00  0.00    +0.000 HD
ENDBRANCH   5   9
BRANCH   1  11
ATOM     11  C   UNL     1     -32.608  49.192   7.089  0.00  0.00    +0.000 C 
ATOM     12  C   UNL     1     -33.407  48.316   7.290  0.00  0.00    +0.000 C 
BRANCH  12  14
ATOM     13  O   UNL     1     -34.055  46.313   8.244  0.00  0.00    +0.000 OA
ATOM     14  C   UNL     1     -34.363  47.260   7.533  0.00  0.00    +0.000 C 
BRANCH  14  15
ATOM     15  O   UNL     1     -35.541  47.502   6.886  0.00  0.00    +0.000 OA
ATOM     16  C   UNL     1     -36.341  48.561   7.350  0.00  0.00    +0.000 C 
ENDBRANCH  14  15
ENDBRANCH  12  14
ENDBRANCH   1  11
TORSDOF 5
ENDMDL
MODEL 4
REMARK VINA RESULT:      -4.3     19.934     22.360
REMARK  Name = 5357283_Methylferulate.pdbqt.pdb
REMARK  5 active torsions:
REMARK  status: ('A' for Active; 'I' for Inactive)
REMARK    1  A    between atoms: C_1  and  C_11
REMARK    2  A    between atoms: C_2  and  O_7
REMARK    3  A    between atoms: C_5  and  O_9
REMARK    4  A    between atoms: C_12  and  C_14
REMARK    5  A    between atoms: C_14  and  O_15
REMARK                            x       y       z     vdW  Elec       q    Type
REMARK                         _______ _______ _______ _____ _____    ______ ____
ROOT
ATOM      1  C   UNL     1     -14.184  47.805  -4.691  0.00  0.00    +0.000 A 
ATOM      2  C   UNL     1     -12.581  49.346  -5.659  0.00  0.00    +0.000 A 
ATOM      3  C   UNL     1     -12.866  48.207  -4.900  0.00  0.00    +0.000 A 
ATOM      4  C   UNL     1     -15.233  48.539  -5.240  0.00  0.00    +0.000 A 
ATOM      5  C   UNL     1     -13.643  50.071  -6.204  0.00  0.00    +0.000 A 
ATOM      6  C   UNL     1     -14.964  49.674  -5.998  0.00  0.00    +0.000 A 
ENDROOT
BRANCH   2   7
ATOM      7  O   UNL     1     -11.312  49.809  -5.913  0.00  0.00    +0.000 OA
ATOM      8  C   UNL     1     -10.498  49.983  -4.783  0.00  0.00    +0.000 C 
ENDBRANCH   2   7
BRANCH   5   9
ATOM      9  O   UNL     1     -13.385  51.188  -6.952  0.00  0.00    +0.000 OA
ATOM     10  H   UNL     1     -14.228  51.534  -7.299  0.00  0.00    +0.000 HD
ENDBRANCH   5   9
BRANCH   1  11
ATOM     11  C   UNL     1     -14.456  46.642  -3.912  0.00  0.00    +0.000 C 
ATOM     12  C   UNL     1     -14.684  45.662  -3.255  0.00  0.00    +0.000 C 
BRANCH  12  14
ATOM     13  O   UNL     1     -14.098  43.613  -2.360  0.00  0.00    +0.000 OA
ATOM     14  C   UNL     1     -14.954  44.481  -2.468  0.00  0.00    +0.000 C 
BRANCH  14  15
ATOM     15  O   UNL     1     -16.209  44.522  -1.932  0.00  0.00    +0.000 OA
ATOM     16  C   UNL     1     -17.165  43.615  -2.422  0.00  0.00    +0.000 C 
ENDBRANCH  14  15
ENDBRANCH  12  14
ENDBRANCH   1  11
TORSDOF 5
ENDMDL
MODEL 5
REMARK VINA RESULT:      -4.2     16.683     18.612
REMARK  Name = 5357283_Methylferulate.pdbqt.pdb
REMARK  5 active torsions:
REMARK  status: ('A' for Active; 'I' for Inactive)
REMARK    1  A    between atoms: C_1  and  C_11
REMARK    2  A    between atoms: C_2  and  O_7
REMARK    3  A    between atoms: C_5  and  O_9
REMARK    4  A    between atoms: C_12  and  C_14
REMARK    5  A    between atoms: C_14  and  O_15
REMARK                            x       y       z     vdW  Elec       q    Type
REMARK                         _______ _______ _______ _____ _____    ______ ____
ROOT
ATOM      1  C   UNL     1     -29.469  49.592   8.000  0.00  0.00    +0.000 A 
ATOM      2  C   UNL     1     -28.317  51.726   7.951  0.00  0.00    +0.000 A 
ATOM      3  C   UNL     1     -28.521  50.468   8.527  0.00  0.00    +0.000 A 
ATOM      4  C   UNL     1     -30.224  49.964   6.890  0.00  0.00    +0.000 A 
ATOM      5  C   UNL     1     -29.081  52.085   6.838  0.00  0.00    +0.000 A 
ATOM      6  C   UNL     1     -30.031  51.213   6.307  0.00  0.00    +0.000 A 
ENDROOT
BRANCH   2   7
ATOM      7  O   UNL     1     -27.405  52.647   8.408  0.00  0.00    +0.000 OA
ATOM      8  C   UNL     1     -27.167  52.624   9.791  0.00  0.00    +0.000 C 
ENDBRANCH   2   7
BRANCH   5   9
ATOM      9  O   UNL     1     -28.896  53.312   6.260  0.00  0.00    +0.000 OA
ATOM     10  H   UNL     1     -28.295  53.835   6.822  0.00  0.00    +0.000 HD
ENDBRANCH   5   9
BRANCH   1  11
ATOM     11  C   UNL     1     -29.664  48.314   8.601  0.00  0.00    +0.000 C 
ATOM     12  C   UNL     1     -29.827  47.236   9.108  0.00  0.00    +0.000 C 
BRANCH  12  14
ATOM     13  O   UNL     1     -31.031  45.718  10.367  0.00  0.00    +0.000 OA
ATOM     14  C   UNL     1     -30.021  45.939   9.713  0.00  0.00    +0.000 C 
BRANCH  14  15
ATOM     15  O   UNL     1     -28.974  45.106   9.441  0.00  0.00    +0.000 OA
ATOM     16  C   UNL     1     -29.265  43.785   9.059  0.00  0.00    +0.000 C 
ENDBRANCH  14  15
ENDBRANCH  12  14
ENDBRANCH   1  11
TORSDOF 5
ENDMDL
MODEL 6
REMARK VINA RESULT:      -4.2     25.383     26.781
REMARK  Name = 5357283_Methylferulate.pdbqt.pdb
REMARK  5 active torsions:
REMARK  status: ('A' for Active; 'I' for Inactive)
REMARK    1  A    between atoms: C_1  and  C_11
REMARK    2  A    between atoms: C_2  and  O_7
REMARK    3  A    between atoms: C_5  and  O_9
REMARK    4  A    between atoms: C_12  and  C_14
REMARK    5  A    between atoms: C_14  and  O_15
REMARK                            x       y       z     vdW  Elec       q    Type
REMARK                         _______ _______ _______ _____ _____    ______ ____
ROOT
ATOM      1  C   UNL     1     -16.474  55.690 -23.903  0.00  0.00    +0.000 A 
ATOM      2  C   UNL     1     -15.489  53.903 -22.593  0.00  0.00    +0.000 A 
ATOM      3  C   UNL     1     -15.912  54.417 -23.822  0.00  0.00    +0.000 A 
ATOM      4  C   UNL     1     -16.619  56.464 -22.754  0.00  0.00    +0.000 A 
ATOM      5  C   UNL     1     -15.640  54.691 -21.449  0.00  0.00    +0.000 A 
ATOM      6  C   UNL     1     -16.201  55.965 -21.524  0.00  0.00    +0.000 A 
ENDROOT
BRANCH   2   7
ATOM      7  O   UNL     1     -14.926  52.661 -22.427  0.00  0.00    +0.000 OA
ATOM      8  C   UNL     1     -14.980  51.820 -23.549  0.00  0.00    +0.000 C 
ENDBRANCH   2   7
BRANCH   5   9
ATOM      9  O   UNL     1     -15.230  54.206 -20.237  0.00  0.00    +0.000 OA
ATOM     10  H   UNL     1     -15.114  53.241 -20.309  0.00  0.00    +0.000 HD
ENDBRANCH   5   9
BRANCH   1  11
ATOM     11  C   UNL     1     -16.902  56.198 -25.165  0.00  0.00    +0.000 C 
ATOM     12  C   UNL     1     -17.262  56.625 -26.230  0.00  0.00    +0.000 C 
BRANCH  12  14
ATOM     13  O   UNL     1     -17.450  58.300 -27.811  0.00  0.00    +0.000 OA
ATOM     14  C   UNL     1     -17.690  57.138 -27.511  0.00  0.00    +0.000 C 
BRANCH  14  15
ATOM     15  O   UNL     1     -18.339  56.179 -28.235  0.00  0.00    +0.000 OA
ATOM     16  C   UNL     1     -18.749  56.505 -29.539  0.00  0.00    +0.000 C 
ENDBRANCH  14  15
ENDBRANCH  12  14
ENDBRANCH   1  11
TORSDOF 5
ENDMDL
MODEL 7
REMARK VINA RESULT:      -4.2      7.190     10.387
REMARK  Name = 5357283_Methylferulate.pdbqt.pdb
REMARK  5 active torsions:
REMARK  status: ('A' for Active; 'I' for Inactive)
REMARK    1  A    between atoms: C_1  and  C_11
REMARK    2  A    between atoms: C_2  and  O_7
REMARK    3  A    between atoms: C_5  and  O_9
REMARK    4  A    between atoms: C_12  and  C_14
REMARK    5  A    between atoms: C_14  and  O_15
REMARK                            x       y       z     vdW  Elec       q    Type
REMARK                         _______ _______ _______ _____ _____    ______ ____
ROOT
ATOM      1  C   UNL     1     -32.447  45.239 -15.374  0.00  0.00    +0.000 A 
ATOM      2  C   UNL     1     -34.125  46.813 -14.606  0.00  0.00    +0.000 A 
ATOM      3  C   UNL     1     -33.157  46.428 -15.538  0.00  0.00    +0.000 A 
ATOM      4  C   UNL     1     -32.698  44.421 -14.275  0.00  0.00    +0.000 A 
ATOM      5  C   UNL     1     -34.366  45.982 -13.509  0.00  0.00    +0.000 A 
ATOM      6  C   UNL     1     -33.660  44.793 -13.340  0.00  0.00    +0.000 A 
ENDROOT
BRANCH   2   7
ATOM      7  O   UNL     1     -34.868  47.965 -14.693  0.00  0.00    +0.000 OA
ATOM      8  C   UNL     1     -35.203  48.369 -15.995  0.00  0.00    +0.000 C 
ENDBRANCH   2   7
BRANCH   5   9
ATOM      9  O   UNL     1     -35.311  46.341 -12.586  0.00  0.00    +0.000 OA
ATOM     10  H   UNL     1     -35.789  45.541 -12.300  0.00  0.00    +0.000 HD
ENDBRANCH   5   9
BRANCH   1  11
ATOM     11  C   UNL     1     -31.462  44.863 -16.334  0.00  0.00    +0.000 C 
ATOM     12  C   UNL     1     -30.632  44.547 -17.144  0.00  0.00    +0.000 C 
BRANCH  12  14
ATOM     13  O   UNL     1     -29.249  44.991 -18.942  0.00  0.00    +0.000 OA
ATOM     14  C   UNL     1     -29.637  44.170 -18.121  0.00  0.00    +0.000 C 
BRANCH  14  15
ATOM     15  O   UNL     1     -29.260  42.867 -17.964  0.00  0.00    +0.000 OA
ATOM     16  C   UNL     1     -28.700  42.488 -16.731  0.00  0.00    +0.000 C 
ENDBRANCH  14  15
ENDBRANCH  12  14
ENDBRANCH   1  11
TORSDOF 5
ENDMDL
MODEL 8
REMARK VINA RESULT:      -4.2      8.108     11.102
REMARK  Name = 5357283_Methylferulate.pdbqt.pdb
REMARK  5 active torsions:
REMARK  status: ('A' for Active; 'I' for Inactive)
REMARK    1  A    between atoms: C_1  and  C_11
REMARK    2  A    between atoms: C_2  and  O_7
REMARK    3  A    between atoms: C_5  and  O_9
REMARK    4  A    between atoms: C_12  and  C_14
REMARK    5  A    between atoms: C_14  and  O_15
REMARK                            x       y       z     vdW  Elec       q    Type
REMARK                         _______ _______ _______ _____ _____    ______ ____
ROOT
ATOM      1  C   UNL     1     -33.259  46.705 -17.159  0.00  0.00    +0.000 A 
ATOM      2  C   UNL     1     -34.663  48.060 -15.718  0.00  0.00    +0.000 A 
ATOM      3  C   UNL     1     -33.767  47.001 -15.895  0.00  0.00    +0.000 A 
ATOM      4  C   UNL     1     -33.641  47.465 -18.261  0.00  0.00    +0.000 A 
ATOM      5  C   UNL     1     -35.037  48.814 -16.834  0.00  0.00    +0.000 A 
ATOM      6  C   UNL     1     -34.531  48.522 -18.100  0.00  0.00    +0.000 A 
ENDROOT
BRANCH   2   7
ATOM      7  O   UNL     1     -35.210  48.418 -14.510  0.00  0.00    +0.000 OA
ATOM      8  C   UNL     1     -35.798  47.372 -13.782  0.00  0.00    +0.000 C 
ENDBRANCH   2   7
BRANCH   5   9
ATOM      9  O   UNL     1     -35.912  49.856 -16.681  0.00  0.00    +0.000 OA
ATOM     10  H   UNL     1     -35.404  50.687 -16.646  0.00  0.00    +0.000 HD
ENDBRANCH   5   9
BRANCH   1  11
ATOM     11  C   UNL     1     -32.347  45.620 -17.320  0.00  0.00    +0.000 C 
ATOM     12  C   UNL     1     -31.578  44.706 -17.454  0.00  0.00    +0.000 C 
BRANCH  12  14
ATOM     13  O   UNL     1     -30.314  42.952 -16.639  0.00  0.00    +0.000 OA
ATOM     14  C   UNL     1     -30.651  43.610 -17.614  0.00  0.00    +0.000 C 
BRANCH  14  15
ATOM     15  O   UNL     1     -30.270  43.472 -18.918  0.00  0.00    +0.000 OA
ATOM     16  C   UNL     1     -29.458  44.474 -19.476  0.00  0.00    +0.000 C 
ENDBRANCH  14  15
ENDBRANCH  12  14
ENDBRANCH   1  11
TORSDOF 5
ENDMDL
MODEL 9
REMARK VINA RESULT:      -4.1     20.827     22.295
REMARK  Name = 5357283_Methylferulate.pdbqt.pdb
REMARK  5 active torsions:
REMARK  status: ('A' for Active; 'I' for Inactive)
REMARK    1  A    between atoms: C_1  and  C_11
REMARK    2  A    between atoms: C_2  and  O_7
REMARK    3  A    between atoms: C_5  and  O_9
REMARK    4  A    between atoms: C_12  and  C_14
REMARK    5  A    between atoms: C_14  and  O_15
REMARK                            x       y       z     vdW  Elec       q    Type
REMARK                         _______ _______ _______ _____ _____    ______ ____
ROOT
ATOM      1  C   UNL     1     -13.241  45.964  -7.412  0.00  0.00    +0.000 A 
ATOM      2  C   UNL     1     -13.687  44.393  -9.205  0.00  0.00    +0.000 A 
ATOM      3  C   UNL     1     -13.699  45.697  -8.701  0.00  0.00    +0.000 A 
ATOM      4  C   UNL     1     -12.765  44.928  -6.611  0.00  0.00    +0.000 A 
ATOM      5  C   UNL     1     -13.207  43.364  -8.390  0.00  0.00    +0.000 A 
ATOM      6  C   UNL     1     -12.748  43.625  -7.100  0.00  0.00    +0.000 A 
ENDROOT
BRANCH   2   7
ATOM      7  O   UNL     1     -14.119  44.045 -10.462  0.00  0.00    +0.000 OA
ATOM      8  C   UNL     1     -13.424  44.643 -11.525  0.00  0.00    +0.000 C 
ENDBRANCH   2   7
BRANCH   5   9
ATOM      9  O   UNL     1     -13.185  42.081  -8.866  0.00  0.00    +0.000 OA
ATOM     10  H   UNL     1     -12.271  41.857  -9.120  0.00  0.00    +0.000 HD
ENDBRANCH   5   9
BRANCH   1  11
ATOM     11  C   UNL     1     -13.262  47.299  -6.914  0.00  0.00    +0.000 C 
ATOM     12  C   UNL     1     -13.281  48.427  -6.496  0.00  0.00    +0.000 C 
BRANCH  12  14
ATOM     13  O   UNL     1     -12.342  50.214  -5.372  0.00  0.00    +0.000 OA
ATOM     14  C   UNL     1     -13.302  49.782  -5.997  0.00  0.00    +0.000 C 
BRANCH  14  15
ATOM     15  O   UNL     1     -14.469  50.411  -6.324  0.00  0.00    +0.000 OA
ATOM     16  C   UNL     1     -15.616  50.099  -5.575  0.00  0.00    +0.000 C 
ENDBRANCH  14  15
ENDBRANCH  12  14
ENDBRANCH   1  11
TORSDOF 5
ENDMDL
