MODEL 1
REMARK VINA RESULT:      -5.7      0.000      0.000
REMARK  Name = 5358691_Yuanhuacine.pdbqt.pdb
REMARK  12 active torsions:
REMARK  status: ('A' for Active; 'I' for Inactive)
REMARK    1  A    between atoms: C_9  and  C_48
REMARK    2  A    between atoms: C_13  and  C_23
REMARK    3  A    between atoms: C_14  and  O_26
REMARK    4  A    between atoms: C_15  and  O_28
REMARK    5  A    between atoms: C_16  and  O_39
REMARK    6  A    between atoms: C_17  and  C_30
REMARK    7  A    between atoms: C_31  and  C_32
REMARK    8  A    between atoms: C_33  and  C_34
REMARK    9  A    between atoms: C_35  and  C_36
REMARK   10  A    between atoms: O_39  and  C_41
REMARK   11  A    between atoms: C_41  and  C_42
REMARK   12  A    between atoms: C_48  and  O_49
REMARK                            x       y       z     vdW  Elec       q    Type
REMARK                         _______ _______ _______ _____ _____    ______ ____
ROOT
ATOM      1  O   UNL     1     -33.816  45.594  -8.873  0.00  0.00    +0.000 OA
ATOM      2  O   UNL     1     -36.772  43.720  -8.972  0.00  0.00    +0.000 OA
ATOM      3  O   UNL     1     -36.701  45.448 -10.597  0.00  0.00    +0.000 OA
ATOM      4  O   UNL     1     -38.739  44.744  -9.817  0.00  0.00    +0.000 OA
ATOM      5  O   UNL     1     -33.676  43.860  -3.964  0.00  0.00    +0.000 OA
ATOM      6  C   UNL     1     -36.092  46.000  -8.474  0.00  0.00    +0.000 C 
ATOM      7  C   UNL     1     -36.533  44.656  -7.876  0.00  0.00    +0.000 C 
ATOM      8  C   UNL     1     -34.755  46.522  -8.499  0.00  0.00    +0.000 C 
ATOM      9  C   UNL     1     -33.551  46.351  -7.684  0.00  0.00    +0.000 C 
ATOM     10  C   UNL     1     -37.046  46.300  -9.549  0.00  0.00    +0.000 C 
ATOM     11  C   UNL     1     -35.476  44.052  -7.003  0.00  0.00    +0.000 C 
ATOM     12  C   UNL     1     -37.871  44.870  -7.107  0.00  0.00    +0.000 C 
ATOM     13  C   UNL     1     -38.543  46.062  -9.231  0.00  0.00    +0.000 C 
ATOM     14  C   UNL     1     -34.806  44.856  -5.912  0.00  0.00    +0.000 C 
ATOM     15  C   UNL     1     -33.652  45.713  -6.343  0.00  0.00    +0.000 C 
ATOM     16  C   UNL     1     -38.768  45.818  -7.749  0.00  0.00    +0.000 C 
ATOM     17  C   UNL     1     -37.420  44.301 -10.130  0.00  0.00    +0.000 C 
ATOM     18  C   UNL     1     -35.283  42.674  -6.730  0.00  0.00    +0.000 C 
ATOM     19  C   UNL     1     -38.383  44.032  -5.935  0.00  0.00    +0.000 C 
ATOM     20  C   UNL     1     -34.297  43.684  -5.009  0.00  0.00    +0.000 C 
ATOM     21  C   UNL     1     -34.670  42.373  -5.634  0.00  0.00    +0.000 C 
ATOM     22  C   UNL     1     -34.009  41.057  -5.386  0.00  0.00    +0.000 C 
ENDROOT
BRANCH  13  23
ATOM     23  C   UNL     1     -39.404  47.157  -9.903  0.00  0.00    +0.000 C 
ATOM     24  C   UNL     1     -40.880  46.989 -10.259  0.00  0.00    +0.000 C 
ATOM     25  C   UNL     1     -38.886  48.252 -10.497  0.00  0.00    +0.000 C 
ENDBRANCH  13  23
BRANCH  14  26
ATOM     26  O   UNL     1     -35.735  45.683  -5.243  0.00  0.00    +0.000 OA
ATOM     27  H   UNL     1     -35.222  46.320  -4.706  0.00  0.00    +0.000 HD
ENDBRANCH  14  26
BRANCH  15  28
ATOM     28  O   UNL     1     -32.726  46.066  -5.359  0.00  0.00    +0.000 OA
ATOM     29  H   UNL     1     -32.560  47.029  -5.273  0.00  0.00    +0.000 HD
ENDBRANCH  15  28
BRANCH  17  30
ATOM     30  C   UNL     1     -37.484  43.296 -11.186  0.00  0.00    +0.000 C 
ATOM     31  C   UNL     1     -37.535  42.471 -12.056  0.00  0.00    +0.000 C 
BRANCH  31  32
ATOM     32  C   UNL     1     -37.600  41.419 -13.166  0.00  0.00    +0.000 C 
ATOM     33  C   UNL     1     -37.649  40.593 -14.036  0.00  0.00    +0.000 C 
BRANCH  33  34
ATOM     34  C   UNL     1     -37.710  39.538 -15.146  0.00  0.00    +0.000 C 
ATOM     35  C   UNL     1     -37.769  38.485 -16.255  0.00  0.00    +0.000 C 
BRANCH  35  36
ATOM     36  C   UNL     1     -37.828  37.429 -17.364  0.00  0.00    +0.000 C 
ATOM     37  C   UNL     1     -37.887  36.374 -18.472  0.00  0.00    +0.000 C 
ATOM     38  C   UNL     1     -37.948  35.317 -19.580  0.00  0.00    +0.000 C 
ENDBRANCH  35  36
ENDBRANCH  33  34
ENDBRANCH  31  32
ENDBRANCH  17  30
BRANCH  16  39
ATOM     39  O   UNL     1     -39.788  46.393  -6.973  0.00  0.00    +0.000 OA
BRANCH  39  41
ATOM     40  O   UNL     1     -38.757  47.478  -5.229  0.00  0.00    +0.000 OA
ATOM     41  C   UNL     1     -39.401  47.495  -6.264  0.00  0.00    +0.000 C 
BRANCH  41  42
ATOM     42  C   UNL     1     -39.913  48.720  -6.904  0.00  0.00    +0.000 A 
ATOM     43  C   UNL     1     -39.060  49.759  -7.277  0.00  0.00    +0.000 A 
ATOM     44  C   UNL     1     -41.284  48.822  -7.133  0.00  0.00    +0.000 A 
ATOM     45  C   UNL     1     -39.582  50.901  -7.881  0.00  0.00    +0.000 A 
ATOM     46  C   UNL     1     -41.803  49.964  -7.737  0.00  0.00    +0.000 A 
ATOM     47  C   UNL     1     -40.952  51.003  -8.110  0.00  0.00    +0.000 A 
ENDBRANCH  41  42
ENDBRANCH  39  41
ENDBRANCH  16  39
BRANCH   9  48
ATOM     48  C   UNL     1     -32.433  47.255  -7.918  0.00  0.00    +0.000 C 
BRANCH  48  49
ATOM     49  O   UNL     1     -31.414  48.084  -8.127  0.00  0.00    +0.000 OA
ATOM     50  H   UNL     1     -31.684  48.815  -8.709  0.00  0.00    +0.000 HD
ENDBRANCH  48  49
ENDBRANCH   9  48
TORSDOF 12
ENDMDL
MODEL 2
REMARK VINA RESULT:      -5.6      8.940     12.094
REMARK  Name = 5358691_Yuanhuacine.pdbqt.pdb
REMARK  12 active torsions:
REMARK  status: ('A' for Active; 'I' for Inactive)
REMARK    1  A    between atoms: C_9  and  C_48
REMARK    2  A    between atoms: C_13  and  C_23
REMARK    3  A    between atoms: C_14  and  O_26
REMARK    4  A    between atoms: C_15  and  O_28
REMARK    5  A    between atoms: C_16  and  O_39
REMARK    6  A    between atoms: C_17  and  C_30
REMARK    7  A    between atoms: C_31  and  C_32
REMARK    8  A    between atoms: C_33  and  C_34
REMARK    9  A    between atoms: C_35  and  C_36
REMARK   10  A    between atoms: O_39  and  C_41
REMARK   11  A    between atoms: C_41  and  C_42
REMARK   12  A    between atoms: C_48  and  O_49
REMARK                            x       y       z     vdW  Elec       q    Type
REMARK                         _______ _______ _______ _____ _____    ______ ____
ROOT
ATOM      1  O   UNL     1     -36.407  44.923 -20.088  0.00  0.00    +0.000 OA
ATOM      2  O   UNL     1     -33.320  46.156 -18.987  0.00  0.00    +0.000 OA
ATOM      3  O   UNL     1     -33.881  44.051 -18.045  0.00  0.00    +0.000 OA
ATOM      4  O   UNL     1     -32.511  45.463 -16.867  0.00  0.00    +0.000 OA
ATOM      5  O   UNL     1     -37.332  49.964 -21.010  0.00  0.00    +0.000 OA
ATOM      6  C   UNL     1     -35.504  45.647 -18.047  0.00  0.00    +0.000 C 
ATOM      7  C   UNL     1     -34.563  46.765 -18.519  0.00  0.00    +0.000 C 
ATOM      8  C   UNL     1     -36.646  45.141 -18.755  0.00  0.00    +0.000 C 
ATOM      9  C   UNL     1     -37.580  45.674 -19.748  0.00  0.00    +0.000 C 
ATOM     10  C   UNL     1     -34.699  44.777 -17.181  0.00  0.00    +0.000 C 
ATOM     11  C   UNL     1     -35.135  47.537 -19.668  0.00  0.00    +0.000 C 
ATOM     12  C   UNL     1     -34.237  47.685 -17.305  0.00  0.00    +0.000 C 
ATOM     13  C   UNL     1     -33.779  45.483 -16.154  0.00  0.00    +0.000 C 
ATOM     14  C   UNL     1     -36.541  48.094 -19.618  0.00  0.00    +0.000 C 
ATOM     15  C   UNL     1     -37.636  47.141 -19.996  0.00  0.00    +0.000 C 
ATOM     16  C   UNL     1     -34.093  46.965 -16.050  0.00  0.00    +0.000 C 
ATOM     17  C   UNL     1     -32.857  45.042 -18.185  0.00  0.00    +0.000 C 
ATOM     18  C   UNL     1     -34.412  48.232 -20.672  0.00  0.00    +0.000 C 
ATOM     19  C   UNL     1     -33.841  49.161 -17.370  0.00  0.00    +0.000 C 
ATOM     20  C   UNL     1     -36.408  49.217 -20.700  0.00  0.00    +0.000 C 
ATOM     21  C   UNL     1     -35.023  49.197 -21.273  0.00  0.00    +0.000 C 
ATOM     22  C   UNL     1     -34.610  49.743 -22.601  0.00  0.00    +0.000 C 
ENDROOT
BRANCH  13  23
ATOM     23  C   UNL     1     -33.746  44.676 -14.835  0.00  0.00    +0.000 C 
ATOM     24  C   UNL     1     -32.601  44.731 -13.825  0.00  0.00    +0.000 C 
ATOM     25  C   UNL     1     -34.570  43.640 -14.575  0.00  0.00    +0.000 C 
ENDBRANCH  13  23
BRANCH  14  26
ATOM     26  O   UNL     1     -36.838  48.614 -18.340  0.00  0.00    +0.000 OA
ATOM     27  H   UNL     1     -36.508  47.972 -17.681  0.00  0.00    +0.000 HD
ENDBRANCH  14  26
BRANCH  15  28
ATOM     28  O   UNL     1     -38.838  47.703 -20.434  0.00  0.00    +0.000 OA
ATOM     29  H   UNL     1     -39.402  48.081 -19.725  0.00  0.00    +0.000 HD
ENDBRANCH  15  28
BRANCH  17  30
ATOM     30  C   UNL     1     -31.687  44.454 -18.829  0.00  0.00    +0.000 C 
ATOM     31  C   UNL     1     -30.725  43.968 -19.358  0.00  0.00    +0.000 C 
BRANCH  31  32
ATOM     32  C   UNL     1     -29.499  43.348 -20.033  0.00  0.00    +0.000 C 
ATOM     33  C   UNL     1     -28.538  42.861 -20.563  0.00  0.00    +0.000 C 
BRANCH  33  34
ATOM     34  C   UNL     1     -27.313  42.240 -21.241  0.00  0.00    +0.000 C 
ATOM     35  C   UNL     1     -26.088  41.620 -21.918  0.00  0.00    +0.000 C 
BRANCH  35  36
ATOM     36  C   UNL     1     -24.861  40.999 -22.595  0.00  0.00    +0.000 C 
ATOM     37  C   UNL     1     -23.636  40.378 -23.272  0.00  0.00    +0.000 C 
ATOM     38  C   UNL     1     -22.410  39.758 -23.951  0.00  0.00    +0.000 C 
ENDBRANCH  35  36
ENDBRANCH  33  34
ENDBRANCH  31  32
ENDBRANCH  17  30
BRANCH  16  39
ATOM     39  O   UNL     1     -34.207  47.692 -14.853  0.00  0.00    +0.000 OA
BRANCH  39  41
ATOM     40  O   UNL     1     -35.928  49.211 -14.736  0.00  0.00    +0.000 OA
ATOM     41  C   UNL     1     -35.480  48.091 -14.558  0.00  0.00    +0.000 C 
BRANCH  41  42
ATOM     42  C   UNL     1     -36.235  46.983 -13.945  0.00  0.00    +0.000 A 
ATOM     43  C   UNL     1     -37.252  46.324 -14.635  0.00  0.00    +0.000 A 
ATOM     44  C   UNL     1     -35.907  46.600 -12.646  0.00  0.00    +0.000 A 
ATOM     45  C   UNL     1     -37.941  45.280 -14.023  0.00  0.00    +0.000 A 
ATOM     46  C   UNL     1     -36.597  45.556 -12.036  0.00  0.00    +0.000 A 
ATOM     47  C   UNL     1     -37.614  44.897 -12.725  0.00  0.00    +0.000 A 
ENDBRANCH  41  42
ENDBRANCH  39  41
ENDBRANCH  16  39
BRANCH   9  48
ATOM     48  C   UNL     1     -38.769  44.892 -20.057  0.00  0.00    +0.000 C 
BRANCH  48  49
ATOM     49  O   UNL     1     -39.859  44.183 -20.337  0.00  0.00    +0.000 OA
ATOM     50  H   UNL     1     -39.993  43.487 -19.671  0.00  0.00    +0.000 HD
ENDBRANCH  48  49
ENDBRANCH   9  48
TORSDOF 12
ENDMDL
MODEL 3
REMARK VINA RESULT:      -5.6     17.841     22.621
REMARK  Name = 5358691_Yuanhuacine.pdbqt.pdb
REMARK  12 active torsions:
REMARK  status: ('A' for Active; 'I' for Inactive)
REMARK    1  A    between atoms: C_9  and  C_48
REMARK    2  A    between atoms: C_13  and  C_23
REMARK    3  A    between atoms: C_14  and  O_26
REMARK    4  A    between atoms: C_15  and  O_28
REMARK    5  A    between atoms: C_16  and  O_39
REMARK    6  A    between atoms: C_17  and  C_30
REMARK    7  A    between atoms: C_31  and  C_32
REMARK    8  A    between atoms: C_33  and  C_34
REMARK    9  A    between atoms: C_35  and  C_36
REMARK   10  A    between atoms: O_39  and  C_41
REMARK   11  A    between atoms: C_41  and  C_42
REMARK   12  A    between atoms: C_48  and  O_49
REMARK                            x       y       z     vdW  Elec       q    Type
REMARK                         _______ _______ _______ _____ _____    ______ ____
ROOT
ATOM      1  O   UNL     1     -20.513  38.548   0.588  0.00  0.00    +0.000 OA
ATOM      2  O   UNL     1     -17.679  38.662  -1.465  0.00  0.00    +0.000 OA
ATOM      3  O   UNL     1     -19.483  39.970  -2.281  0.00  0.00    +0.000 OA
ATOM      4  O   UNL     1     -17.967  39.119  -3.775  0.00  0.00    +0.000 OA
ATOM      5  O   UNL     1     -18.396  34.043   2.117  0.00  0.00    +0.000 OA
ATOM      6  C   UNL     1     -19.969  37.858  -1.588  0.00  0.00    +0.000 C 
ATOM      7  C   UNL     1     -18.498  37.454  -1.412  0.00  0.00    +0.000 C 
ATOM      8  C   UNL     1     -20.961  37.930  -0.552  0.00  0.00    +0.000 C 
ATOM      9  C   UNL     1     -21.168  37.281   0.744  0.00  0.00    +0.000 C 
ATOM     10  C   UNL     1     -20.007  38.764  -2.742  0.00  0.00    +0.000 C 
ATOM     11  C   UNL     1     -18.245  36.807  -0.084  0.00  0.00    +0.000 C 
ATOM     12  C   UNL     1     -18.092  36.528  -2.598  0.00  0.00    +0.000 C 
ATOM     13  C   UNL     1     -19.180  38.341  -3.981  0.00  0.00    +0.000 C 
ATOM     14  C   UNL     1     -19.108  35.669   0.412  0.00  0.00    +0.000 C 
ATOM     15  C   UNL     1     -20.385  36.065   1.093  0.00  0.00    +0.000 C 
ATOM     16  C   UNL     1     -18.695  36.907  -3.865  0.00  0.00    +0.000 C 
ATOM     17  C   UNL     1     -18.102  39.634  -2.452  0.00  0.00    +0.000 C 
ATOM     18  C   UNL     1     -17.023  36.792   0.636  0.00  0.00    +0.000 C 
ATOM     19  C   UNL     1     -16.989  35.469  -2.580  0.00  0.00    +0.000 C 
ATOM     20  C   UNL     1     -18.121  35.034   1.446  0.00  0.00    +0.000 C 
ATOM     21  C   UNL     1     -16.851  35.831   1.480  0.00  0.00    +0.000 C 
ATOM     22  C   UNL     1     -15.868  35.877   2.604  0.00  0.00    +0.000 C 
ENDROOT
BRANCH  13  23
ATOM     23  C   UNL     1     -19.935  38.727  -5.274  0.00  0.00    +0.000 C 
ATOM     24  C   UNL     1     -19.256  38.980  -6.620  0.00  0.00    +0.000 C 
ATOM     25  C   UNL     1     -21.214  39.156  -5.291  0.00  0.00    +0.000 C 
ENDBRANCH  13  23
BRANCH  14  26
ATOM     26  O   UNL     1     -19.432  34.780  -0.636  0.00  0.00    +0.000 OA
ATOM     27  H   UNL     1     -18.599  34.359  -0.927  0.00  0.00    +0.000 HD
ENDBRANCH  14  26
BRANCH  15  28
ATOM     28  O   UNL     1     -20.946  35.133   1.971  0.00  0.00    +0.000 OA
ATOM     29  H   UNL     1     -20.577  34.226   1.904  0.00  0.00    +0.000 HD
ENDBRANCH  15  28
BRANCH  17  30
ATOM     30  C   UNL     1     -17.282  40.833  -2.314  0.00  0.00    +0.000 C 
ATOM     31  C   UNL     1     -16.609  41.820  -2.200  0.00  0.00    +0.000 C 
BRANCH  31  32
ATOM     32  C   UNL     1     -15.752  43.081  -2.054  0.00  0.00    +0.000 C 
ATOM     33  C   UNL     1     -15.080  44.069  -1.940  0.00  0.00    +0.000 C 
BRANCH  33  34
ATOM     34  C   UNL     1     -14.222  45.330  -1.797  0.00  0.00    +0.000 C 
ATOM     35  C   UNL     1     -13.366  46.591  -1.655  0.00  0.00    +0.000 C 
BRANCH  35  36
ATOM     36  C   UNL     1     -12.510  47.854  -1.512  0.00  0.00    +0.000 C 
ATOM     37  C   UNL     1     -11.655  49.117  -1.370  0.00  0.00    +0.000 C 
ATOM     38  C   UNL     1     -10.800  50.380  -1.228  0.00  0.00    +0.000 C 
ENDBRANCH  35  36
ENDBRANCH  33  34
ENDBRANCH  31  32
ENDBRANCH  17  30
BRANCH  16  39
ATOM     39  O   UNL     1     -18.740  35.946  -4.889  0.00  0.00    +0.000 OA
BRANCH  39  41
ATOM     40  O   UNL     1     -19.113  33.727  -4.419  0.00  0.00    +0.000 OA
ATOM     41  C   UNL     1     -19.520  34.861  -4.607  0.00  0.00    +0.000 C 
BRANCH  41  42
ATOM     42  C   UNL     1     -20.944  35.241  -4.603  0.00  0.00    +0.000 A 
ATOM     43  C   UNL     1     -21.667  35.353  -3.415  0.00  0.00    +0.000 A 
ATOM     44  C   UNL     1     -21.564  35.493  -5.826  0.00  0.00    +0.000 A 
ATOM     45  C   UNL     1     -23.011  35.717  -3.452  0.00  0.00    +0.000 A 
ATOM     46  C   UNL     1     -22.907  35.857  -5.860  0.00  0.00    +0.000 A 
ATOM     47  C   UNL     1     -23.630  35.968  -4.674  0.00  0.00    +0.000 A 
ENDBRANCH  41  42
ENDBRANCH  39  41
ENDBRANCH  16  39
BRANCH   9  48
ATOM     48  C   UNL     1     -22.451  37.471   1.406  0.00  0.00    +0.000 C 
BRANCH  48  49
ATOM     49  O   UNL     1     -23.624  37.638   2.010  0.00  0.00    +0.000 OA
ATOM     50  H   UNL     1     -23.495  37.911   2.935  0.00  0.00    +0.000 HD
ENDBRANCH  48  49
ENDBRANCH   9  48
TORSDOF 12
ENDMDL
MODEL 4
REMARK VINA RESULT:      -5.5     21.257     25.969
REMARK  Name = 5358691_Yuanhuacine.pdbqt.pdb
REMARK  12 active torsions:
REMARK  status: ('A' for Active; 'I' for Inactive)
REMARK    1  A    between atoms: C_9  and  C_48
REMARK    2  A    between atoms: C_13  and  C_23
REMARK    3  A    between atoms: C_14  and  O_26
REMARK    4  A    between atoms: C_15  and  O_28
REMARK    5  A    between atoms: C_16  and  O_39
REMARK    6  A    between atoms: C_17  and  C_30
REMARK    7  A    between atoms: C_31  and  C_32
REMARK    8  A    between atoms: C_33  and  C_34
REMARK    9  A    between atoms: C_35  and  C_36
REMARK   10  A    between atoms: O_39  and  C_41
REMARK   11  A    between atoms: C_41  and  C_42
REMARK   12  A    between atoms: C_48  and  O_49
REMARK                            x       y       z     vdW  Elec       q    Type
REMARK                         _______ _______ _______ _____ _____    ______ ____
ROOT
ATOM      1  O   UNL     1     -16.889  42.101  -1.465  0.00  0.00    +0.000 OA
ATOM      2  O   UNL     1     -14.318  44.014  -0.055  0.00  0.00    +0.000 OA
ATOM      3  O   UNL     1     -15.816  45.288  -1.383  0.00  0.00    +0.000 OA
ATOM      4  O   UNL     1     -13.652  46.008  -1.154  0.00  0.00    +0.000 OA
ATOM      5  O   UNL     1     -13.474  38.230  -0.777  0.00  0.00    +0.000 OA
ATOM      6  C   UNL     1     -15.060  43.332  -2.267  0.00  0.00    +0.000 C 
ATOM      7  C   UNL     1     -14.031  43.094  -1.152  0.00  0.00    +0.000 C 
ATOM      8  C   UNL     1     -16.188  42.499  -2.575  0.00  0.00    +0.000 C 
ATOM      9  C   UNL     1     -16.519  41.083  -2.404  0.00  0.00    +0.000 C 
ATOM     10  C   UNL     1     -15.108  44.785  -2.473  0.00  0.00    +0.000 C 
ATOM     11  C   UNL     1     -14.112  41.705  -0.596  0.00  0.00    +0.000 C 
ATOM     12  C   UNL     1     -12.612  43.416  -1.710  0.00  0.00    +0.000 C 
ATOM     13  C   UNL     1     -13.747  45.521  -2.523  0.00  0.00    +0.000 C 
ATOM     14  C   UNL     1     -14.113  40.495  -1.503  0.00  0.00    +0.000 C 
ATOM     15  C   UNL     1     -15.444  40.108  -2.077  0.00  0.00    +0.000 C 
ATOM     16  C   UNL     1     -12.587  44.546  -2.624  0.00  0.00    +0.000 C 
ATOM     17  C   UNL     1     -14.713  45.344  -0.472  0.00  0.00    +0.000 C 
ATOM     18  C   UNL     1     -13.746  41.289   0.710  0.00  0.00    +0.000 C 
ATOM     19  C   UNL     1     -11.291  42.826  -1.213  0.00  0.00    +0.000 C 
ATOM     20  C   UNL     1     -13.632  39.412  -0.480  0.00  0.00    +0.000 C 
ATOM     21  C   UNL     1     -13.433  40.046   0.864  0.00  0.00    +0.000 C 
ATOM     22  C   UNL     1     -13.444  39.343   2.181  0.00  0.00    +0.000 C 
ENDROOT
BRANCH  13  23
ATOM     23  C   UNL     1     -13.803  46.660  -3.568  0.00  0.00    +0.000 C 
ATOM     24  C   UNL     1     -12.914  47.902  -3.532  0.00  0.00    +0.000 C 
ATOM     25  C   UNL     1     -14.817  46.818  -4.444  0.00  0.00    +0.000 C 
ENDBRANCH  13  23
BRANCH  14  26
ATOM     26  O   UNL     1     -13.208  40.659  -2.574  0.00  0.00    +0.000 OA
ATOM     27  H   UNL     1     -13.470  40.030  -3.275  0.00  0.00    +0.000 HD
ENDBRANCH  14  26
BRANCH  15  28
ATOM     28  O   UNL     1     -15.591  38.781  -2.489  0.00  0.00    +0.000 OA
ATOM     29  H   UNL     1     -16.321  38.623  -3.125  0.00  0.00    +0.000 HD
ENDBRANCH  15  28
BRANCH  17  30
ATOM     30  C   UNL     1     -15.088  46.115   0.709  0.00  0.00    +0.000 C 
ATOM     31  C   UNL     1     -15.396  46.752   1.679  0.00  0.00    +0.000 C 
BRANCH  31  32
ATOM     32  C   UNL     1     -15.790  47.564   2.915  0.00  0.00    +0.000 C 
ATOM     33  C   UNL     1     -16.098  48.201   3.885  0.00  0.00    +0.000 C 
BRANCH  33  34
ATOM     34  C   UNL     1     -16.489  49.014   5.123  0.00  0.00    +0.000 C 
ATOM     35  C   UNL     1     -16.880  49.827   6.360  0.00  0.00    +0.000 C 
BRANCH  35  36
ATOM     36  C   UNL     1     -17.273  50.640   7.598  0.00  0.00    +0.000 C 
ATOM     37  C   UNL     1     -17.666  51.453   8.835  0.00  0.00    +0.000 C 
ATOM     38  C   UNL     1     -18.061  52.265  10.073  0.00  0.00    +0.000 C 
ENDBRANCH  35  36
ENDBRANCH  33  34
ENDBRANCH  31  32
ENDBRANCH  17  30
BRANCH  16  39
ATOM     39  O   UNL     1     -11.486  44.675  -3.487  0.00  0.00    +0.000 OA
BRANCH  39  41
ATOM     40  O   UNL     1     -11.436  42.747  -4.736  0.00  0.00    +0.000 OA
ATOM     41  C   UNL     1     -11.589  43.953  -4.641  0.00  0.00    +0.000 C 
BRANCH  41  42
ATOM     42  C   UNL     1     -11.872  44.845  -5.780  0.00  0.00    +0.000 A 
ATOM     43  C   UNL     1     -12.896  44.571  -6.685  0.00  0.00    +0.000 A 
ATOM     44  C   UNL     1     -11.085  45.985  -5.936  0.00  0.00    +0.000 A 
ATOM     45  C   UNL     1     -13.134  45.439  -7.748  0.00  0.00    +0.000 A 
ATOM     46  C   UNL     1     -11.324  46.852  -6.999  0.00  0.00    +0.000 A 
ATOM     47  C   UNL     1     -12.348  46.579  -7.904  0.00  0.00    +0.000 A 
ENDBRANCH  41  42
ENDBRANCH  39  41
ENDBRANCH  16  39
BRANCH   9  48
ATOM     48  C   UNL     1     -17.710  40.575  -3.071  0.00  0.00    +0.000 C 
BRANCH  48  49
ATOM     49  O   UNL     1     -18.800  40.108  -3.674  0.00  0.00    +0.000 OA
ATOM     50  H   UNL     1     -18.663  40.061  -4.636  0.00  0.00    +0.000 HD
ENDBRANCH  48  49
ENDBRANCH   9  48
TORSDOF 12
ENDMDL
MODEL 5
REMARK VINA RESULT:      -5.5      3.638      4.475
REMARK  Name = 5358691_Yuanhuacine.pdbqt.pdb
REMARK  12 active torsions:
REMARK  status: ('A' for Active; 'I' for Inactive)
REMARK    1  A    between atoms: C_9  and  C_48
REMARK    2  A    between atoms: C_13  and  C_23
REMARK    3  A    between atoms: C_14  and  O_26
REMARK    4  A    between atoms: C_15  and  O_28
REMARK    5  A    between atoms: C_16  and  O_39
REMARK    6  A    between atoms: C_17  and  C_30
REMARK    7  A    between atoms: C_31  and  C_32
REMARK    8  A    between atoms: C_33  and  C_34
REMARK    9  A    between atoms: C_35  and  C_36
REMARK   10  A    between atoms: O_39  and  C_41
REMARK   11  A    between atoms: C_41  and  C_42
REMARK   12  A    between atoms: C_48  and  O_49
REMARK                            x       y       z     vdW  Elec       q    Type
REMARK                         _______ _______ _______ _____ _____    ______ ____
ROOT
ATOM      1  O   UNL     1     -33.222  43.681  -6.333  0.00  0.00    +0.000 OA
ATOM      2  O   UNL     1     -35.250  43.055  -9.117  0.00  0.00    +0.000 OA
ATOM      3  O   UNL     1     -34.513  45.307  -8.979  0.00  0.00    +0.000 OA
ATOM      4  O   UNL     1     -36.491  44.852 -10.045  0.00  0.00    +0.000 OA
ATOM      5  O   UNL     1     -35.689  39.503  -4.440  0.00  0.00    +0.000 OA
ATOM      6  C   UNL     1     -35.337  44.371  -7.075  0.00  0.00    +0.000 C 
ATOM      7  C   UNL     1     -35.834  43.100  -7.779  0.00  0.00    +0.000 C 
ATOM      8  C   UNL     1     -34.330  44.440  -6.054  0.00  0.00    +0.000 C 
ATOM      9  C   UNL     1     -33.812  43.526  -5.035  0.00  0.00    +0.000 C 
ATOM     10  C   UNL     1     -35.526  45.467  -8.034  0.00  0.00    +0.000 C 
ATOM     11  C   UNL     1     -35.401  41.854  -7.068  0.00  0.00    +0.000 C 
ATOM     12  C   UNL     1     -37.384  43.182  -7.918  0.00  0.00    +0.000 C 
ATOM     13  C   UNL     1     -36.872  45.495  -8.797  0.00  0.00    +0.000 C 
ATOM     14  C   UNL     1     -35.617  41.684  -5.581  0.00  0.00    +0.000 C 
ATOM     15  C   UNL     1     -34.572  42.293  -4.693  0.00  0.00    +0.000 C 
ATOM     16  C   UNL     1     -37.874  44.522  -8.199  0.00  0.00    +0.000 C 
ATOM     17  C   UNL     1     -35.186  44.337  -9.789  0.00  0.00    +0.000 C 
ATOM     18  C   UNL     1     -35.196  40.573  -7.642  0.00  0.00    +0.000 C 
ATOM     19  C   UNL     1     -38.346  41.998  -8.017  0.00  0.00    +0.000 C 
ATOM     20  C   UNL     1     -35.555  40.123  -5.492  0.00  0.00    +0.000 C 
ATOM     21  C   UNL     1     -35.294  39.555  -6.855  0.00  0.00    +0.000 C 
ATOM     22  C   UNL     1     -34.709  38.214  -7.155  0.00  0.00    +0.000 C 
ENDROOT
BRANCH  13  23
ATOM     23  C   UNL     1     -37.339  46.957  -8.986  0.00  0.00    +0.000 C 
ATOM     24  C   UNL     1     -38.105  47.461 -10.208  0.00  0.00    +0.000 C 
ATOM     25  C   UNL     1     -36.881  47.988  -8.245  0.00  0.00    +0.000 C 
ENDBRANCH  13  23
BRANCH  14  26
ATOM     26  O   UNL     1     -36.874  42.193  -5.186  0.00  0.00    +0.000 OA
ATOM     27  H   UNL     1     -37.180  41.655  -4.430  0.00  0.00    +0.000 HD
ENDBRANCH  14  26
BRANCH  15  28
ATOM     28  O   UNL     1     -34.454  41.765  -3.405  0.00  0.00    +0.000 OA
ATOM     29  H   UNL     1     -34.481  42.427  -2.682  0.00  0.00    +0.000 HD
ENDBRANCH  15  28
BRANCH  17  30
ATOM     30  C   UNL     1     -34.474  44.171 -11.052  0.00  0.00    +0.000 C 
ATOM     31  C   UNL     1     -33.888  44.033 -12.091  0.00  0.00    +0.000 C 
BRANCH  31  32
ATOM     32  C   UNL     1     -33.141  43.855 -13.415  0.00  0.00    +0.000 C 
ATOM     33  C   UNL     1     -32.556  43.714 -14.454  0.00  0.00    +0.000 C 
BRANCH  33  34
ATOM     34  C   UNL     1     -31.808  43.533 -15.778  0.00  0.00    +0.000 C 
ATOM     35  C   UNL     1     -31.061  43.350 -17.101  0.00  0.00    +0.000 C 
BRANCH  35  36
ATOM     36  C   UNL     1     -30.314  43.167 -18.427  0.00  0.00    +0.000 C 
ATOM     37  C   UNL     1     -29.568  42.983 -19.752  0.00  0.00    +0.000 C 
ATOM     38  C   UNL     1     -28.823  42.798 -21.078  0.00  0.00    +0.000 C 
ENDBRANCH  35  36
ENDBRANCH  33  34
ENDBRANCH  31  32
ENDBRANCH  17  30
BRANCH  16  39
ATOM     39  O   UNL     1     -39.227  44.798  -7.943  0.00  0.00    +0.000 OA
BRANCH  39  41
ATOM     40  O   UNL     1     -39.629  44.191  -5.764  0.00  0.00    +0.000 OA
ATOM     41  C   UNL     1     -39.513  45.041  -6.630  0.00  0.00    +0.000 C 
BRANCH  41  42
ATOM     42  C   UNL     1     -39.708  46.485  -6.407  0.00  0.00    +0.000 A 
ATOM     43  C   UNL     1     -40.504  47.254  -7.257  0.00  0.00    +0.000 A 
ATOM     44  C   UNL     1     -39.075  47.076  -5.315  0.00  0.00    +0.000 A 
ATOM     45  C   UNL     1     -40.666  48.615  -7.012  0.00  0.00    +0.000 A 
ATOM     46  C   UNL     1     -39.239  48.437  -5.072  0.00  0.00    +0.000 A 
ATOM     47  C   UNL     1     -40.034  49.206  -5.920  0.00  0.00    +0.000 A 
ENDBRANCH  41  42
ENDBRANCH  39  41
ENDBRANCH  16  39
BRANCH   9  48
ATOM     48  C   UNL     1     -32.917  44.069  -4.022  0.00  0.00    +0.000 C 
BRANCH  48  49
ATOM     49  O   UNL     1     -32.096  44.560  -3.098  0.00  0.00    +0.000 OA
ATOM     50  H   UNL     1     -32.594  44.818  -2.303  0.00  0.00    +0.000 HD
ENDBRANCH  48  49
ENDBRANCH   9  48
TORSDOF 12
ENDMDL
MODEL 6
REMARK VINA RESULT:      -5.5     26.722     31.000
REMARK  Name = 5358691_Yuanhuacine.pdbqt.pdb
REMARK  12 active torsions:
REMARK  status: ('A' for Active; 'I' for Inactive)
REMARK    1  A    between atoms: C_9  and  C_48
REMARK    2  A    between atoms: C_13  and  C_23
REMARK    3  A    between atoms: C_14  and  O_26
REMARK    4  A    between atoms: C_15  and  O_28
REMARK    5  A    between atoms: C_16  and  O_39
REMARK    6  A    between atoms: C_17  and  C_30
REMARK    7  A    between atoms: C_31  and  C_32
REMARK    8  A    between atoms: C_33  and  C_34
REMARK    9  A    between atoms: C_35  and  C_36
REMARK   10  A    between atoms: O_39  and  C_41
REMARK   11  A    between atoms: C_41  and  C_42
REMARK   12  A    between atoms: C_48  and  O_49
REMARK                            x       y       z     vdW  Elec       q    Type
REMARK                         _______ _______ _______ _____ _____    ______ ____
ROOT
ATOM      1  O   UNL     1     -13.291  57.290 -27.826  0.00  0.00    +0.000 OA
ATOM      2  O   UNL     1     -16.121  56.308 -26.014  0.00  0.00    +0.000 OA
ATOM      3  O   UNL     1     -14.515  54.578 -26.257  0.00  0.00    +0.000 OA
ATOM      4  O   UNL     1     -16.722  54.012 -26.000  0.00  0.00    +0.000 OA
ATOM      5  O   UNL     1     -16.582  60.840 -29.746  0.00  0.00    +0.000 OA
ATOM      6  C   UNL     1     -15.047  55.763 -28.125  0.00  0.00    +0.000 C 
ATOM      7  C   UNL     1     -16.209  56.513 -27.457  0.00  0.00    +0.000 C 
ATOM      8  C   UNL     1     -13.849  56.350 -28.656  0.00  0.00    +0.000 C 
ATOM      9  C   UNL     1     -13.479  57.658 -29.200  0.00  0.00    +0.000 C 
ATOM     10  C   UNL     1     -15.040  54.418 -27.538  0.00  0.00    +0.000 C 
ATOM     11  C   UNL     1     -16.141  57.990 -27.698  0.00  0.00    +0.000 C 
ATOM     12  C   UNL     1     -17.551  55.902 -27.963  0.00  0.00    +0.000 C 
ATOM     13  C   UNL     1     -16.414  53.719 -27.392  0.00  0.00    +0.000 C 
ATOM     14  C   UNL     1     -15.957  58.551 -29.090  0.00  0.00    +0.000 C 
ATOM     15  C   UNL     1     -14.542  58.625 -29.584  0.00  0.00    +0.000 C 
ATOM     16  C   UNL     1     -17.501  54.461 -28.150  0.00  0.00    +0.000 C 
ATOM     17  C   UNL     1     -15.736  54.969 -25.618  0.00  0.00    +0.000 C 
ATOM     18  C   UNL     1     -16.664  59.013 -26.866  0.00  0.00    +0.000 C 
ATOM     19  C   UNL     1     -18.898  56.621 -28.040  0.00  0.00    +0.000 C 
ATOM     20  C   UNL     1     -16.522  59.992 -28.860  0.00  0.00    +0.000 C 
ATOM     21  C   UNL     1     -16.936  60.143 -27.427  0.00  0.00    +0.000 C 
ATOM     22  C   UNL     1     -17.076  61.429 -26.680  0.00  0.00    +0.000 C 
ENDROOT
BRANCH  13  23
ATOM     23  C   UNL     1     -16.267  52.205 -27.674  0.00  0.00    +0.000 C 
ATOM     24  C   UNL     1     -17.018  51.115 -26.912  0.00  0.00    +0.000 C 
ATOM     25  C   UNL     1     -15.268  51.678 -28.411  0.00  0.00    +0.000 C 
ENDBRANCH  13  23
BRANCH  14  26
ATOM     26  O   UNL     1     -16.711  57.824 -30.037  0.00  0.00    +0.000 OA
ATOM     27  H   UNL     1     -17.402  58.425 -30.380  0.00  0.00    +0.000 HD
ENDBRANCH  14  26
BRANCH  15  28
ATOM     28  O   UNL     1     -14.276  59.548 -30.599  0.00  0.00    +0.000 OA
ATOM     29  H   UNL     1     -13.537  59.305 -31.197  0.00  0.00    +0.000 HD
ENDBRANCH  15  28
BRANCH  17  30
ATOM     30  C   UNL     1     -15.566  54.937 -24.169  0.00  0.00    +0.000 C 
ATOM     31  C   UNL     1     -15.424  54.912 -22.977  0.00  0.00    +0.000 C 
BRANCH  31  32
ATOM     32  C   UNL     1     -15.243  54.882 -21.457  0.00  0.00    +0.000 C 
ATOM     33  C   UNL     1     -15.103  54.858 -20.265  0.00  0.00    +0.000 C 
BRANCH  33  34
ATOM     34  C   UNL     1     -14.925  54.830 -18.744  0.00  0.00    +0.000 C 
ATOM     35  C   UNL     1     -14.746  54.800 -17.224  0.00  0.00    +0.000 C 
BRANCH  35  36
ATOM     36  C   UNL     1     -14.566  54.771 -15.702  0.00  0.00    +0.000 C 
ATOM     37  C   UNL     1     -14.387  54.744 -14.182  0.00  0.00    +0.000 C 
ATOM     38  C   UNL     1     -14.208  54.717 -12.660  0.00  0.00    +0.000 C 
ENDBRANCH  35  36
ENDBRANCH  33  34
ENDBRANCH  31  32
ENDBRANCH  17  30
BRANCH  16  39
ATOM     39  O   UNL     1     -18.477  53.866 -28.968  0.00  0.00    +0.000 OA
BRANCH  39  41
ATOM     40  O   UNL     1     -17.027  53.668 -30.740  0.00  0.00    +0.000 OA
ATOM     41  C   UNL     1     -18.150  53.827 -30.293  0.00  0.00    +0.000 C 
BRANCH  41  42
ATOM     42  C   UNL     1     -19.348  54.051 -31.122  0.00  0.00    +0.000 A 
ATOM     43  C   UNL     1     -19.716  55.328 -31.544  0.00  0.00    +0.000 A 
ATOM     44  C   UNL     1     -20.117  52.945 -31.484  0.00  0.00    +0.000 A 
ATOM     45  C   UNL     1     -20.855  55.499 -32.328  0.00  0.00    +0.000 A 
ATOM     46  C   UNL     1     -21.254  53.118 -32.268  0.00  0.00    +0.000 A 
ATOM     47  C   UNL     1     -21.622  54.394 -32.689  0.00  0.00    +0.000 A 
ENDBRANCH  41  42
ENDBRANCH  39  41
ENDBRANCH  16  39
BRANCH   9  48
ATOM     48  C   UNL     1     -12.184  57.783 -29.854  0.00  0.00    +0.000 C 
BRANCH  48  49
ATOM     49  O   UNL     1     -10.998  57.896 -30.447  0.00  0.00    +0.000 OA
ATOM     50  H   UNL     1     -10.500  58.644 -30.073  0.00  0.00    +0.000 HD
ENDBRANCH  48  49
ENDBRANCH   9  48
TORSDOF 12
ENDMDL
MODEL 7
REMARK VINA RESULT:      -5.5      4.250      8.221
REMARK  Name = 5358691_Yuanhuacine.pdbqt.pdb
REMARK  12 active torsions:
REMARK  status: ('A' for Active; 'I' for Inactive)
REMARK    1  A    between atoms: C_9  and  C_48
REMARK    2  A    between atoms: C_13  and  C_23
REMARK    3  A    between atoms: C_14  and  O_26
REMARK    4  A    between atoms: C_15  and  O_28
REMARK    5  A    between atoms: C_16  and  O_39
REMARK    6  A    between atoms: C_17  and  C_30
REMARK    7  A    between atoms: C_31  and  C_32
REMARK    8  A    between atoms: C_33  and  C_34
REMARK    9  A    between atoms: C_35  and  C_36
REMARK   10  A    between atoms: O_39  and  C_41
REMARK   11  A    between atoms: C_41  and  C_42
REMARK   12  A    between atoms: C_48  and  O_49
REMARK                            x       y       z     vdW  Elec       q    Type
REMARK                         _______ _______ _______ _____ _____    ______ ____
ROOT
ATOM      1  O   UNL     1     -39.762  44.896 -10.333  0.00  0.00    +0.000 OA
ATOM      2  O   UNL     1     -36.991  46.850 -11.208  0.00  0.00    +0.000 OA
ATOM      3  O   UNL     1     -37.290  44.961 -12.613  0.00  0.00    +0.000 OA
ATOM      4  O   UNL     1     -35.179  45.812 -12.335  0.00  0.00    +0.000 OA
ATOM      5  O   UNL     1     -39.017  47.124  -5.685  0.00  0.00    +0.000 OA
ATOM      6  C   UNL     1     -37.434  44.612 -10.369  0.00  0.00    +0.000 C 
ATOM      7  C   UNL     1     -36.956  46.025 -10.003  0.00  0.00    +0.000 C 
ATOM      8  C   UNL     1     -38.719  44.045 -10.072  0.00  0.00    +0.000 C 
ATOM      9  C   UNL     1     -39.744  44.258  -9.049  0.00  0.00    +0.000 C 
ATOM     10  C   UNL     1     -36.697  44.235 -11.582  0.00  0.00    +0.000 C 
ATOM     11  C   UNL     1     -37.850  46.680  -8.994  0.00  0.00    +0.000 C 
ATOM     12  C   UNL     1     -35.482  45.938  -9.505  0.00  0.00    +0.000 C 
ATOM     13  C   UNL     1     -35.183  44.556 -11.599  0.00  0.00    +0.000 C 
ATOM     14  C   UNL     1     -38.245  45.971  -7.718  0.00  0.00    +0.000 C 
ATOM     15  C   UNL     1     -39.413  45.035  -7.823  0.00  0.00    +0.000 C 
ATOM     16  C   UNL     1     -34.681  44.960 -10.224  0.00  0.00    +0.000 C 
ATOM     17  C   UNL     1     -36.556  46.174 -12.413  0.00  0.00    +0.000 C 
ATOM     18  C   UNL     1     -38.060  48.072  -8.819  0.00  0.00    +0.000 C 
ATOM     19  C   UNL     1     -34.794  46.910  -8.547  0.00  0.00    +0.000 C 
ATOM     20  C   UNL     1     -38.627  47.212  -6.846  0.00  0.00    +0.000 C 
ATOM     21  C   UNL     1     -38.458  48.463  -7.655  0.00  0.00    +0.000 C 
ATOM     22  C   UNL     1     -39.127  49.774  -7.403  0.00  0.00    +0.000 C 
ENDROOT
BRANCH  13  23
ATOM     23  C   UNL     1     -34.414  43.427 -12.325  0.00  0.00    +0.000 C 
ATOM     24  C   UNL     1     -33.217  43.659 -13.246  0.00  0.00    +0.000 C 
ATOM     25  C   UNL     1     -34.883  42.169 -12.452  0.00  0.00    +0.000 C 
ENDBRANCH  13  23
BRANCH  14  26
ATOM     26  O   UNL     1     -37.158  45.250  -7.177  0.00  0.00    +0.000 OA
ATOM     27  H   UNL     1     -36.840  44.639  -7.871  0.00  0.00    +0.000 HD
ENDBRANCH  14  26
BRANCH  15  28
ATOM     28  O   UNL     1     -40.104  44.754  -6.642  0.00  0.00    +0.000 OA
ATOM     29  H   UNL     1     -40.807  44.074  -6.725  0.00  0.00    +0.000 HD
ENDBRANCH  15  28
BRANCH  17  30
ATOM     30  C   UNL     1     -36.758  47.066 -13.551  0.00  0.00    +0.000 C 
ATOM     31  C   UNL     1     -36.922  47.799 -14.487  0.00  0.00    +0.000 C 
BRANCH  31  32
ATOM     32  C   UNL     1     -37.131  48.733 -15.682  0.00  0.00    +0.000 C 
ATOM     33  C   UNL     1     -37.294  49.465 -16.619  0.00  0.00    +0.000 C 
BRANCH  33  34
ATOM     34  C   UNL     1     -37.501  50.397 -17.817  0.00  0.00    +0.000 C 
ATOM     35  C   UNL     1     -37.707  51.328 -19.014  0.00  0.00    +0.000 C 
BRANCH  35  36
ATOM     36  C   UNL     1     -37.914  52.260 -20.214  0.00  0.00    +0.000 C 
ATOM     37  C   UNL     1     -38.120  53.189 -21.413  0.00  0.00    +0.000 C 
ATOM     38  C   UNL     1     -38.327  54.118 -22.614  0.00  0.00    +0.000 C 
ENDBRANCH  35  36
ENDBRANCH  33  34
ENDBRANCH  31  32
ENDBRANCH  17  30
BRANCH  16  39
ATOM     39  O   UNL     1     -33.497  44.503  -9.621  0.00  0.00    +0.000 OA
BRANCH  39  41
ATOM     40  O   UNL     1     -33.885  42.271  -9.239  0.00  0.00    +0.000 OA
ATOM     41  C   UNL     1     -33.657  43.398  -8.835  0.00  0.00    +0.000 C 
BRANCH  41  42
ATOM     42  C   UNL     1     -33.559  43.764  -7.410  0.00  0.00    +0.000 A 
ATOM     43  C   UNL     1     -34.388  43.185  -6.449  0.00  0.00    +0.000 A 
ATOM     44  C   UNL     1     -32.607  44.711  -7.036  0.00  0.00    +0.000 A 
ATOM     45  C   UNL     1     -34.263  43.556  -5.112  0.00  0.00    +0.000 A 
ATOM     46  C   UNL     1     -32.485  45.080  -5.699  0.00  0.00    +0.000 A 
ATOM     47  C   UNL     1     -33.312  44.503  -4.739  0.00  0.00    +0.000 A 
ENDBRANCH  41  42
ENDBRANCH  39  41
ENDBRANCH  16  39
BRANCH   9  48
ATOM     48  C   UNL     1     -40.835  43.297  -8.964  0.00  0.00    +0.000 C 
BRANCH  48  49
ATOM     49  O   UNL     1     -41.835  42.424  -8.883  0.00  0.00    +0.000 OA
ATOM     50  H   UNL     1     -42.418  42.643  -8.136  0.00  0.00    +0.000 HD
ENDBRANCH  48  49
ENDBRANCH   9  48
TORSDOF 12
ENDMDL
MODEL 8
REMARK VINA RESULT:      -5.4     28.496     32.237
REMARK  Name = 5358691_Yuanhuacine.pdbqt.pdb
REMARK  12 active torsions:
REMARK  status: ('A' for Active; 'I' for Inactive)
REMARK    1  A    between atoms: C_9  and  C_48
REMARK    2  A    between atoms: C_13  and  C_23
REMARK    3  A    between atoms: C_14  and  O_26
REMARK    4  A    between atoms: C_15  and  O_28
REMARK    5  A    between atoms: C_16  and  O_39
REMARK    6  A    between atoms: C_17  and  C_30
REMARK    7  A    between atoms: C_31  and  C_32
REMARK    8  A    between atoms: C_33  and  C_34
REMARK    9  A    between atoms: C_35  and  C_36
REMARK   10  A    between atoms: O_39  and  C_41
REMARK   11  A    between atoms: C_41  and  C_42
REMARK   12  A    between atoms: C_48  and  O_49
REMARK                            x       y       z     vdW  Elec       q    Type
REMARK                         _______ _______ _______ _____ _____    ______ ____
ROOT
ATOM      1  O   UNL     1     -19.110  51.003 -36.092  0.00  0.00    +0.000 OA
ATOM      2  O   UNL     1     -20.265  53.591 -34.035  0.00  0.00    +0.000 OA
ATOM      3  O   UNL     1     -20.966  51.439 -33.320  0.00  0.00    +0.000 OA
ATOM      4  O   UNL     1     -22.265  53.257 -32.802  0.00  0.00    +0.000 OA
ATOM      5  O   UNL     1     -18.816  54.834 -39.606  0.00  0.00    +0.000 OA
ATOM      6  C   UNL     1     -21.197  51.919 -35.533  0.00  0.00    +0.000 C 
ATOM      7  C   UNL     1     -20.835  53.402 -35.366  0.00  0.00    +0.000 C 
ATOM      8  C   UNL     1     -20.466  50.945 -36.294  0.00  0.00    +0.000 C 
ATOM      9  C   UNL     1     -19.569  50.982 -37.450  0.00  0.00    +0.000 C 
ATOM     10  C   UNL     1     -21.932  51.541 -34.320  0.00  0.00    +0.000 C 
ATOM     11  C   UNL     1     -19.801  53.846 -36.356  0.00  0.00    +0.000 C 
ATOM     12  C   UNL     1     -22.140  54.246 -35.470  0.00  0.00    +0.000 C 
ATOM     13  C   UNL     1     -23.009  52.537 -33.825  0.00  0.00    +0.000 C 
ATOM     14  C   UNL     1     -19.955  53.561 -37.833  0.00  0.00    +0.000 C 
ATOM     15  C   UNL     1     -19.498  52.208 -38.291  0.00  0.00    +0.000 C 
ATOM     16  C   UNL     1     -23.297  53.609 -34.862  0.00  0.00    +0.000 C 
ATOM     17  C   UNL     1     -20.916  52.831 -32.987  0.00  0.00    +0.000 C 
ATOM     18  C   UNL     1     -18.867  54.902 -36.196  0.00  0.00    +0.000 C 
ATOM     19  C   UNL     1     -22.239  55.705 -35.918  0.00  0.00    +0.000 C 
ATOM     20  C   UNL     1     -19.011  54.670 -38.405  0.00  0.00    +0.000 C 
ATOM     21  C   UNL     1     -18.401  55.441 -37.272  0.00  0.00    +0.000 C 
ATOM     22  C   UNL     1     -17.137  56.234 -37.324  0.00  0.00    +0.000 C 
ENDROOT
BRANCH  13  23
ATOM     23  C   UNL     1     -24.222  51.762 -33.259  0.00  0.00    +0.000 C 
ATOM     24  C   UNL     1     -24.980  52.162 -31.993  0.00  0.00    +0.000 C 
ATOM     25  C   UNL     1     -24.557  50.515 -33.648  0.00  0.00    +0.000 C 
ENDBRANCH  13  23
BRANCH  14  26
ATOM     26  O   UNL     1     -21.294  53.732 -38.249  0.00  0.00    +0.000 OA
ATOM     27  H   UNL     1     -21.477  53.049 -38.924  0.00  0.00    +0.000 HD
ENDBRANCH  14  26
BRANCH  15  28
ATOM     28  O   UNL     1     -19.162  52.079 -39.641  0.00  0.00    +0.000 OA
ATOM     29  H   UNL     1     -19.804  51.569 -40.181  0.00  0.00    +0.000 HD
ENDBRANCH  15  28
BRANCH  17  30
ATOM     30  C   UNL     1     -20.175  53.014 -31.743  0.00  0.00    +0.000 C 
ATOM     31  C   UNL     1     -19.568  53.165 -30.719  0.00  0.00    +0.000 C 
BRANCH  31  32
ATOM     32  C   UNL     1     -18.794  53.357 -29.412  0.00  0.00    +0.000 C 
ATOM     33  C   UNL     1     -18.188  53.508 -28.387  0.00  0.00    +0.000 C 
BRANCH  33  34
ATOM     34  C   UNL     1     -17.417  53.700 -27.077  0.00  0.00    +0.000 C 
ATOM     35  C   UNL     1     -16.647  53.893 -25.769  0.00  0.00    +0.000 C 
BRANCH  35  36
ATOM     36  C   UNL     1     -15.877  54.086 -24.458  0.00  0.00    +0.000 C 
ATOM     37  C   UNL     1     -15.108  54.281 -23.148  0.00  0.00    +0.000 C 
ATOM     38  C   UNL     1     -14.338  54.476 -21.837  0.00  0.00    +0.000 C 
ENDBRANCH  35  36
ENDBRANCH  33  34
ENDBRANCH  31  32
ENDBRANCH  17  30
BRANCH  16  39
ATOM     39  O   UNL     1     -24.574  54.058 -35.238  0.00  0.00    +0.000 OA
BRANCH  39  41
ATOM     40  O   UNL     1     -24.660  53.522 -37.471  0.00  0.00    +0.000 OA
ATOM     41  C   UNL     1     -25.090  53.428 -36.334  0.00  0.00    +0.000 C 
BRANCH  41  42
ATOM     42  C   UNL     1     -26.280  52.643 -35.960  0.00  0.00    +0.000 A 
ATOM     43  C   UNL     1     -27.164  53.083 -34.975  0.00  0.00    +0.000 A 
ATOM     44  C   UNL     1     -26.510  51.437 -36.619  0.00  0.00    +0.000 A 
ATOM     45  C   UNL     1     -28.280  52.313 -34.650  0.00  0.00    +0.000 A 
ATOM     46  C   UNL     1     -27.625  50.670 -36.293  0.00  0.00    +0.000 A 
ATOM     47  C   UNL     1     -28.509  51.108 -35.310  0.00  0.00    +0.000 A 
ENDBRANCH  41  42
ENDBRANCH  39  41
ENDBRANCH  16  39
BRANCH   9  48
ATOM     48  C   UNL     1     -19.202  49.716 -38.071  0.00  0.00    +0.000 C 
BRANCH  48  49
ATOM     49  O   UNL     1     -18.874  48.560 -38.640  0.00  0.00    +0.000 OA
ATOM     50  H   UNL     1     -18.311  48.712 -39.419  0.00  0.00    +0.000 HD
ENDBRANCH  48  49
ENDBRANCH   9  48
TORSDOF 12
ENDMDL
MODEL 9
REMARK VINA RESULT:      -5.3     22.807     26.413
REMARK  Name = 5358691_Yuanhuacine.pdbqt.pdb
REMARK  12 active torsions:
REMARK  status: ('A' for Active; 'I' for Inactive)
REMARK    1  A    between atoms: C_9  and  C_48
REMARK    2  A    between atoms: C_13  and  C_23
REMARK    3  A    between atoms: C_14  and  O_26
REMARK    4  A    between atoms: C_15  and  O_28
REMARK    5  A    between atoms: C_16  and  O_39
REMARK    6  A    between atoms: C_17  and  C_30
REMARK    7  A    between atoms: C_31  and  C_32
REMARK    8  A    between atoms: C_33  and  C_34
REMARK    9  A    between atoms: C_35  and  C_36
REMARK   10  A    between atoms: O_39  and  C_41
REMARK   11  A    between atoms: C_41  and  C_42
REMARK   12  A    between atoms: C_48  and  O_49
REMARK                            x       y       z     vdW  Elec       q    Type
REMARK                         _______ _______ _______ _____ _____    ______ ____
ROOT
ATOM      1  O   UNL     1     -30.603  63.379 -23.268  0.00  0.00    +0.000 OA
ATOM      2  O   UNL     1     -28.013  65.471 -22.183  0.00  0.00    +0.000 OA
ATOM      3  O   UNL     1     -28.140  63.430 -20.977  0.00  0.00    +0.000 OA
ATOM      4  O   UNL     1     -27.259  65.277 -19.942  0.00  0.00    +0.000 OA
ATOM      5  O   UNL     1     -32.613  67.871 -24.970  0.00  0.00    +0.000 OA
ATOM      6  C   UNL     1     -30.089  64.559 -21.307  0.00  0.00    +0.000 C 
ATOM      7  C   UNL     1     -29.402  65.806 -21.882  0.00  0.00    +0.000 C 
ATOM      8  C   UNL     1     -31.008  63.699 -21.997  0.00  0.00    +0.000 C 
ATOM      9  C   UNL     1     -31.947  63.852 -23.110  0.00  0.00    +0.000 C 
ATOM     10  C   UNL     1     -29.183  64.035 -20.277  0.00  0.00    +0.000 C 
ATOM     11  C   UNL     1     -30.034  66.259 -23.163  0.00  0.00    +0.000 C 
ATOM     12  C   UNL     1     -29.417  66.926 -20.799  0.00  0.00    +0.000 C 
ATOM     13  C   UNL     1     -28.556  65.072 -19.314  0.00  0.00    +0.000 C 
ATOM     14  C   UNL     1     -31.530  66.450 -23.276  0.00  0.00    +0.000 C 
ATOM     15  C   UNL     1     -32.328  65.214 -23.573  0.00  0.00    +0.000 C 
ATOM     16  C   UNL     1     -29.222  66.430 -19.446  0.00  0.00    +0.000 C 
ATOM     17  C   UNL     1     -27.373  64.619 -21.202  0.00  0.00    +0.000 C 
ATOM     18  C   UNL     1     -29.408  66.977 -24.214  0.00  0.00    +0.000 C 
ATOM     19  C   UNL     1     -29.381  68.433 -21.056  0.00  0.00    +0.000 C 
ATOM     20  C   UNL     1     -31.570  67.423 -24.501  0.00  0.00    +0.000 C 
ATOM     21  C   UNL     1     -30.173  67.675 -24.984  0.00  0.00    +0.000 C 
ATOM     22  C   UNL     1     -29.782  68.132 -26.351  0.00  0.00    +0.000 C 
ENDROOT
BRANCH  13  23
ATOM     23  C   UNL     1     -28.453  64.474 -17.891  0.00  0.00    +0.000 C 
ATOM     24  C   UNL     1     -27.171  64.457 -17.060  0.00  0.00    +0.000 C 
ATOM     25  C   UNL     1     -29.387  63.662 -17.355  0.00  0.00    +0.000 C 
ENDBRANCH  13  23
BRANCH  14  26
ATOM     26  O   UNL     1     -32.059  67.039 -22.107  0.00  0.00    +0.000 OA
ATOM     27  H   UNL     1     -32.992  67.264 -22.292  0.00  0.00    +0.000 HD
ENDBRANCH  14  26
BRANCH  15  28
ATOM     28  O   UNL     1     -33.584  65.399 -24.157  0.00  0.00    +0.000 OA
ATOM     29  H   UNL     1     -33.991  64.588 -24.529  0.00  0.00    +0.000 HD
ENDBRANCH  15  28
BRANCH  17  30
ATOM     30  C   UNL     1     -26.042  64.263 -21.684  0.00  0.00    +0.000 C 
ATOM     31  C   UNL     1     -24.949  63.970 -22.083  0.00  0.00    +0.000 C 
BRANCH  31  32
ATOM     32  C   UNL     1     -23.554  63.599 -22.592  0.00  0.00    +0.000 C 
ATOM     33  C   UNL     1     -22.460  63.306 -22.992  0.00  0.00    +0.000 C 
BRANCH  33  34
ATOM     34  C   UNL     1     -21.064  62.931 -23.500  0.00  0.00    +0.000 C 
ATOM     35  C   UNL     1     -19.670  62.557 -24.008  0.00  0.00    +0.000 C 
BRANCH  35  36
ATOM     36  C   UNL     1     -18.273  62.184 -24.517  0.00  0.00    +0.000 C 
ATOM     37  C   UNL     1     -16.877  61.812 -25.025  0.00  0.00    +0.000 C 
ATOM     38  C   UNL     1     -15.481  61.440 -25.534  0.00  0.00    +0.000 C 
ENDBRANCH  35  36
ENDBRANCH  33  34
ENDBRANCH  31  32
ENDBRANCH  17  30
BRANCH  16  39
ATOM     39  O   UNL     1     -29.616  67.253 -18.377  0.00  0.00    +0.000 OA
BRANCH  39  41
ATOM     40  O   UNL     1     -31.840  66.859 -18.800  0.00  0.00    +0.000 OA
ATOM     41  C   UNL     1     -30.933  67.138 -18.035  0.00  0.00    +0.000 C 
BRANCH  41  42
ATOM     42  C   UNL     1     -31.119  67.442 -16.604  0.00  0.00    +0.000 A 
ATOM     43  C   UNL     1     -31.900  68.518 -16.182  0.00  0.00    +0.000 A 
ATOM     44  C   UNL     1     -30.491  66.621 -15.668  0.00  0.00    +0.000 A 
ATOM     45  C   UNL     1     -32.053  68.772 -14.821  0.00  0.00    +0.000 A 
ATOM     46  C   UNL     1     -30.646  66.878 -14.308  0.00  0.00    +0.000 A 
ATOM     47  C   UNL     1     -31.426  67.952 -13.886  0.00  0.00    +0.000 A 
ENDBRANCH  41  42
ENDBRANCH  39  41
ENDBRANCH  16  39
BRANCH   9  48
ATOM     48  C   UNL     1     -32.882  62.766 -23.369  0.00  0.00    +0.000 C 
BRANCH  48  49
ATOM     49  O   UNL     1     -33.735  61.771 -23.600  0.00  0.00    +0.000 OA
ATOM     50  H   UNL     1     -33.924  61.699 -24.552  0.00  0.00    +0.000 HD
ENDBRANCH  48  49
ENDBRANCH   9  48
TORSDOF 12
ENDMDL
