REMARK  Name = 5386_Tegafur.pdbqt.pdb
REMARK  1 active torsions:
REMARK  status: ('A' for Active; 'I' for Inactive)
REMARK    1  A    between atoms: N_4  and  C_12
REMARK                            x       y       z     vdW  Elec       q    Type
REMARK                         _______ _______ _______ _____ _____    ______ ____
ROOT
ATOM      1  F   UNL     1       2.480  -2.375  -0.072  0.00  0.00    +0.000 F 
ATOM      2  O   UNL     1      -0.029   2.425   0.337  0.00  0.00    +0.000 OA
ATOM      3  O   UNL     1       3.898   0.072  -0.013  0.00  0.00    +0.000 OA
ATOM      4  N   UNL     1      -0.163   0.094  -0.044  0.00  0.00    +0.000 N 
ATOM      5  N   UNL     1       1.900   1.213   0.072  0.00  0.00    +0.000 N 
ATOM      6  C   UNL     1       0.492   1.334   0.136  0.00  0.00    +0.000 C 
ATOM      7  C   UNL     1       0.614  -0.991  -0.240  0.00  0.00    +0.000 C 
ATOM      8  C   UNL     1       1.885  -1.196  -0.316  0.00  0.00    +0.000 C 
ATOM      9  C   UNL     1       2.675   0.056  -0.082  0.00  0.00    +0.000 C 
ATOM     10  H   UNL     1       2.413   2.068   0.234  0.00  0.00    +0.000 HD
ENDROOT
BRANCH   4  12
ATOM     11  O   UNL     1      -2.145  -1.298  -0.206  0.00  0.00    +0.000 OA
ATOM     12  C   UNL     1      -1.519  -0.059  -0.024  0.00  0.00    +0.000 C 
ATOM     13  C   UNL     1      -2.527   0.925   0.162  0.00  0.00    +0.000 C 
ATOM     14  C   UNL     1      -4.017   0.579   0.149  0.00  0.00    +0.000 C 
ATOM     15  C   UNL     1      -3.378  -0.788  -0.089  0.00  0.00    +0.000 C 
ENDBRANCH   4  12
TORSDOF 1
