MODEL 1
REMARK VINA RESULT:      -4.5      0.000      0.000
REMARK  Name = 5386_Tegafur.pdbqt.pdb
REMARK  1 active torsions:
REMARK  status: ('A' for Active; 'I' for Inactive)
REMARK    1  A    between atoms: N_4  and  C_12
REMARK                            x       y       z     vdW  Elec       q    Type
REMARK                         _______ _______ _______ _____ _____    ______ ____
ROOT
ATOM      1  F   UNL     1     -37.167  50.586 -18.131  0.00  0.00    +0.000 F 
ATOM      2  O   UNL     1     -32.864  47.271 -18.083  0.00  0.00    +0.000 OA
ATOM      3  O   UNL     1     -35.182  50.656 -20.145  0.00  0.00    +0.000 OA
ATOM      4  N   UNL     1     -34.731  48.186 -16.953  0.00  0.00    +0.000 N 
ATOM      5  N   UNL     1     -34.010  49.019 -19.028  0.00  0.00    +0.000 N 
ATOM      6  C   UNL     1     -33.788  48.073 -18.000  0.00  0.00    +0.000 C 
ATOM      7  C   UNL     1     -35.678  49.139 -17.076  0.00  0.00    +0.000 C 
ATOM      8  C   UNL     1     -35.954  50.035 -17.961  0.00  0.00    +0.000 C 
ATOM      9  C   UNL     1     -35.039  49.962 -19.145  0.00  0.00    +0.000 C 
ATOM     10  H   UNL     1     -33.383  48.951 -19.818  0.00  0.00    +0.000 HD
ENDROOT
BRANCH   4  12
ATOM     11  O   UNL     1     -34.098  47.745 -14.651  0.00  0.00    +0.000 OA
ATOM     12  C   UNL     1     -34.736  47.388 -15.846  0.00  0.00    +0.000 C 
ATOM     13  C   UNL     1     -35.333  46.111 -15.666  0.00  0.00    +0.000 C 
ATOM     14  C   UNL     1     -35.235  45.343 -14.347  0.00  0.00    +0.000 C 
ATOM     15  C   UNL     1     -34.451  46.615 -14.026  0.00  0.00    +0.000 C 
ENDBRANCH   4  12
TORSDOF 1
ENDMDL
MODEL 2
REMARK VINA RESULT:      -4.4      2.356      2.955
REMARK  Name = 5386_Tegafur.pdbqt.pdb
REMARK  1 active torsions:
REMARK  status: ('A' for Active; 'I' for Inactive)
REMARK    1  A    between atoms: N_4  and  C_12
REMARK                            x       y       z     vdW  Elec       q    Type
REMARK                         _______ _______ _______ _____ _____    ______ ____
ROOT
ATOM      1  F   UNL     1     -34.088  48.713 -20.840  0.00  0.00    +0.000 F 
ATOM      2  O   UNL     1     -33.958  48.134 -15.441  0.00  0.00    +0.000 OA
ATOM      3  O   UNL     1     -35.318  50.565 -19.091  0.00  0.00    +0.000 OA
ATOM      4  N   UNL     1     -33.592  47.209 -17.588  0.00  0.00    +0.000 N 
ATOM      5  N   UNL     1     -34.691  49.266 -17.296  0.00  0.00    +0.000 N 
ATOM      6  C   UNL     1     -34.059  48.171 -16.662  0.00  0.00    +0.000 C 
ATOM      7  C   UNL     1     -33.802  47.461 -18.896  0.00  0.00    +0.000 C 
ATOM      8  C   UNL     1     -34.361  48.416 -19.559  0.00  0.00    +0.000 C 
ATOM      9  C   UNL     1     -34.843  49.518 -18.666  0.00  0.00    +0.000 C 
ATOM     10  H   UNL     1     -35.006  49.998 -16.676  0.00  0.00    +0.000 HD
ENDROOT
BRANCH   4  12
ATOM     11  O   UNL     1     -31.708  45.689 -17.768  0.00  0.00    +0.000 OA
ATOM     12  C   UNL     1     -32.946  46.061 -17.231  0.00  0.00    +0.000 C 
ATOM     13  C   UNL     1     -33.352  45.056 -16.313  0.00  0.00    +0.000 C 
ATOM     14  C   UNL     1     -32.502  43.816 -16.032  0.00  0.00    +0.000 C 
ATOM     15  C   UNL     1     -31.646  44.554 -17.060  0.00  0.00    +0.000 C 
ENDBRANCH   4  12
TORSDOF 1
ENDMDL
MODEL 3
REMARK VINA RESULT:      -4.2      3.102      5.192
REMARK  Name = 5386_Tegafur.pdbqt.pdb
REMARK  1 active torsions:
REMARK  status: ('A' for Active; 'I' for Inactive)
REMARK    1  A    between atoms: N_4  and  C_12
REMARK                            x       y       z     vdW  Elec       q    Type
REMARK                         _______ _______ _______ _____ _____    ______ ____
ROOT
ATOM      1  F   UNL     1     -31.896  44.679 -18.134  0.00  0.00    +0.000 F 
ATOM      2  O   UNL     1     -34.418  47.659 -14.357  0.00  0.00    +0.000 OA
ATOM      3  O   UNL     1     -31.325  44.422 -15.375  0.00  0.00    +0.000 OA
ATOM      4  N   UNL     1     -33.930  47.269 -16.639  0.00  0.00    +0.000 N 
ATOM      5  N   UNL     1     -32.821  46.112 -14.921  0.00  0.00    +0.000 N 
ATOM      6  C   UNL     1     -33.795  47.086 -15.244  0.00  0.00    +0.000 C 
ATOM      7  C   UNL     1     -33.147  46.517 -17.439  0.00  0.00    +0.000 C 
ATOM      8  C   UNL     1     -32.242  45.619 -17.240  0.00  0.00    +0.000 C 
ATOM      9  C   UNL     1     -32.062  45.311 -15.784  0.00  0.00    +0.000 C 
ATOM     10  H   UNL     1     -32.717  45.918 -13.935  0.00  0.00    +0.000 HD
ENDROOT
BRANCH   4  12
ATOM     11  O   UNL     1     -36.181  47.911 -17.284  0.00  0.00    +0.000 OA
ATOM     12  C   UNL     1     -34.803  48.150 -17.209  0.00  0.00    +0.000 C 
ATOM     13  C   UNL     1     -34.537  49.407 -17.815  0.00  0.00    +0.000 C 
ATOM     14  C   UNL     1     -35.645  50.273 -18.417  0.00  0.00    +0.000 C 
ATOM     15  C   UNL     1     -36.433  49.066 -17.912  0.00  0.00    +0.000 C 
ENDBRANCH   4  12
TORSDOF 1
ENDMDL
MODEL 4
REMARK VINA RESULT:      -4.2     24.097     24.965
REMARK  Name = 5386_Tegafur.pdbqt.pdb
REMARK  1 active torsions:
REMARK  status: ('A' for Active; 'I' for Inactive)
REMARK    1  A    between atoms: N_4  and  C_12
REMARK                            x       y       z     vdW  Elec       q    Type
REMARK                         _______ _______ _______ _____ _____    ______ ____
ROOT
ATOM      1  F   UNL     1     -24.166  62.551   3.463  0.00  0.00    +0.000 F 
ATOM      2  O   UNL     1     -28.221  62.417  -0.148  0.00  0.00    +0.000 OA
ATOM      3  O   UNL     1     -23.789  63.222   0.741  0.00  0.00    +0.000 OA
ATOM      4  N   UNL     1     -27.404  61.868   2.003  0.00  0.00    +0.000 N 
ATOM      5  N   UNL     1     -25.997  62.721   0.325  0.00  0.00    +0.000 N 
ATOM      6  C   UNL     1     -27.312  62.329   0.670  0.00  0.00    +0.000 C 
ATOM      7  C   UNL     1     -26.271  61.869   2.735  0.00  0.00    +0.000 C 
ATOM      8  C   UNL     1     -25.045  62.200   2.510  0.00  0.00    +0.000 C 
ATOM      9  C   UNL     1     -24.853  62.757   1.132  0.00  0.00    +0.000 C 
ATOM     10  H   UNL     1     -25.890  63.095  -0.607  0.00  0.00    +0.000 HD
ENDROOT
BRANCH   4  12
ATOM     11  O   UNL     1     -29.168  60.218   2.242  0.00  0.00    +0.000 OA
ATOM     12  C   UNL     1     -28.563  61.434   2.579  0.00  0.00    +0.000 C 
ATOM     13  C   UNL     1     -29.362  62.070   3.567  0.00  0.00    +0.000 C 
ATOM     14  C   UNL     1     -30.649  61.441   4.103  0.00  0.00    +0.000 C 
ATOM     15  C   UNL     1     -30.186  60.391   3.095  0.00  0.00    +0.000 C 
ENDBRANCH   4  12
TORSDOF 1
ENDMDL
MODEL 5
REMARK VINA RESULT:      -4.1     15.991     16.751
REMARK  Name = 5386_Tegafur.pdbqt.pdb
REMARK  1 active torsions:
REMARK  status: ('A' for Active; 'I' for Inactive)
REMARK    1  A    between atoms: N_4  and  C_12
REMARK                            x       y       z     vdW  Elec       q    Type
REMARK                         _______ _______ _______ _____ _____    ______ ____
ROOT
ATOM      1  F   UNL     1     -36.355  62.586  -4.033  0.00  0.00    +0.000 F 
ATOM      2  O   UNL     1     -36.213  57.960  -6.876  0.00  0.00    +0.000 OA
ATOM      3  O   UNL     1     -34.029  61.714  -5.387  0.00  0.00    +0.000 OA
ATOM      4  N   UNL     1     -37.332  59.352  -5.325  0.00  0.00    +0.000 N 
ATOM      5  N   UNL     1     -35.139  59.804  -6.036  0.00  0.00    +0.000 N 
ATOM      6  C   UNL     1     -36.252  58.937  -6.138  0.00  0.00    +0.000 C 
ATOM      7  C   UNL     1     -37.160  60.474  -4.596  0.00  0.00    +0.000 C 
ATOM      8  C   UNL     1     -36.196  61.315  -4.439  0.00  0.00    +0.000 C 
ATOM      9  C   UNL     1     -35.016  60.993  -5.305  0.00  0.00    +0.000 C 
ATOM     10  H   UNL     1     -34.356  59.569  -6.629  0.00  0.00    +0.000 HD
ENDROOT
BRANCH   4  12
ATOM     11  O   UNL     1     -38.614  57.336  -4.896  0.00  0.00    +0.000 OA
ATOM     12  C   UNL     1     -38.522  58.688  -5.246  0.00  0.00    +0.000 C 
ATOM     13  C   UNL     1     -39.835  59.174  -5.489  0.00  0.00    +0.000 C 
ATOM     14  C   UNL     1     -41.072  58.284  -5.360  0.00  0.00    +0.000 C 
ATOM     15  C   UNL     1     -39.949  57.311  -5.004  0.00  0.00    +0.000 C 
ENDBRANCH   4  12
TORSDOF 1
ENDMDL
MODEL 6
REMARK VINA RESULT:      -4.1     26.691     27.654
REMARK  Name = 5386_Tegafur.pdbqt.pdb
REMARK  1 active torsions:
REMARK  status: ('A' for Active; 'I' for Inactive)
REMARK    1  A    between atoms: N_4  and  C_12
REMARK                            x       y       z     vdW  Elec       q    Type
REMARK                         _______ _______ _______ _____ _____    ______ ____
ROOT
ATOM      1  F   UNL     1     -17.369  50.428   6.767  0.00  0.00    +0.000 F 
ATOM      2  O   UNL     1     -17.471  51.257   1.400  0.00  0.00    +0.000 OA
ATOM      3  O   UNL     1     -18.449  52.777   5.620  0.00  0.00    +0.000 OA
ATOM      4  N   UNL     1     -16.677  50.003   3.242  0.00  0.00    +0.000 N 
ATOM      5  N   UNL     1     -17.859  52.013   3.530  0.00  0.00    +0.000 N 
ATOM      6  C   UNL     1     -17.331  51.083   2.605  0.00  0.00    +0.000 C 
ATOM      7  C   UNL     1     -16.653  50.006   4.591  0.00  0.00    +0.000 C 
ATOM      8  C   UNL     1     -17.098  50.800   5.505  0.00  0.00    +0.000 C 
ATOM      9  C   UNL     1     -17.859  51.956   4.930  0.00  0.00    +0.000 C 
ATOM     10  H   UNL     1     -18.370  52.783   3.121  0.00  0.00    +0.000 HD
ENDROOT
BRANCH   4  12
ATOM     11  O   UNL     1     -14.739  48.990   2.190  0.00  0.00    +0.000 OA
ATOM     12  C   UNL     1     -16.085  48.971   2.573  0.00  0.00    +0.000 C 
ATOM     13  C   UNL     1     -16.654  47.744   2.138  0.00  0.00    +0.000 C 
ATOM     14  C   UNL     1     -15.841  46.689   1.386  0.00  0.00    +0.000 C 
ATOM     15  C   UNL     1     -14.797  47.781   1.616  0.00  0.00    +0.000 C 
ENDBRANCH   4  12
TORSDOF 1
ENDMDL
MODEL 7
REMARK VINA RESULT:      -4.1      6.409      7.645
REMARK  Name = 5386_Tegafur.pdbqt.pdb
REMARK  1 active torsions:
REMARK  status: ('A' for Active; 'I' for Inactive)
REMARK    1  A    between atoms: N_4  and  C_12
REMARK                            x       y       z     vdW  Elec       q    Type
REMARK                         _______ _______ _______ _____ _____    ______ ____
ROOT
ATOM      1  F   UNL     1     -30.293  40.253 -17.026  0.00  0.00    +0.000 F 
ATOM      2  O   UNL     1     -29.215  45.142 -19.134  0.00  0.00    +0.000 OA
ATOM      3  O   UNL     1     -28.248  40.658 -18.938  0.00  0.00    +0.000 OA
ATOM      4  N   UNL     1     -30.656  43.750 -17.875  0.00  0.00    +0.000 N 
ATOM      5  N   UNL     1     -28.827  42.882 -19.068  0.00  0.00    +0.000 N 
ATOM      6  C   UNL     1     -29.560  44.041 -18.719  0.00  0.00    +0.000 C 
ATOM      7  C   UNL     1     -30.843  42.460 -17.529  0.00  0.00    +0.000 C 
ATOM      8  C   UNL     1     -30.240  41.352 -17.796  0.00  0.00    +0.000 C 
ATOM      9  C   UNL     1     -29.023  41.561 -18.646  0.00  0.00    +0.000 C 
ATOM     10  H   UNL     1     -28.010  43.045 -19.639  0.00  0.00    +0.000 HD
ENDROOT
BRANCH   4  12
ATOM     11  O   UNL     1     -32.155  45.628 -18.221  0.00  0.00    +0.000 OA
ATOM     12  C   UNL     1     -31.517  44.694 -17.395  0.00  0.00    +0.000 C 
ATOM     13  C   UNL     1     -31.925  44.934 -16.056  0.00  0.00    +0.000 C 
ATOM     14  C   UNL     1     -32.904  46.051 -15.688  0.00  0.00    +0.000 C 
ATOM     15  C   UNL     1     -32.799  46.215 -17.203  0.00  0.00    +0.000 C 
ENDBRANCH   4  12
TORSDOF 1
ENDMDL
MODEL 8
REMARK VINA RESULT:      -4.0     11.463     13.984
REMARK  Name = 5386_Tegafur.pdbqt.pdb
REMARK  1 active torsions:
REMARK  status: ('A' for Active; 'I' for Inactive)
REMARK    1  A    between atoms: N_4  and  C_12
REMARK                            x       y       z     vdW  Elec       q    Type
REMARK                         _______ _______ _______ _____ _____    ______ ____
ROOT
ATOM      1  F   UNL     1     -36.714  41.383  -4.658  0.00  0.00    +0.000 F 
ATOM      2  O   UNL     1     -32.194  44.091  -3.340  0.00  0.00    +0.000 OA
ATOM      3  O   UNL     1     -35.189  40.752  -2.360  0.00  0.00    +0.000 OA
ATOM      4  N   UNL     1     -33.874  43.606  -4.933  0.00  0.00    +0.000 N 
ATOM      5  N   UNL     1     -33.667  42.379  -2.940  0.00  0.00    +0.000 N 
ATOM      6  C   UNL     1     -33.154  43.435  -3.729  0.00  0.00    +0.000 C 
ATOM      7  C   UNL     1     -34.912  42.773  -5.154  0.00  0.00    +0.000 C 
ATOM      8  C   UNL     1     -35.445  41.794  -4.506  0.00  0.00    +0.000 C 
ATOM      9  C   UNL     1     -34.783  41.567  -3.180  0.00  0.00    +0.000 C 
ATOM     10  H   UNL     1     -33.208  42.244  -2.050  0.00  0.00    +0.000 HD
ENDROOT
BRANCH   4  12
ATOM     11  O   UNL     1     -32.301  44.716  -6.411  0.00  0.00    +0.000 OA
ATOM     12  C   UNL     1     -33.581  44.558  -5.866  0.00  0.00    +0.000 C 
ATOM     13  C   UNL     1     -34.435  45.535  -6.445  0.00  0.00    +0.000 C 
ATOM     14  C   UNL     1     -33.936  46.542  -7.483  0.00  0.00    +0.000 C 
ATOM     15  C   UNL     1     -32.667  45.743  -7.190  0.00  0.00    +0.000 C 
ENDBRANCH   4  12
TORSDOF 1
ENDMDL
MODEL 9
REMARK VINA RESULT:      -4.0      8.112     10.146
REMARK  Name = 5386_Tegafur.pdbqt.pdb
REMARK  1 active torsions:
REMARK  status: ('A' for Active; 'I' for Inactive)
REMARK    1  A    between atoms: N_4  and  C_12
REMARK                            x       y       z     vdW  Elec       q    Type
REMARK                         _______ _______ _______ _____ _____    ______ ____
ROOT
ATOM      1  F   UNL     1     -36.791  46.684  -8.481  0.00  0.00    +0.000 F 
ATOM      2  O   UNL     1     -32.458  43.439  -8.924  0.00  0.00    +0.000 OA
ATOM      3  O   UNL     1     -35.640  46.032 -10.981  0.00  0.00    +0.000 OA
ATOM      4  N   UNL     1     -33.893  44.728  -7.555  0.00  0.00    +0.000 N 
ATOM      5  N   UNL     1     -34.012  44.816  -9.900  0.00  0.00    +0.000 N 
ATOM      6  C   UNL     1     -33.364  44.251  -8.776  0.00  0.00    +0.000 C 
ATOM      7  C   UNL     1     -34.905  45.617  -7.627  0.00  0.00    +0.000 C 
ATOM      8  C   UNL     1     -35.550  46.183  -8.589  0.00  0.00    +0.000 C 
ATOM      9  C   UNL     1     -35.098  45.699  -9.934  0.00  0.00    +0.000 C 
ATOM     10  H   UNL     1     -33.693  44.475 -10.796  0.00  0.00    +0.000 HD
ENDROOT
BRANCH   4  12
ATOM     11  O   UNL     1     -32.458  45.039  -5.622  0.00  0.00    +0.000 OA
ATOM     12  C   UNL     1     -33.443  44.337  -6.327  0.00  0.00    +0.000 C 
ATOM     13  C   UNL     1     -33.831  43.214  -5.549  0.00  0.00    +0.000 C 
ATOM     14  C   UNL     1     -33.214  42.916  -4.181  0.00  0.00    +0.000 C 
ATOM     15  C   UNL     1     -32.474  44.190  -4.586  0.00  0.00    +0.000 C 
ENDBRANCH   4  12
TORSDOF 1
ENDMDL
