MODEL 1
REMARK VINA RESULT:      -5.7      0.000      0.000
REMARK  Name = 5470187_Zerumbone.pdbqt.pdb
REMARK  0 active torsions:
REMARK  status: ('A' for Active; 'I' for Inactive)
REMARK                            x       y       z     vdW  Elec       q    Type
REMARK                         _______ _______ _______ _____ _____    ______ ____
ROOT
ATOM      1  O   UNL     1     -18.692  53.282 -30.441  0.00  0.00    +0.000 OA
ATOM      2  C   UNL     1     -16.212  51.082 -26.852  0.00  0.00    +0.000 C 
ATOM      3  C   UNL     1     -15.839  51.947 -25.707  0.00  0.00    +0.000 C 
ATOM      4  C   UNL     1     -17.121  49.927 -26.369  0.00  0.00    +0.000 C 
ATOM      5  C   UNL     1     -14.929  50.530 -27.523  0.00  0.00    +0.000 C 
ATOM      6  C   UNL     1     -16.956  51.952 -27.818  0.00  0.00    +0.000 C 
ATOM      7  C   UNL     1     -15.656  53.142 -24.755  0.00  0.00    +0.000 C 
ATOM      8  C   UNL     1     -15.729  54.346 -24.270  0.00  0.00    +0.000 C 
ATOM      9  C   UNL     1     -16.398  55.219 -25.166  0.00  0.00    +0.000 C 
ATOM     10  C   UNL     1     -17.155  55.628 -26.431  0.00  0.00    +0.000 C 
ATOM     11  C   UNL     1     -17.539  52.725 -28.539  0.00  0.00    +0.000 C 
ATOM     12  C   UNL     1     -15.826  54.563 -22.796  0.00  0.00    +0.000 C 
ATOM     13  C   UNL     1     -17.841  55.491 -27.794  0.00  0.00    +0.000 C 
ATOM     14  C   UNL     1     -18.356  55.134 -28.934  0.00  0.00    +0.000 C 
ATOM     15  C   UNL     1     -18.235  53.699 -29.382  0.00  0.00    +0.000 C 
ATOM     16  C   UNL     1     -19.042  56.207 -29.745  0.00  0.00    +0.000 C 
ENDROOT
TORSDOF 0
ENDMDL
MODEL 2
REMARK VINA RESULT:      -5.6      2.575      5.108
REMARK  Name = 5470187_Zerumbone.pdbqt.pdb
REMARK  0 active torsions:
REMARK  status: ('A' for Active; 'I' for Inactive)
REMARK                            x       y       z     vdW  Elec       q    Type
REMARK                         _______ _______ _______ _____ _____    ______ ____
ROOT
ATOM      1  O   UNL     1     -14.906  52.693 -22.457  0.00  0.00    +0.000 OA
ATOM      2  C   UNL     1     -16.449  52.486 -27.088  0.00  0.00    +0.000 C 
ATOM      3  C   UNL     1     -17.048  53.734 -27.619  0.00  0.00    +0.000 C 
ATOM      4  C   UNL     1     -15.204  52.099 -27.921  0.00  0.00    +0.000 C 
ATOM      5  C   UNL     1     -17.505  51.353 -27.115  0.00  0.00    +0.000 C 
ATOM      6  C   UNL     1     -16.050  52.776 -25.673  0.00  0.00    +0.000 C 
ATOM      7  C   UNL     1     -17.578  55.170 -27.775  0.00  0.00    +0.000 C 
ATOM      8  C   UNL     1     -17.882  56.402 -27.493  0.00  0.00    +0.000 C 
ATOM      9  C   UNL     1     -17.554  56.716 -26.149  0.00  0.00    +0.000 C 
ATOM     10  C   UNL     1     -17.003  56.477 -24.742  0.00  0.00    +0.000 C 
ATOM     11  C   UNL     1     -15.766  53.093 -24.544  0.00  0.00    +0.000 C 
ATOM     12  C   UNL     1     -17.819  57.456 -28.549  0.00  0.00    +0.000 C 
ATOM     13  C   UNL     1     -16.347  55.741 -23.570  0.00  0.00    +0.000 C 
ATOM     14  C   UNL     1     -15.776  54.923 -22.734  0.00  0.00    +0.000 C 
ATOM     15  C   UNL     1     -15.443  53.522 -23.182  0.00  0.00    +0.000 C 
ATOM     16  C   UNL     1     -15.494  55.446 -21.346  0.00  0.00    +0.000 C 
ENDROOT
TORSDOF 0
ENDMDL
MODEL 3
REMARK VINA RESULT:      -5.4      2.471      4.885
REMARK  Name = 5470187_Zerumbone.pdbqt.pdb
REMARK  0 active torsions:
REMARK  status: ('A' for Active; 'I' for Inactive)
REMARK                            x       y       z     vdW  Elec       q    Type
REMARK                         _______ _______ _______ _____ _____    ______ ____
ROOT
ATOM      1  O   UNL     1     -14.762  53.086 -22.386  0.00  0.00    +0.000 OA
ATOM      2  C   UNL     1     -15.868  50.540 -26.407  0.00  0.00    +0.000 C 
ATOM      3  C   UNL     1     -16.570  51.297 -27.471  0.00  0.00    +0.000 C 
ATOM      4  C   UNL     1     -14.518  50.004 -26.941  0.00  0.00    +0.000 C 
ATOM      5  C   UNL     1     -16.767  49.377 -25.918  0.00  0.00    +0.000 C 
ATOM      6  C   UNL     1     -15.630  51.505 -25.286  0.00  0.00    +0.000 C 
ATOM      7  C   UNL     1     -17.260  52.402 -28.290  0.00  0.00    +0.000 C 
ATOM      8  C   UNL     1     -17.739  53.564 -28.623  0.00  0.00    +0.000 C 
ATOM      9  C   UNL     1     -17.568  54.506 -27.576  0.00  0.00    +0.000 C 
ATOM     10  C   UNL     1     -17.113  55.028 -26.212  0.00  0.00    +0.000 C 
ATOM     11  C   UNL     1     -15.485  52.345 -24.432  0.00  0.00    +0.000 C 
ATOM     12  C   UNL     1     -17.719  54.009 -30.047  0.00  0.00    +0.000 C 
ATOM     13  C   UNL     1     -16.473  55.023 -24.820  0.00  0.00    +0.000 C 
ATOM     14  C   UNL     1     -15.878  54.778 -23.690  0.00  0.00    +0.000 C 
ATOM     15  C   UNL     1     -15.335  53.396 -23.424  0.00  0.00    +0.000 C 
ATOM     16  C   UNL     1     -15.782  55.917 -22.703  0.00  0.00    +0.000 C 
ENDROOT
TORSDOF 0
ENDMDL
MODEL 4
REMARK VINA RESULT:      -5.4     29.279     32.751
REMARK  Name = 5470187_Zerumbone.pdbqt.pdb
REMARK  0 active torsions:
REMARK  status: ('A' for Active; 'I' for Inactive)
REMARK                            x       y       z     vdW  Elec       q    Type
REMARK                         _______ _______ _______ _____ _____    ______ ____
ROOT
ATOM      1  O   UNL     1     -16.629  47.561   8.669  0.00  0.00    +0.000 OA
ATOM      2  C   UNL     1     -15.998  46.738   3.894  0.00  0.00    +0.000 C 
ATOM      3  C   UNL     1     -16.170  47.918   3.013  0.00  0.00    +0.000 C 
ATOM      4  C   UNL     1     -14.561  46.179   3.758  0.00  0.00    +0.000 C 
ATOM      5  C   UNL     1     -17.046  45.658   3.526  0.00  0.00    +0.000 C 
ATOM      6  C   UNL     1     -16.232  47.216   5.295  0.00  0.00    +0.000 C 
ATOM      7  C   UNL     1     -16.426  49.336   2.474  0.00  0.00    +0.000 C 
ATOM      8  C   UNL     1     -16.693  50.608   2.448  0.00  0.00    +0.000 C 
ATOM      9  C   UNL     1     -16.957  51.103   3.751  0.00  0.00    +0.000 C 
ATOM     10  C   UNL     1     -17.106  51.051   5.273  0.00  0.00    +0.000 C 
ATOM     11  C   UNL     1     -16.440  47.685   6.387  0.00  0.00    +0.000 C 
ATOM     12  C   UNL     1     -16.065  51.491   1.421  0.00  0.00    +0.000 C 
ATOM     13  C   UNL     1     -17.112  50.469   6.690  0.00  0.00    +0.000 C 
ATOM     14  C   UNL     1     -17.053  49.761   7.780  0.00  0.00    +0.000 C 
ATOM     15  C   UNL     1     -16.705  48.296   7.691  0.00  0.00    +0.000 C 
ATOM     16  C   UNL     1     -17.356  50.471   9.078  0.00  0.00    +0.000 C 
ENDROOT
TORSDOF 0
ENDMDL
MODEL 5
REMARK VINA RESULT:      -5.2     29.551     32.022
REMARK  Name = 5470187_Zerumbone.pdbqt.pdb
REMARK  0 active torsions:
REMARK  status: ('A' for Active; 'I' for Inactive)
REMARK                            x       y       z     vdW  Elec       q    Type
REMARK                         _______ _______ _______ _____ _____    ______ ____
ROOT
ATOM      1  O   UNL     1     -17.189  52.558   2.806  0.00  0.00    +0.000 OA
ATOM      2  C   UNL     1     -15.934  47.839   2.615  0.00  0.00    +0.000 C 
ATOM      3  C   UNL     1     -15.932  47.124   3.913  0.00  0.00    +0.000 C 
ATOM      4  C   UNL     1     -16.948  47.181   1.648  0.00  0.00    +0.000 C 
ATOM      5  C   UNL     1     -14.507  47.822   2.011  0.00  0.00    +0.000 C 
ATOM      6  C   UNL     1     -16.345  49.250   2.907  0.00  0.00    +0.000 C 
ATOM      7  C   UNL     1     -16.052  46.768   5.406  0.00  0.00    +0.000 C 
ATOM      8  C   UNL     1     -16.271  46.890   6.681  0.00  0.00    +0.000 C 
ATOM      9  C   UNL     1     -16.631  48.220   7.015  0.00  0.00    +0.000 C 
ATOM     10  C   UNL     1     -16.962  49.693   6.766  0.00  0.00    +0.000 C 
ATOM     11  C   UNL     1     -16.678  50.364   3.233  0.00  0.00    +0.000 C 
ATOM     12  C   UNL     1     -16.816  45.743   7.466  0.00  0.00    +0.000 C 
ATOM     13  C   UNL     1     -17.195  50.996   5.995  0.00  0.00    +0.000 C 
ATOM     14  C   UNL     1     -17.334  51.965   5.138  0.00  0.00    +0.000 C 
ATOM     15  C   UNL     1     -17.080  51.700   3.675  0.00  0.00    +0.000 C 
ATOM     16  C   UNL     1     -17.737  53.313   5.685  0.00  0.00    +0.000 C 
ENDROOT
TORSDOF 0
ENDMDL
MODEL 6
REMARK VINA RESULT:      -5.2     25.138     26.369
REMARK  Name = 5470187_Zerumbone.pdbqt.pdb
REMARK  0 active torsions:
REMARK  status: ('A' for Active; 'I' for Inactive)
REMARK                            x       y       z     vdW  Elec       q    Type
REMARK                         _______ _______ _______ _____ _____    ______ ____
ROOT
ATOM      1  O   UNL     1     -39.183  47.854 -11.745  0.00  0.00    +0.000 OA
ATOM      2  C   UNL     1     -35.089  45.268 -12.399  0.00  0.00    +0.000 C 
ATOM      3  C   UNL     1     -34.216  45.140 -11.208  0.00  0.00    +0.000 C 
ATOM      4  C   UNL     1     -35.555  43.869 -12.869  0.00  0.00    +0.000 C 
ATOM      5  C   UNL     1     -34.321  46.001 -13.528  0.00  0.00    +0.000 C 
ATOM      6  C   UNL     1     -36.270  46.086 -11.974  0.00  0.00    +0.000 C 
ATOM      7  C   UNL     1     -33.621  45.243  -9.792  0.00  0.00    +0.000 C 
ATOM      8  C   UNL     1     -33.488  45.558  -8.538  0.00  0.00    +0.000 C 
ATOM      9  C   UNL     1     -34.568  46.365  -8.096  0.00  0.00    +0.000 C 
ATOM     10  C   UNL     1     -35.894  47.122  -8.198  0.00  0.00    +0.000 C 
ATOM     11  C   UNL     1     -37.180  46.755 -11.549  0.00  0.00    +0.000 C 
ATOM     12  C   UNL     1     -32.811  44.623  -7.592  0.00  0.00    +0.000 C 
ATOM     13  C   UNL     1     -37.183  47.670  -8.817  0.00  0.00    +0.000 C 
ATOM     14  C   UNL     1     -38.200  48.018  -9.551  0.00  0.00    +0.000 C 
ATOM     15  C   UNL     1     -38.261  47.570 -10.990  0.00  0.00    +0.000 C 
ATOM     16  C   UNL     1     -39.259  48.871  -8.896  0.00  0.00    +0.000 C 
ENDROOT
TORSDOF 0
ENDMDL
MODEL 7
REMARK VINA RESULT:      -5.1     29.140     31.998
REMARK  Name = 5470187_Zerumbone.pdbqt.pdb
REMARK  0 active torsions:
REMARK  status: ('A' for Active; 'I' for Inactive)
REMARK                            x       y       z     vdW  Elec       q    Type
REMARK                         _______ _______ _______ _____ _____    ______ ____
ROOT
ATOM      1  O   UNL     1     -16.980  50.825   6.790  0.00  0.00    +0.000 OA
ATOM      2  C   UNL     1     -16.207  46.117   5.735  0.00  0.00    +0.000 C 
ATOM      3  C   UNL     1     -16.142  45.786   4.292  0.00  0.00    +0.000 C 
ATOM      4  C   UNL     1     -14.869  45.754   6.422  0.00  0.00    +0.000 C 
ATOM      5  C   UNL     1     -17.386  45.354   6.390  0.00  0.00    +0.000 C 
ATOM      6  C   UNL     1     -16.445  47.593   5.823  0.00  0.00    +0.000 C 
ATOM      7  C   UNL     1     -16.144  45.866   2.754  0.00  0.00    +0.000 C 
ATOM      8  C   UNL     1     -16.209  46.356   1.552  0.00  0.00    +0.000 C 
ATOM      9  C   UNL     1     -16.469  47.751   1.582  0.00  0.00    +0.000 C 
ATOM     10  C   UNL     1     -16.713  49.124   2.210  0.00  0.00    +0.000 C 
ATOM     11  C   UNL     1     -16.642  48.784   5.801  0.00  0.00    +0.000 C 
ATOM     12  C   UNL     1     -15.393  45.766   0.451  0.00  0.00    +0.000 C 
ATOM     13  C   UNL     1     -16.891  50.187   3.298  0.00  0.00    +0.000 C 
ATOM     14  C   UNL     1     -17.006  50.900   4.381  0.00  0.00    +0.000 C 
ATOM     15  C   UNL     1     -16.884  50.226   5.724  0.00  0.00    +0.000 C 
ATOM     16  C   UNL     1     -17.270  52.376   4.207  0.00  0.00    +0.000 C 
ENDROOT
TORSDOF 0
ENDMDL
MODEL 8
REMARK VINA RESULT:      -5.1     29.416     32.619
REMARK  Name = 5470187_Zerumbone.pdbqt.pdb
REMARK  0 active torsions:
REMARK  status: ('A' for Active; 'I' for Inactive)
REMARK                            x       y       z     vdW  Elec       q    Type
REMARK                         _______ _______ _______ _____ _____    ______ ____
ROOT
ATOM      1  O   UNL     1     -17.396  52.989   6.894  0.00  0.00    +0.000 OA
ATOM      2  C   UNL     1     -16.248  50.712   2.726  0.00  0.00    +0.000 C 
ATOM      3  C   UNL     1     -16.074  49.243   2.826  0.00  0.00    +0.000 C 
ATOM      4  C   UNL     1     -17.397  51.043   1.744  0.00  0.00    +0.000 C 
ATOM      5  C   UNL     1     -14.921  51.361   2.260  0.00  0.00    +0.000 C 
ATOM      6  C   UNL     1     -16.594  51.193   4.102  0.00  0.00    +0.000 C 
ATOM      7  C   UNL     1     -15.987  47.796   3.343  0.00  0.00    +0.000 C 
ATOM      8  C   UNL     1     -16.022  46.778   4.151  0.00  0.00    +0.000 C 
ATOM      9  C   UNL     1     -16.312  47.188   5.478  0.00  0.00    +0.000 C 
ATOM     10  C   UNL     1     -16.654  48.162   6.607  0.00  0.00    +0.000 C 
ATOM     11  C   UNL     1     -16.861  51.494   5.240  0.00  0.00    +0.000 C 
ATOM     12  C   UNL     1     -16.468  45.440   3.662  0.00  0.00    +0.000 C 
ATOM     13  C   UNL     1     -16.974  49.488   7.304  0.00  0.00    +0.000 C 
ATOM     14  C   UNL     1     -17.219  50.713   7.667  0.00  0.00    +0.000 C 
ATOM     15  C   UNL     1     -17.178  51.812   6.634  0.00  0.00    +0.000 C 
ATOM     16  C   UNL     1     -17.521  50.950   9.127  0.00  0.00    +0.000 C 
ENDROOT
TORSDOF 0
ENDMDL
MODEL 9
REMARK VINA RESULT:      -5.1     25.018     26.465
REMARK  Name = 5470187_Zerumbone.pdbqt.pdb
REMARK  0 active torsions:
REMARK  status: ('A' for Active; 'I' for Inactive)
REMARK                            x       y       z     vdW  Elec       q    Type
REMARK                         _______ _______ _______ _____ _____    ______ ____
ROOT
ATOM      1  O   UNL     1     -35.882  45.889 -13.464  0.00  0.00    +0.000 OA
ATOM      2  C   UNL     1     -37.123  46.628  -8.796  0.00  0.00    +0.000 C 
ATOM      3  C   UNL     1     -36.131  46.179  -7.791  0.00  0.00    +0.000 C 
ATOM      4  C   UNL     1     -37.356  48.153  -8.667  0.00  0.00    +0.000 C 
ATOM      5  C   UNL     1     -38.448  45.850  -8.600  0.00  0.00    +0.000 C 
ATOM      6  C   UNL     1     -36.541  46.310 -10.140  0.00  0.00    +0.000 C 
ATOM      7  C   UNL     1     -34.884  45.598  -7.101  0.00  0.00    +0.000 C 
ATOM      8  C   UNL     1     -33.718  45.047  -6.938  0.00  0.00    +0.000 C 
ATOM      9  C   UNL     1     -33.139  44.694  -8.184  0.00  0.00    +0.000 C 
ATOM     10  C   UNL     1     -33.035  44.581  -9.706  0.00  0.00    +0.000 C 
ATOM     11  C   UNL     1     -36.001  46.014 -11.178  0.00  0.00    +0.000 C 
ATOM     12  C   UNL     1     -32.850  45.442  -5.789  0.00  0.00    +0.000 C 
ATOM     13  C   UNL     1     -33.424  44.727 -11.180  0.00  0.00    +0.000 C 
ATOM     14  C   UNL     1     -33.961  44.961 -12.342  0.00  0.00    +0.000 C 
ATOM     15  C   UNL     1     -35.309  45.634 -12.411  0.00  0.00    +0.000 C 
ATOM     16  C   UNL     1     -33.184  44.522 -13.559  0.00  0.00    +0.000 C 
ENDROOT
TORSDOF 0
ENDMDL
