MODEL 1
REMARK VINA RESULT:      -5.2      0.000      0.000
REMARK  Name = 5azacytidine.pdbqt.pdb
REMARK  5 active torsions:
REMARK  status: ('A' for Active; 'I' for Inactive)
REMARK    1  A    between atoms: C2*_2  and  O2*_16
REMARK    2  A    between atoms: C3*_3  and  O3*_21
REMARK    3  A    between atoms: C4*_4  and  C5*_18
REMARK    4  A    between atoms: C1*_5  and  N_6
REMARK    5  A    between atoms: C5*_18  and  O5*_19
REMARK                            x       y       z     vdW  Elec       q    Type
REMARK                         _______ _______ _______ _____ _____    ______ ____
ROOT
ATOM      1  O4* UNL     1     -34.688  42.523  -4.583  0.00  0.00    +0.000 OA
ATOM      2  C2* UNL     1     -33.116  43.428  -3.158  0.00  0.00    +0.000 A 
ATOM      3  C3* UNL     1     -33.690  42.279  -2.526  0.00  0.00    +0.000 A 
ATOM      4  C4* UNL     1     -34.657  41.722  -3.429  0.00  0.00    +0.000 A 
ATOM      5  C1* UNL     1     -33.767  43.583  -4.437  0.00  0.00    +0.000 A 
ENDROOT
BRANCH   5   6
ATOM      6  N   UNL     1     -33.643  44.548  -5.391  0.00  0.00    +0.000 N 
ATOM      7  C   UNL     1     -34.529  45.584  -5.663  0.00  0.00    +0.000 A 
ATOM      8  O   UNL     1     -35.594  45.741  -5.069  0.00  0.00    +0.000 OA
ATOM      9  N   UNL     1     -34.135  46.442  -6.685  0.00  0.00    +0.000 NA
ATOM     10  C   UNL     1     -33.006  46.247  -7.320  0.00  0.00    +0.000 A 
ATOM     11  N   UNL     1     -32.142  45.196  -7.064  0.00  0.00    +0.000 NA
ATOM     12  C   UNL     1     -32.576  44.564  -6.186  0.00  0.00    +0.000 A 
ATOM     13  N   UNL     1     -32.662  47.112  -8.307  0.00  0.00    +0.000 N 
ATOM     14  H   UNL     1     -32.045  46.723  -9.008  0.00  0.00    +0.000 HD
ATOM     15  H   UNL     1     -33.444  47.641  -8.674  0.00  0.00    +0.000 HD
ENDBRANCH   5   6
BRANCH   2  16
ATOM     16  O2* UNL     1     -32.637  44.454  -2.392  0.00  0.00    +0.000 OA
ATOM     17  H2* UNL     1     -32.186  45.138  -2.934  0.00  0.00    +0.000 HD
ENDBRANCH   2  16
BRANCH   3  18
ATOM     18  O3* UNL     1     -33.840  42.221  -1.168  0.00  0.00    +0.000 OA
ATOM     19  H3* UNL     1     -34.788  42.215  -0.940  0.00  0.00    +0.000 HD
ENDBRANCH   3  18
BRANCH   4  20
ATOM     20  C5* UNL     1     -35.653  40.769  -3.143  0.00  0.00    +0.000 C 
BRANCH  20  21
ATOM     21  O5* UNL     1     -36.600  39.877  -2.871  0.00  0.00    +0.000 OA
ATOM     22  H5* UNL     1     -37.179  40.211  -2.165  0.00  0.00    +0.000 HD
ENDBRANCH  20  21
ENDBRANCH   4  20
TORSDOF 5
ENDMDL
MODEL 2
REMARK VINA RESULT:      -5.2     26.590     28.772
REMARK  Name = 5azacytidine.pdbqt.pdb
REMARK  5 active torsions:
REMARK  status: ('A' for Active; 'I' for Inactive)
REMARK    1  A    between atoms: C2*_2  and  O2*_16
REMARK    2  A    between atoms: C3*_3  and  O3*_21
REMARK    3  A    between atoms: C4*_4  and  C5*_18
REMARK    4  A    between atoms: C1*_5  and  N_6
REMARK    5  A    between atoms: C5*_18  and  O5*_19
REMARK                            x       y       z     vdW  Elec       q    Type
REMARK                         _______ _______ _______ _____ _____    ______ ____
ROOT
ATOM      1  O4* UNL     1     -29.563  60.619 -28.384  0.00  0.00    +0.000 OA
ATOM      2  C2* UNL     1     -27.491  60.924 -27.416  0.00  0.00    +0.000 A 
ATOM      3  C3* UNL     1     -27.299  60.460 -28.757  0.00  0.00    +0.000 A 
ATOM      4  C4* UNL     1     -28.595  60.286 -29.348  0.00  0.00    +0.000 A 
ATOM      5  C1* UNL     1     -28.914  60.997 -27.189  0.00  0.00    +0.000 A 
ENDROOT
BRANCH   5   6
ATOM      6  N   UNL     1     -29.624  61.308 -26.068  0.00  0.00    +0.000 N 
ATOM      7  C   UNL     1     -30.410  60.455 -25.303  0.00  0.00    +0.000 A 
ATOM      8  O   UNL     1     -30.591  59.270 -25.576  0.00  0.00    +0.000 OA
ATOM      9  N   UNL     1     -31.007  61.043 -24.191  0.00  0.00    +0.000 NA
ATOM     10  C   UNL     1     -30.818  62.311 -23.927  0.00  0.00    +0.000 A 
ATOM     11  N   UNL     1     -30.058  63.163 -24.710  0.00  0.00    +0.000 NA
ATOM     12  C   UNL     1     -29.606  62.552 -25.594  0.00  0.00    +0.000 A 
ATOM     13  N   UNL     1     -31.417  62.840 -22.830  0.00  0.00    +0.000 N 
ATOM     14  H   UNL     1     -31.586  63.835 -22.884  0.00  0.00    +0.000 HD
ATOM     15  H   UNL     1     -32.200  62.292 -22.493  0.00  0.00    +0.000 HD
ENDBRANCH   5   6
BRANCH   2  16
ATOM     16  O2* UNL     1     -26.556  60.637 -26.460  0.00  0.00    +0.000 OA
ATOM     17  H2* UNL     1     -26.094  59.789 -26.640  0.00  0.00    +0.000 HD
ENDBRANCH   2  16
BRANCH   3  18
ATOM     18  O3* UNL     1     -26.234  59.667 -29.084  0.00  0.00    +0.000 OA
ATOM     19  H3* UNL     1     -26.309  59.380 -30.013  0.00  0.00    +0.000 HD
ENDBRANCH   3  18
BRANCH   4  20
ATOM     20  C5* UNL     1     -28.916  59.598 -30.534  0.00  0.00    +0.000 C 
BRANCH  20  21
ATOM     21  O5* UNL     1     -29.208  58.946 -31.655  0.00  0.00    +0.000 OA
ATOM     22  H5* UNL     1     -30.150  59.060 -31.869  0.00  0.00    +0.000 HD
ENDBRANCH  20  21
ENDBRANCH   4  20
TORSDOF 5
ENDMDL
MODEL 3
REMARK VINA RESULT:      -5.0     11.483     13.444
REMARK  Name = 5azacytidine.pdbqt.pdb
REMARK  5 active torsions:
REMARK  status: ('A' for Active; 'I' for Inactive)
REMARK    1  A    between atoms: C2*_2  and  O2*_16
REMARK    2  A    between atoms: C3*_3  and  O3*_21
REMARK    3  A    between atoms: C4*_4  and  C5*_18
REMARK    4  A    between atoms: C1*_5  and  N_6
REMARK    5  A    between atoms: C5*_18  and  O5*_19
REMARK                            x       y       z     vdW  Elec       q    Type
REMARK                         _______ _______ _______ _____ _____    ______ ____
ROOT
ATOM      1  O4* UNL     1     -32.197  45.861 -17.788  0.00  0.00    +0.000 OA
ATOM      2  C2* UNL     1     -32.386  45.374 -15.541  0.00  0.00    +0.000 A 
ATOM      3  C3* UNL     1     -33.264  46.464 -15.842  0.00  0.00    +0.000 A 
ATOM      4  C4* UNL     1     -33.143  46.746 -17.244  0.00  0.00    +0.000 A 
ATOM      5  C1* UNL     1     -31.707  45.021 -16.764  0.00  0.00    +0.000 A 
ENDROOT
BRANCH   5   6
ATOM      6  N   UNL     1     -30.726  44.107 -17.009  0.00  0.00    +0.000 N 
ATOM      7  C   UNL     1     -29.725  44.181 -17.970  0.00  0.00    +0.000 A 
ATOM      8  O   UNL     1     -29.620  45.107 -18.772  0.00  0.00    +0.000 OA
ATOM      9  N   UNL     1     -28.839  43.108 -17.981  0.00  0.00    +0.000 NA
ATOM     10  C   UNL     1     -28.979  42.121 -17.132  0.00  0.00    +0.000 A 
ATOM     11  N   UNL     1     -29.996  42.039 -16.196  0.00  0.00    +0.000 NA
ATOM     12  C   UNL     1     -30.656  42.996 -16.280  0.00  0.00    +0.000 A 
ATOM     13  N   UNL     1     -28.088  41.098 -17.178  0.00  0.00    +0.000 N 
ATOM     14  H   UNL     1     -28.443  40.218 -16.825  0.00  0.00    +0.000 HD
ATOM     15  H   UNL     1     -27.589  41.034 -18.057  0.00  0.00    +0.000 HD
ENDBRANCH   5   6
BRANCH   2  16
ATOM     16  O2* UNL     1     -31.855  45.259 -14.286  0.00  0.00    +0.000 OA
ATOM     17  H2* UNL     1     -31.158  44.569 -14.244  0.00  0.00    +0.000 HD
ENDBRANCH   2  16
BRANCH   3  18
ATOM     18  O3* UNL     1     -33.522  47.439 -14.920  0.00  0.00    +0.000 OA
ATOM     19  H3* UNL     1     -34.028  47.064 -14.175  0.00  0.00    +0.000 HD
ENDBRANCH   3  18
BRANCH   4  20
ATOM     20  C5* UNL     1     -33.593  47.888 -17.934  0.00  0.00    +0.000 C 
BRANCH  20  21
ATOM     21  O5* UNL     1     -34.009  48.967 -18.589  0.00  0.00    +0.000 OA
ATOM     22  H5* UNL     1     -34.339  49.632 -17.960  0.00  0.00    +0.000 HD
ENDBRANCH  20  21
ENDBRANCH   4  20
TORSDOF 5
ENDMDL
MODEL 4
REMARK VINA RESULT:      -4.9      3.640      5.543
REMARK  Name = 5azacytidine.pdbqt.pdb
REMARK  5 active torsions:
REMARK  status: ('A' for Active; 'I' for Inactive)
REMARK    1  A    between atoms: C2*_2  and  O2*_16
REMARK    2  A    between atoms: C3*_3  and  O3*_21
REMARK    3  A    between atoms: C4*_4  and  C5*_18
REMARK    4  A    between atoms: C1*_5  and  N_6
REMARK    5  A    between atoms: C5*_18  and  O5*_19
REMARK                            x       y       z     vdW  Elec       q    Type
REMARK                         _______ _______ _______ _____ _____    ______ ____
ROOT
ATOM      1  O4* UNL     1     -35.038  43.031  -7.747  0.00  0.00    +0.000 OA
ATOM      2  C2* UNL     1     -33.070  44.134  -8.224  0.00  0.00    +0.000 A 
ATOM      3  C3* UNL     1     -33.748  43.868  -9.456  0.00  0.00    +0.000 A 
ATOM      4  C4* UNL     1     -34.974  43.192  -9.141  0.00  0.00    +0.000 A 
ATOM      5  C1* UNL     1     -33.878  43.584  -7.163  0.00  0.00    +0.000 A 
ENDROOT
BRANCH   5   6
ATOM      6  N   UNL     1     -33.657  43.505  -5.820  0.00  0.00    +0.000 N 
ATOM      7  C   UNL     1     -33.076  44.468  -5.004  0.00  0.00    +0.000 A 
ATOM      8  O   UNL     1     -32.644  45.541  -5.419  0.00  0.00    +0.000 OA
ATOM      9  N   UNL     1     -32.995  44.126  -3.656  0.00  0.00    +0.000 NA
ATOM     10  C   UNL     1     -33.443  42.969  -3.236  0.00  0.00    +0.000 A 
ATOM     11  N   UNL     1     -33.993  42.003  -4.059  0.00  0.00    +0.000 NA
ATOM     12  C   UNL     1     -34.016  42.413  -5.150  0.00  0.00    +0.000 A 
ATOM     13  N   UNL     1     -33.346  42.681  -1.913  0.00  0.00    +0.000 N 
ATOM     14  H   UNL     1     -33.312  41.693  -1.701  0.00  0.00    +0.000 HD
ATOM     15  H   UNL     1     -32.662  43.246  -1.424  0.00  0.00    +0.000 HD
ENDBRANCH   5   6
BRANCH   2  16
ATOM     16  O2* UNL     1     -31.705  44.221  -8.207  0.00  0.00    +0.000 OA
ATOM     17  H2* UNL     1     -31.336  44.379  -9.103  0.00  0.00    +0.000 HD
ENDBRANCH   2  16
BRANCH   3  18
ATOM     18  O3* UNL     1     -33.051  43.620 -10.606  0.00  0.00    +0.000 OA
ATOM     19  H3* UNL     1     -33.614  43.133 -11.236  0.00  0.00    +0.000 HD
ENDBRANCH   3  18
BRANCH   4  20
ATOM     20  C5* UNL     1     -35.825  42.497 -10.022  0.00  0.00    +0.000 C 
BRANCH  20  21
ATOM     21  O5* UNL     1     -36.626  41.833 -10.849  0.00  0.00    +0.000 OA
ATOM     22  H5* UNL     1     -36.140  41.100 -11.265  0.00  0.00    +0.000 HD
ENDBRANCH  20  21
ENDBRANCH   4  20
TORSDOF 5
ENDMDL
MODEL 5
REMARK VINA RESULT:      -4.9      2.315      2.599
REMARK  Name = 5azacytidine.pdbqt.pdb
REMARK  5 active torsions:
REMARK  status: ('A' for Active; 'I' for Inactive)
REMARK    1  A    between atoms: C2*_2  and  O2*_16
REMARK    2  A    between atoms: C3*_3  and  O3*_21
REMARK    3  A    between atoms: C4*_4  and  C5*_18
REMARK    4  A    between atoms: C1*_5  and  N_6
REMARK    5  A    between atoms: C5*_18  and  O5*_19
REMARK                            x       y       z     vdW  Elec       q    Type
REMARK                         _______ _______ _______ _____ _____    ______ ____
ROOT
ATOM      1  O4* UNL     1     -34.395  42.633  -4.807  0.00  0.00    +0.000 OA
ATOM      2  C2* UNL     1     -32.914  44.402  -4.819  0.00  0.00    +0.000 A 
ATOM      3  C3* UNL     1     -32.856  43.772  -3.535  0.00  0.00    +0.000 A 
ATOM      4  C4* UNL     1     -33.773  42.669  -3.547  0.00  0.00    +0.000 A 
ATOM      5  C1* UNL     1     -33.899  43.692  -5.598  0.00  0.00    +0.000 A 
ENDROOT
BRANCH   5   6
ATOM      6  N   UNL     1     -34.385  43.925  -6.850  0.00  0.00    +0.000 N 
ATOM      7  C   UNL     1     -35.024  45.072  -7.307  0.00  0.00    +0.000 A 
ATOM      8  O   UNL     1     -35.267  46.044  -6.594  0.00  0.00    +0.000 OA
ATOM      9  N   UNL     1     -35.396  45.044  -8.648  0.00  0.00    +0.000 NA
ATOM     10  C   UNL     1     -35.147  43.991  -9.386  0.00  0.00    +0.000 A 
ATOM     11  N   UNL     1     -34.537  42.841  -8.917  0.00  0.00    +0.000 NA
ATOM     12  C   UNL     1     -34.264  42.995  -7.794  0.00  0.00    +0.000 A 
ATOM     13  N   UNL     1     -35.525  44.011 -10.689  0.00  0.00    +0.000 N 
ATOM     14  H   UNL     1     -35.690  43.098 -11.091  0.00  0.00    +0.000 HD
ATOM     15  H   UNL     1     -36.238  44.702 -10.893  0.00  0.00    +0.000 HD
ENDBRANCH   5   6
BRANCH   2  16
ATOM     16  O2* UNL     1     -32.634  45.735  -4.933  0.00  0.00    +0.000 OA
ATOM     17  H2* UNL     1     -33.064  46.135  -5.721  0.00  0.00    +0.000 HD
ENDBRANCH   2  16
BRANCH   3  18
ATOM     18  O3* UNL     1     -32.600  44.497  -2.404  0.00  0.00    +0.000 OA
ATOM     19  H3* UNL     1     -31.722  44.260  -2.050  0.00  0.00    +0.000 HD
ENDBRANCH   3  18
BRANCH   4  20
ATOM     20  C5* UNL     1     -34.256  41.937  -2.446  0.00  0.00    +0.000 C 
BRANCH  20  21
ATOM     21  O5* UNL     1     -34.711  41.238  -1.411  0.00  0.00    +0.000 OA
ATOM     22  H5* UNL     1     -34.860  41.827  -0.651  0.00  0.00    +0.000 HD
ENDBRANCH  20  21
ENDBRANCH   4  20
TORSDOF 5
ENDMDL
MODEL 6
REMARK VINA RESULT:      -4.8     26.537     27.589
REMARK  Name = 5azacytidine.pdbqt.pdb
REMARK  5 active torsions:
REMARK  status: ('A' for Active; 'I' for Inactive)
REMARK    1  A    between atoms: C2*_2  and  O2*_16
REMARK    2  A    between atoms: C3*_3  and  O3*_21
REMARK    3  A    between atoms: C4*_4  and  C5*_18
REMARK    4  A    between atoms: C1*_5  and  N_6
REMARK    5  A    between atoms: C5*_18  and  O5*_19
REMARK                            x       y       z     vdW  Elec       q    Type
REMARK                         _______ _______ _______ _____ _____    ______ ____
ROOT
ATOM      1  O4* UNL     1     -30.768  64.291 -23.107  0.00  0.00    +0.000 OA
ATOM      2  C2* UNL     1     -30.985  62.129 -23.880  0.00  0.00    +0.000 A 
ATOM      3  C3* UNL     1     -32.284  62.615 -23.526  0.00  0.00    +0.000 A 
ATOM      4  C4* UNL     1     -32.133  63.962 -23.057  0.00  0.00    +0.000 A 
ATOM      5  C1* UNL     1     -30.042  63.182 -23.591  0.00  0.00    +0.000 A 
ENDROOT
BRANCH   5   6
ATOM      6  N   UNL     1     -28.682  63.210 -23.677  0.00  0.00    +0.000 N 
ATOM      7  C   UNL     1     -27.914  63.416 -24.817  0.00  0.00    +0.000 A 
ATOM      8  O   UNL     1     -28.391  63.572 -25.939  0.00  0.00    +0.000 OA
ATOM      9  N   UNL     1     -26.537  63.417 -24.607  0.00  0.00    +0.000 NA
ATOM     10  C   UNL     1     -26.048  63.230 -23.407  0.00  0.00    +0.000 A 
ATOM     11  N   UNL     1     -26.817  62.995 -22.281  0.00  0.00    +0.000 NA
ATOM     12  C   UNL     1     -27.942  63.033 -22.585  0.00  0.00    +0.000 A 
ATOM     13  N   UNL     1     -24.700  63.242 -23.250  0.00  0.00    +0.000 N 
ATOM     14  H   UNL     1     -24.366  62.714 -22.455  0.00  0.00    +0.000 HD
ATOM     15  H   UNL     1     -24.190  63.084 -24.112  0.00  0.00    +0.000 HD
ENDBRANCH   5   6
BRANCH   2  16
ATOM     16  O2* UNL     1     -30.718  60.790 -23.801  0.00  0.00    +0.000 OA
ATOM     17  H2* UNL     1     -31.539  60.251 -23.794  0.00  0.00    +0.000 HD
ENDBRANCH   2  16
BRANCH   3  18
ATOM     18  O3* UNL     1     -33.243  61.773 -23.033  0.00  0.00    +0.000 OA
ATOM     19  H3* UNL     1     -33.268  60.954 -23.563  0.00  0.00    +0.000 HD
ENDBRANCH   3  18
BRANCH   4  20
ATOM     20  C5* UNL     1     -33.073  64.740 -22.354  0.00  0.00    +0.000 C 
BRANCH  20  21
ATOM     21  O5* UNL     1     -33.960  65.481 -21.698  0.00  0.00    +0.000 OA
ATOM     22  H5* UNL     1     -34.757  64.956 -21.508  0.00  0.00    +0.000 HD
ENDBRANCH  20  21
ENDBRANCH   4  20
TORSDOF 5
ENDMDL
MODEL 7
REMARK VINA RESULT:      -4.7      3.996      5.679
REMARK  Name = 5azacytidine.pdbqt.pdb
REMARK  5 active torsions:
REMARK  status: ('A' for Active; 'I' for Inactive)
REMARK    1  A    between atoms: C2*_2  and  O2*_16
REMARK    2  A    between atoms: C3*_3  and  O3*_21
REMARK    3  A    between atoms: C4*_4  and  C5*_18
REMARK    4  A    between atoms: C1*_5  and  N_6
REMARK    5  A    between atoms: C5*_18  and  O5*_19
REMARK                            x       y       z     vdW  Elec       q    Type
REMARK                         _______ _______ _______ _____ _____    ______ ____
ROOT
ATOM      1  O4* UNL     1     -34.966  45.444  -6.904  0.00  0.00    +0.000 OA
ATOM      2  C2* UNL     1     -33.808  44.922  -8.830  0.00  0.00    +0.000 A 
ATOM      3  C3* UNL     1     -33.055  44.449  -7.708  0.00  0.00    +0.000 A 
ATOM      4  C4* UNL     1     -33.793  44.772  -6.520  0.00  0.00    +0.000 A 
ATOM      5  C1* UNL     1     -34.991  45.563  -8.310  0.00  0.00    +0.000 A 
ENDROOT
BRANCH   5   6
ATOM      6  N   UNL     1     -35.994  46.235  -8.944  0.00  0.00    +0.000 N 
ATOM      7  C   UNL     1     -36.559  45.937 -10.178  0.00  0.00    +0.000 A 
ATOM      8  O   UNL     1     -36.183  45.011 -10.893  0.00  0.00    +0.000 OA
ATOM      9  N   UNL     1     -37.590  46.786 -10.574  0.00  0.00    +0.000 NA
ATOM     10  C   UNL     1     -37.964  47.780  -9.808  0.00  0.00    +0.000 A 
ATOM     11  N   UNL     1     -37.377  48.089  -8.593  0.00  0.00    +0.000 NA
ATOM     12  C   UNL     1     -36.544  47.303  -8.372  0.00  0.00    +0.000 A 
ATOM     13  N   UNL     1     -38.976  48.578 -10.233  0.00  0.00    +0.000 N 
ATOM     14  H   UNL     1     -38.959  49.515  -9.852  0.00  0.00    +0.000 HD
ATOM     15  H   UNL     1     -39.140  48.527 -11.232  0.00  0.00    +0.000 HD
ENDBRANCH   5   6
BRANCH   2  16
ATOM     16  O2* UNL     1     -33.158  45.283  -9.978  0.00  0.00    +0.000 OA
ATOM     17  H2* UNL     1     -33.610  46.024 -10.437  0.00  0.00    +0.000 HD
ENDBRANCH   2  16
BRANCH   3  18
ATOM     18  O3* UNL     1     -31.688  44.424  -7.734  0.00  0.00    +0.000 OA
ATOM     19  H3* UNL     1     -31.364  43.612  -7.303  0.00  0.00    +0.000 HD
ENDBRANCH   3  18
BRANCH   4  20
ATOM     20  C5* UNL     1     -33.334  44.753  -5.189  0.00  0.00    +0.000 C 
BRANCH  20  21
ATOM     21  O5* UNL     1     -32.909  44.731  -3.930  0.00  0.00    +0.000 OA
ATOM     22  H5* UNL     1     -33.650  44.915  -3.326  0.00  0.00    +0.000 HD
ENDBRANCH  20  21
ENDBRANCH   4  20
TORSDOF 5
ENDMDL
MODEL 8
REMARK VINA RESULT:      -4.7     14.981     16.112
REMARK  Name = 5azacytidine.pdbqt.pdb
REMARK  5 active torsions:
REMARK  status: ('A' for Active; 'I' for Inactive)
REMARK    1  A    between atoms: C2*_2  and  O2*_16
REMARK    2  A    between atoms: C3*_3  and  O3*_21
REMARK    3  A    between atoms: C4*_4  and  C5*_18
REMARK    4  A    between atoms: C1*_5  and  N_6
REMARK    5  A    between atoms: C5*_18  and  O5*_19
REMARK                            x       y       z     vdW  Elec       q    Type
REMARK                         _______ _______ _______ _____ _____    ______ ____
ROOT
ATOM      1  O4* UNL     1     -30.043  51.237   9.421  0.00  0.00    +0.000 OA
ATOM      2  C2* UNL     1     -29.403  52.164   7.408  0.00  0.00    +0.000 A 
ATOM      3  C3* UNL     1     -28.229  51.939   8.196  0.00  0.00    +0.000 A 
ATOM      4  C4* UNL     1     -28.643  51.353   9.438  0.00  0.00    +0.000 A 
ATOM      5  C1* UNL     1     -30.534  51.741   8.197  0.00  0.00    +0.000 A 
ENDROOT
BRANCH   5   6
ATOM      6  N   UNL     1     -31.872  51.806   7.946  0.00  0.00    +0.000 N 
ATOM      7  C   UNL     1     -32.625  52.941   7.671  0.00  0.00    +0.000 A 
ATOM      8  O   UNL     1     -32.158  54.078   7.654  0.00  0.00    +0.000 OA
ATOM      9  N   UNL     1     -33.976  52.708   7.430  0.00  0.00    +0.000 NA
ATOM     10  C   UNL     1     -34.459  51.492   7.473  0.00  0.00    +0.000 A 
ATOM     11  N   UNL     1     -33.710  50.368   7.777  0.00  0.00    +0.000 NA
ATOM     12  C   UNL     1     -32.603  50.693   7.943  0.00  0.00    +0.000 A 
ATOM     13  N   UNL     1     -35.782  51.313   7.228  0.00  0.00    +0.000 N 
ATOM     14  H   UNL     1     -36.178  50.485   7.652  0.00  0.00    +0.000 HD
ATOM     15  H   UNL     1     -36.333  52.156   7.341  0.00  0.00    +0.000 HD
ENDBRANCH   5   6
BRANCH   2  16
ATOM     16  O2* UNL     1     -29.419  53.178   6.491  0.00  0.00    +0.000 OA
ATOM     17  H2* UNL     1     -28.703  53.831   6.653  0.00  0.00    +0.000 HD
ENDBRANCH   2  16
BRANCH   3  18
ATOM     18  O3* UNL     1     -27.147  52.770   8.104  0.00  0.00    +0.000 OA
ATOM     19  H3* UNL     1     -26.340  52.294   8.374  0.00  0.00    +0.000 HD
ENDBRANCH   3  18
BRANCH   4  20
ATOM     20  C5* UNL     1     -27.888  51.213  10.618  0.00  0.00    +0.000 C 
BRANCH  20  21
ATOM     21  O5* UNL     1     -27.182  51.075  11.736  0.00  0.00    +0.000 OA
ATOM     22  H5* UNL     1     -26.934  51.949  12.084  0.00  0.00    +0.000 HD
ENDBRANCH  20  21
ENDBRANCH   4  20
TORSDOF 5
ENDMDL
MODEL 9
REMARK VINA RESULT:      -4.6     14.504     15.203
REMARK  Name = 5azacytidine.pdbqt.pdb
REMARK  5 active torsions:
REMARK  status: ('A' for Active; 'I' for Inactive)
REMARK    1  A    between atoms: C2*_2  and  O2*_16
REMARK    2  A    between atoms: C3*_3  and  O3*_21
REMARK    3  A    between atoms: C4*_4  and  C5*_18
REMARK    4  A    between atoms: C1*_5  and  N_6
REMARK    5  A    between atoms: C5*_18  and  O5*_19
REMARK                            x       y       z     vdW  Elec       q    Type
REMARK                         _______ _______ _______ _____ _____    ______ ____
ROOT
ATOM      1  O4* UNL     1     -31.467  50.221   7.914  0.00  0.00    +0.000 OA
ATOM      2  C2* UNL     1     -30.312  51.863   6.779  0.00  0.00    +0.000 A 
ATOM      3  C3* UNL     1     -29.431  50.755   6.989  0.00  0.00    +0.000 A 
ATOM      4  C4* UNL     1     -30.167  49.739   7.685  0.00  0.00    +0.000 A 
ATOM      5  C1* UNL     1     -31.577  51.524   7.384  0.00  0.00    +0.000 A 
ENDROOT
BRANCH   5   6
ATOM      6  N   UNL     1     -32.722  52.251   7.528  0.00  0.00    +0.000 N 
ATOM      7  C   UNL     1     -32.840  53.555   7.992  0.00  0.00    +0.000 A 
ATOM      8  O   UNL     1     -31.886  54.229   8.376  0.00  0.00    +0.000 OA
ATOM      9  N   UNL     1     -34.138  54.057   8.012  0.00  0.00    +0.000 NA
ATOM     10  C   UNL     1     -35.144  53.317   7.617  0.00  0.00    +0.000 A 
ATOM     11  N   UNL     1     -35.023  52.008   7.184  0.00  0.00    +0.000 NA
ATOM     12  C   UNL     1     -33.895  51.714   7.201  0.00  0.00    +0.000 A 
ATOM     13  N   UNL     1     -36.391  53.851   7.651  0.00  0.00    +0.000 N 
ATOM     14  H   UNL     1     -37.135  53.171   7.738  0.00  0.00    +0.000 HD
ATOM     15  H   UNL     1     -36.472  54.653   8.265  0.00  0.00    +0.000 HD
ENDBRANCH   5   6
BRANCH   2  16
ATOM     16  O2* UNL     1     -29.799  53.128   6.686  0.00  0.00    +0.000 OA
ATOM     17  H2* UNL     1     -29.216  53.344   7.446  0.00  0.00    +0.000 HD
ENDBRANCH   2  16
BRANCH   3  18
ATOM     18  O3* UNL     1     -28.090  50.944   7.176  0.00  0.00    +0.000 OA
ATOM     19  H3* UNL     1     -27.796  50.465   7.974  0.00  0.00    +0.000 HD
ENDBRANCH   3  18
BRANCH   4  20
ATOM     20  C5* UNL     1     -29.656  48.602   8.341  0.00  0.00    +0.000 C 
BRANCH  20  21
ATOM     21  O5* UNL     1     -29.165  47.531   8.957  0.00  0.00    +0.000 OA
ATOM     22  H5* UNL     1     -28.289  47.735   9.330  0.00  0.00    +0.000 HD
ENDBRANCH  20  21
ENDBRANCH   4  20
TORSDOF 5
ENDMDL
