MODEL 1
REMARK VINA RESULT:      -5.9      0.000      0.000
REMARK  Name = 60953_Capecitabine.pdbqt.pdb
REMARK  6 active torsions:
REMARK  status: ('A' for Active; 'I' for Inactive)
REMARK    1  A    between atoms: N_4  and  C_16
REMARK    2  A    between atoms: C_11  and  O_23
REMARK    3  A    between atoms: C_14  and  O_19
REMARK    4  A    between atoms: C_15  and  O_21
REMARK    5  A    between atoms: O_23  and  C_24
REMARK    6  A    between atoms: C_25  and  C_26
REMARK                            x       y       z     vdW  Elec       q    Type
REMARK                         _______ _______ _______ _____ _____    ______ ____
ROOT
ATOM      1  F   UNL     1     -36.770  46.673 -14.644  0.00  0.00    +0.000 F 
ATOM      2  O   UNL     1     -32.498  46.545 -17.875  0.00  0.00    +0.000 OA
ATOM      3  O   UNL     1     -32.501  44.227 -13.816  0.00  0.00    +0.000 OA
ATOM      4  N   UNL     1     -34.570  47.471 -17.377  0.00  0.00    +0.000 N 
ATOM      5  N   UNL     1     -33.442  45.988 -15.865  0.00  0.00    +0.000 NA
ATOM      6  N   UNL     1     -34.497  45.422 -13.836  0.00  0.00    +0.000 N 
ATOM      7  C   UNL     1     -35.529  47.523 -16.430  0.00  0.00    +0.000 C 
ATOM      8  C   UNL     1     -33.437  46.666 -17.091  0.00  0.00    +0.000 C 
ATOM      9  C   UNL     1     -35.619  46.992 -15.262  0.00  0.00    +0.000 C 
ATOM     10  C   UNL     1     -34.433  46.108 -15.031  0.00  0.00    +0.000 C 
ATOM     11  C   UNL     1     -33.575  44.537 -13.323  0.00  0.00    +0.000 C 
ATOM     12  H   UNL     1     -35.316  45.542 -13.257  0.00  0.00    +0.000 HD
ENDROOT
BRANCH   4  16
ATOM     13  O   UNL     1     -34.829  47.584 -19.781  0.00  0.00    +0.000 OA
ATOM     14  C   UNL     1     -34.859  49.635 -18.726  0.00  0.00    +0.000 A 
ATOM     15  C   UNL     1     -34.957  49.853 -20.137  0.00  0.00    +0.000 A 
ATOM     16  C   UNL     1     -34.752  48.210 -18.516  0.00  0.00    +0.000 A 
ATOM     17  C   UNL     1     -34.950  48.566 -20.776  0.00  0.00    +0.000 A 
ATOM     18  C   UNL     1     -34.783  48.189 -22.208  0.00  0.00    +0.000 C 
BRANCH  14  19
ATOM     19  O   UNL     1     -34.289  50.593 -17.936  0.00  0.00    +0.000 OA
ATOM     20  H   UNL     1     -33.505  51.006 -18.362  0.00  0.00    +0.000 HD
ENDBRANCH  14  19
BRANCH  15  21
ATOM     21  O   UNL     1     -34.454  50.990 -20.713  0.00  0.00    +0.000 OA
ATOM     22  H   UNL     1     -34.473  51.731 -20.077  0.00  0.00    +0.000 HD
ENDBRANCH  15  21
ENDBRANCH   4  16
BRANCH  11  23
ATOM     23  O   UNL     1     -34.054  44.054 -12.137  0.00  0.00    +0.000 OA
BRANCH  23  24
ATOM     24  C   UNL     1     -34.824  44.888 -11.441  0.00  0.00    +0.000 C 
ATOM     25  C   UNL     1     -35.712  45.846 -10.641  0.00  0.00    +0.000 C 
BRANCH  25  26
ATOM     26  C   UNL     1     -36.601  46.802  -9.841  0.00  0.00    +0.000 C 
ATOM     27  C   UNL     1     -37.487  47.757  -9.036  0.00  0.00    +0.000 C 
ATOM     28  C   UNL     1     -38.363  48.715  -8.221  0.00  0.00    +0.000 C 
ENDBRANCH  25  26
ENDBRANCH  23  24
ENDBRANCH  11  23
TORSDOF 6
ENDMDL
MODEL 2
REMARK VINA RESULT:      -5.8      4.246      5.865
REMARK  Name = 60953_Capecitabine.pdbqt.pdb
REMARK  6 active torsions:
REMARK  status: ('A' for Active; 'I' for Inactive)
REMARK    1  A    between atoms: N_4  and  C_16
REMARK    2  A    between atoms: C_11  and  O_23
REMARK    3  A    between atoms: C_14  and  O_19
REMARK    4  A    between atoms: C_15  and  O_21
REMARK    5  A    between atoms: O_23  and  C_24
REMARK    6  A    between atoms: C_25  and  C_26
REMARK                            x       y       z     vdW  Elec       q    Type
REMARK                         _______ _______ _______ _____ _____    ______ ____
ROOT
ATOM      1  F   UNL     1     -33.102  44.768 -10.601  0.00  0.00    +0.000 F 
ATOM      2  O   UNL     1     -34.374  45.911 -15.678  0.00  0.00    +0.000 OA
ATOM      3  O   UNL     1     -37.225  47.100 -12.169  0.00  0.00    +0.000 OA
ATOM      4  N   UNL     1     -32.972  44.799 -14.196  0.00  0.00    +0.000 N 
ATOM      5  N   UNL     1     -34.983  45.889 -13.471  0.00  0.00    +0.000 NA
ATOM      6  N   UNL     1     -35.520  45.865 -11.177  0.00  0.00    +0.000 N 
ATOM      7  C   UNL     1     -32.822  44.463 -12.899  0.00  0.00    +0.000 C 
ATOM      8  C   UNL     1     -34.128  45.551 -14.529  0.00  0.00    +0.000 C 
ATOM      9  C   UNL     1     -33.556  44.670 -11.862  0.00  0.00    +0.000 C 
ATOM     10  C   UNL     1     -34.729  45.515 -12.252  0.00  0.00    +0.000 C 
ATOM     11  C   UNL     1     -36.667  46.627 -11.190  0.00  0.00    +0.000 C 
ATOM     12  H   UNL     1     -35.238  45.564 -10.255  0.00  0.00    +0.000 HD
ENDROOT
BRANCH   4  16
ATOM     13  O   UNL     1     -32.259  43.265 -15.927  0.00  0.00    +0.000 OA
ATOM     14  C   UNL     1     -30.677  44.840 -15.344  0.00  0.00    +0.000 A 
ATOM     15  C   UNL     1     -30.104  43.967 -16.323  0.00  0.00    +0.000 A 
ATOM     16  C   UNL     1     -32.020  44.373 -15.084  0.00  0.00    +0.000 A 
ATOM     17  C   UNL     1     -31.106  43.002 -16.683  0.00  0.00    +0.000 A 
ATOM     18  C   UNL     1     -31.003  41.730 -17.452  0.00  0.00    +0.000 C 
BRANCH  14  19
ATOM     19  O   UNL     1     -29.865  45.452 -14.432  0.00  0.00    +0.000 OA
ATOM     20  H   UNL     1     -29.794  44.940 -13.596  0.00  0.00    +0.000 HD
ENDBRANCH  14  19
BRANCH  15  21
ATOM     21  O   UNL     1     -28.759  43.707 -16.336  0.00  0.00    +0.000 OA
ATOM     22  H   UNL     1     -28.516  43.132 -15.585  0.00  0.00    +0.000 HD
ENDBRANCH  15  21
ENDBRANCH   4  16
BRANCH  11  23
ATOM     23  O   UNL     1     -37.108  46.766  -9.903  0.00  0.00    +0.000 OA
BRANCH  23  24
ATOM     24  C   UNL     1     -36.287  46.312  -8.958  0.00  0.00    +0.000 C 
ATOM     25  C   UNL     1     -35.341  45.793  -7.870  0.00  0.00    +0.000 C 
BRANCH  25  26
ATOM     26  C   UNL     1     -34.395  45.275  -6.783  0.00  0.00    +0.000 C 
ATOM     27  C   UNL     1     -33.445  44.763  -5.697  0.00  0.00    +0.000 C 
ATOM     28  C   UNL     1     -32.490  44.264  -4.607  0.00  0.00    +0.000 C 
ENDBRANCH  25  26
ENDBRANCH  23  24
ENDBRANCH  11  23
TORSDOF 6
ENDMDL
MODEL 3
REMARK VINA RESULT:      -5.8      4.279      9.160
REMARK  Name = 60953_Capecitabine.pdbqt.pdb
REMARK  6 active torsions:
REMARK  status: ('A' for Active; 'I' for Inactive)
REMARK    1  A    between atoms: N_4  and  C_16
REMARK    2  A    between atoms: C_11  and  O_23
REMARK    3  A    between atoms: C_14  and  O_19
REMARK    4  A    between atoms: C_15  and  O_21
REMARK    5  A    between atoms: O_23  and  C_24
REMARK    6  A    between atoms: C_25  and  C_26
REMARK                            x       y       z     vdW  Elec       q    Type
REMARK                         _______ _______ _______ _____ _____    ______ ____
ROOT
ATOM      1  F   UNL     1     -34.231  46.447 -20.839  0.00  0.00    +0.000 F 
ATOM      2  O   UNL     1     -33.109  46.830 -15.614  0.00  0.00    +0.000 OA
ATOM      3  O   UNL     1     -34.894  50.463 -17.953  0.00  0.00    +0.000 OA
ATOM      4  N   UNL     1     -32.948  45.608 -17.584  0.00  0.00    +0.000 N 
ATOM      5  N   UNL     1     -33.783  47.858 -17.546  0.00  0.00    +0.000 NA
ATOM      6  N   UNL     1     -34.503  48.832 -19.566  0.00  0.00    +0.000 N 
ATOM      7  C   UNL     1     -33.158  45.674 -18.914  0.00  0.00    +0.000 C 
ATOM      8  C   UNL     1     -33.263  46.770 -16.832  0.00  0.00    +0.000 C 
ATOM      9  C   UNL     1     -33.578  46.621 -19.677  0.00  0.00    +0.000 C 
ATOM     10  C   UNL     1     -33.951  47.801 -18.834  0.00  0.00    +0.000 C 
ATOM     11  C   UNL     1     -34.948  50.050 -19.102  0.00  0.00    +0.000 C 
ATOM     12  H   UNL     1     -34.633  48.700 -20.559  0.00  0.00    +0.000 HD
ENDROOT
BRANCH   4  16
ATOM     13  O   UNL     1     -33.218  43.598 -16.263  0.00  0.00    +0.000 OA
ATOM     14  C   UNL     1     -31.112  43.864 -17.165  0.00  0.00    +0.000 A 
ATOM     15  C   UNL     1     -31.112  42.679 -16.363  0.00  0.00    +0.000 A 
ATOM     16  C   UNL     1     -32.431  44.447 -17.072  0.00  0.00    +0.000 A 
ATOM     17  C   UNL     1     -32.434  42.522 -15.820  0.00  0.00    +0.000 A 
ATOM     18  C   UNL     1     -32.946  41.629 -14.743  0.00  0.00    +0.000 C 
BRANCH  14  19
ATOM     19  O   UNL     1     -29.951  44.565 -17.328  0.00  0.00    +0.000 OA
ATOM     20  H   UNL     1     -29.929  45.054 -18.181  0.00  0.00    +0.000 HD
ENDBRANCH  14  19
BRANCH  15  21
ATOM     21  O   UNL     1     -29.975  42.256 -15.726  0.00  0.00    +0.000 OA
ATOM     22  H   UNL     1     -29.658  42.940 -15.105  0.00  0.00    +0.000 HD
ENDBRANCH  15  21
ENDBRANCH   4  16
BRANCH  11  23
ATOM     23  O   UNL     1     -35.460  50.753 -20.156  0.00  0.00    +0.000 OA
BRANCH  23  24
ATOM     24  C   UNL     1     -35.128  50.307 -21.365  0.00  0.00    +0.000 C 
ATOM     25  C   UNL     1     -34.744  49.796 -22.758  0.00  0.00    +0.000 C 
BRANCH  25  26
ATOM     26  C   UNL     1     -34.361  49.287 -24.151  0.00  0.00    +0.000 C 
ATOM     27  C   UNL     1     -33.981  48.772 -25.542  0.00  0.00    +0.000 C 
ATOM     28  C   UNL     1     -33.612  48.248 -26.934  0.00  0.00    +0.000 C 
ENDBRANCH  25  26
ENDBRANCH  23  24
ENDBRANCH  11  23
TORSDOF 6
ENDMDL
MODEL 4
REMARK VINA RESULT:      -5.7      5.282     11.263
REMARK  Name = 60953_Capecitabine.pdbqt.pdb
REMARK  6 active torsions:
REMARK  status: ('A' for Active; 'I' for Inactive)
REMARK    1  A    between atoms: N_4  and  C_16
REMARK    2  A    between atoms: C_11  and  O_23
REMARK    3  A    between atoms: C_14  and  O_19
REMARK    4  A    between atoms: C_15  and  O_21
REMARK    5  A    between atoms: O_23  and  C_24
REMARK    6  A    between atoms: C_25  and  C_26
REMARK                            x       y       z     vdW  Elec       q    Type
REMARK                         _______ _______ _______ _____ _____    ______ ____
ROOT
ATOM      1  F   UNL     1     -34.017  42.413 -10.534  0.00  0.00    +0.000 F 
ATOM      2  O   UNL     1     -35.338  46.199  -6.981  0.00  0.00    +0.000 OA
ATOM      3  O   UNL     1     -36.315  46.730 -11.522  0.00  0.00    +0.000 OA
ATOM      4  N   UNL     1     -34.198  44.225  -7.431  0.00  0.00    +0.000 N 
ATOM      5  N   UNL     1     -35.211  45.535  -9.168  0.00  0.00    +0.000 NA
ATOM      6  N   UNL     1     -35.080  44.762 -11.390  0.00  0.00    +0.000 N 
ATOM      7  C   UNL     1     -33.813  43.406  -8.430  0.00  0.00    +0.000 C 
ATOM      8  C   UNL     1     -34.937  45.378  -7.803  0.00  0.00    +0.000 C 
ATOM      9  C   UNL     1     -33.960  43.471  -9.706  0.00  0.00    +0.000 C 
ATOM     10  C   UNL     1     -34.793  44.669 -10.044  0.00  0.00    +0.000 C 
ATOM     11  C   UNL     1     -35.816  45.737 -12.028  0.00  0.00    +0.000 C 
ATOM     12  H   UNL     1     -34.749  44.032 -12.004  0.00  0.00    +0.000 HD
ENDROOT
BRANCH   4  16
ATOM     13  O   UNL     1     -34.390  42.771  -5.505  0.00  0.00    +0.000 OA
ATOM     14  C   UNL     1     -32.931  44.535  -5.221  0.00  0.00    +0.000 A 
ATOM     15  C   UNL     1     -32.994  43.801  -3.994  0.00  0.00    +0.000 A 
ATOM     16  C   UNL     1     -33.831  43.896  -6.153  0.00  0.00    +0.000 A 
ATOM     17  C   UNL     1     -33.896  42.700  -4.193  0.00  0.00    +0.000 A 
ATOM     18  C   UNL     1     -34.527  41.767  -3.218  0.00  0.00    +0.000 C 
BRANCH  14  19
ATOM     19  O   UNL     1     -32.646  45.871  -5.191  0.00  0.00    +0.000 OA
ATOM     20  H   UNL     1     -33.459  46.424  -5.179  0.00  0.00    +0.000 HD
ENDBRANCH  14  19
BRANCH  15  21
ATOM     21  O   UNL     1     -32.811  44.424  -2.788  0.00  0.00    +0.000 OA
ATOM     22  H   UNL     1     -33.663  44.522  -2.322  0.00  0.00    +0.000 HD
ENDBRANCH  15  21
ENDBRANCH   4  16
BRANCH  11  23
ATOM     23  O   UNL     1     -35.891  45.421 -13.356  0.00  0.00    +0.000 OA
BRANCH  23  24
ATOM     24  C   UNL     1     -34.747  45.054 -13.929  0.00  0.00    +0.000 C 
ATOM     25  C   UNL     1     -33.429  44.633 -14.588  0.00  0.00    +0.000 C 
BRANCH  25  26
ATOM     26  C   UNL     1     -32.112  44.214 -15.246  0.00  0.00    +0.000 C 
ATOM     27  C   UNL     1     -30.795  43.801 -15.909  0.00  0.00    +0.000 C 
ATOM     28  C   UNL     1     -29.475  43.399 -16.577  0.00  0.00    +0.000 C 
ENDBRANCH  25  26
ENDBRANCH  23  24
ENDBRANCH  11  23
TORSDOF 6
ENDMDL
MODEL 5
REMARK VINA RESULT:      -5.6      4.905     10.238
REMARK  Name = 60953_Capecitabine.pdbqt.pdb
REMARK  6 active torsions:
REMARK  status: ('A' for Active; 'I' for Inactive)
REMARK    1  A    between atoms: N_4  and  C_16
REMARK    2  A    between atoms: C_11  and  O_23
REMARK    3  A    between atoms: C_14  and  O_19
REMARK    4  A    between atoms: C_15  and  O_21
REMARK    5  A    between atoms: O_23  and  C_24
REMARK    6  A    between atoms: C_25  and  C_26
REMARK                            x       y       z     vdW  Elec       q    Type
REMARK                         _______ _______ _______ _____ _____    ______ ____
ROOT
ATOM      1  F   UNL     1     -35.883  46.869  -9.391  0.00  0.00    +0.000 F 
ATOM      2  O   UNL     1     -32.167  43.041  -8.900  0.00  0.00    +0.000 OA
ATOM      3  O   UNL     1     -33.388  44.669 -13.109  0.00  0.00    +0.000 OA
ATOM      4  N   UNL     1     -33.814  44.334  -7.894  0.00  0.00    +0.000 N 
ATOM      5  N   UNL     1     -33.479  44.324 -10.270  0.00  0.00    +0.000 NA
ATOM      6  N   UNL     1     -34.836  45.705 -11.612  0.00  0.00    +0.000 N 
ATOM      7  C   UNL     1     -34.813  45.202  -8.154  0.00  0.00    +0.000 C 
ATOM      8  C   UNL     1     -33.094  43.840  -9.012  0.00  0.00    +0.000 C 
ATOM      9  C   UNL     1     -35.284  45.674  -9.254  0.00  0.00    +0.000 C 
ATOM     10  C   UNL     1     -34.457  45.171 -10.397  0.00  0.00    +0.000 C 
ATOM     11  C   UNL     1     -34.288  45.453 -12.850  0.00  0.00    +0.000 C 
ATOM     12  H   UNL     1     -35.584  46.385 -11.625  0.00  0.00    +0.000 HD
ENDROOT
BRANCH   4  16
ATOM     13  O   UNL     1     -34.180  42.824  -6.038  0.00  0.00    +0.000 OA
ATOM     14  C   UNL     1     -32.835  44.631  -5.541  0.00  0.00    +0.000 A 
ATOM     15  C   UNL     1     -33.017  43.862  -4.347  0.00  0.00    +0.000 A 
ATOM     16  C   UNL     1     -33.591  43.984  -6.588  0.00  0.00    +0.000 A 
ATOM     17  C   UNL     1     -33.845  42.735  -4.678  0.00  0.00    +0.000 A 
ATOM     18  C   UNL     1     -34.552  41.755  -3.807  0.00  0.00    +0.000 C 
BRANCH  14  19
ATOM     19  O   UNL     1     -32.607  45.974  -5.447  0.00  0.00    +0.000 OA
ATOM     20  H   UNL     1     -33.359  46.449  -5.027  0.00  0.00    +0.000 HD
ENDBRANCH  14  19
BRANCH  15  21
ATOM     21  O   UNL     1     -33.005  44.459  -3.114  0.00  0.00    +0.000 OA
ATOM     22  H   UNL     1     -32.139  44.878  -2.946  0.00  0.00    +0.000 HD
ENDBRANCH  15  21
ENDBRANCH   4  16
BRANCH  11  23
ATOM     23  O   UNL     1     -34.935  46.225 -13.773  0.00  0.00    +0.000 OA
BRANCH  23  24
ATOM     24  C   UNL     1     -36.055  46.811 -13.356  0.00  0.00    +0.000 C 
ATOM     25  C   UNL     1     -37.344  47.487 -12.875  0.00  0.00    +0.000 C 
BRANCH  25  26
ATOM     26  C   UNL     1     -38.631  48.164 -12.395  0.00  0.00    +0.000 C 
ATOM     27  C   UNL     1     -39.919  48.835 -11.910  0.00  0.00    +0.000 C 
ATOM     28  C   UNL     1     -41.209  49.498 -11.415  0.00  0.00    +0.000 C 
ENDBRANCH  25  26
ENDBRANCH  23  24
ENDBRANCH  11  23
TORSDOF 6
ENDMDL
MODEL 6
REMARK VINA RESULT:      -5.6     18.047     20.297
REMARK  Name = 60953_Capecitabine.pdbqt.pdb
REMARK  6 active torsions:
REMARK  status: ('A' for Active; 'I' for Inactive)
REMARK    1  A    between atoms: N_4  and  C_16
REMARK    2  A    between atoms: C_11  and  O_23
REMARK    3  A    between atoms: C_14  and  O_19
REMARK    4  A    between atoms: C_15  and  O_21
REMARK    5  A    between atoms: O_23  and  C_24
REMARK    6  A    between atoms: C_25  and  C_26
REMARK                            x       y       z     vdW  Elec       q    Type
REMARK                         _______ _______ _______ _____ _____    ______ ____
ROOT
ATOM      1  F   UNL     1     -31.356  59.816 -29.811  0.00  0.00    +0.000 F 
ATOM      2  O   UNL     1     -27.979  62.187 -26.394  0.00  0.00    +0.000 OA
ATOM      3  O   UNL     1     -26.404  60.178 -30.311  0.00  0.00    +0.000 OA
ATOM      4  N   UNL     1     -30.128  61.422 -26.835  0.00  0.00    +0.000 N 
ATOM      5  N   UNL     1     -28.280  60.934 -28.287  0.00  0.00    +0.000 NA
ATOM      6  N   UNL     1     -28.676  59.679 -30.240  0.00  0.00    +0.000 N 
ATOM      7  C   UNL     1     -30.857  60.696 -27.707  0.00  0.00    +0.000 C 
ATOM      8  C   UNL     1     -28.744  61.553 -27.118  0.00  0.00    +0.000 C 
ATOM      9  C   UNL     1     -30.537  60.047 -28.771  0.00  0.00    +0.000 C 
ATOM     10  C   UNL     1     -29.083  60.263 -29.059  0.00  0.00    +0.000 C 
ATOM     11  C   UNL     1     -27.414  59.687 -30.792  0.00  0.00    +0.000 C 
ATOM     12  H   UNL     1     -29.367  59.203 -30.804  0.00  0.00    +0.000 HD
ENDROOT
BRANCH   4  16
ATOM     13  O   UNL     1     -31.710  62.995 -25.896  0.00  0.00    +0.000 OA
ATOM     14  C   UNL     1     -30.654  61.665 -24.335  0.00  0.00    +0.000 A 
ATOM     15  C   UNL     1     -31.506  62.583 -23.642  0.00  0.00    +0.000 A 
ATOM     16  C   UNL     1     -30.770  61.951 -25.747  0.00  0.00    +0.000 A 
ATOM     17  C   UNL     1     -32.165  63.393 -24.629  0.00  0.00    +0.000 A 
ATOM     18  C   UNL     1     -32.957  64.647 -24.491  0.00  0.00    +0.000 C 
BRANCH  14  19
ATOM     19  O   UNL     1     -29.532  61.192 -23.716  0.00  0.00    +0.000 OA
ATOM     20  H   UNL     1     -28.712  61.417 -24.212  0.00  0.00    +0.000 HD
ENDBRANCH  14  19
BRANCH  15  21
ATOM     21  O   UNL     1     -31.194  63.023 -22.383  0.00  0.00    +0.000 OA
ATOM     22  H   UNL     1     -30.632  63.820 -22.430  0.00  0.00    +0.000 HD
ENDBRANCH  15  21
ENDBRANCH   4  16
BRANCH  11  23
ATOM     23  O   UNL     1     -27.462  59.028 -31.989  0.00  0.00    +0.000 OA
BRANCH  23  24
ATOM     24  C   UNL     1     -28.533  58.263 -32.186  0.00  0.00    +0.000 C 
ATOM     25  C   UNL     1     -29.765  57.380 -32.414  0.00  0.00    +0.000 C 
BRANCH  25  26
ATOM     26  C   UNL     1     -30.995  56.497 -32.644  0.00  0.00    +0.000 C 
ATOM     27  C   UNL     1     -32.225  55.616 -32.881  0.00  0.00    +0.000 C 
ATOM     28  C   UNL     1     -33.453  54.734 -33.130  0.00  0.00    +0.000 C 
ENDBRANCH  25  26
ENDBRANCH  23  24
ENDBRANCH  11  23
TORSDOF 6
ENDMDL
MODEL 7
REMARK VINA RESULT:      -5.6      3.869      9.145
REMARK  Name = 60953_Capecitabine.pdbqt.pdb
REMARK  6 active torsions:
REMARK  status: ('A' for Active; 'I' for Inactive)
REMARK    1  A    between atoms: N_4  and  C_16
REMARK    2  A    between atoms: C_11  and  O_23
REMARK    3  A    between atoms: C_14  and  O_19
REMARK    4  A    between atoms: C_15  and  O_21
REMARK    5  A    between atoms: O_23  and  C_24
REMARK    6  A    between atoms: C_25  and  C_26
REMARK                            x       y       z     vdW  Elec       q    Type
REMARK                         _______ _______ _______ _____ _____    ______ ____
ROOT
ATOM      1  F   UNL     1     -34.414  47.277 -20.830  0.00  0.00    +0.000 F 
ATOM      2  O   UNL     1     -34.401  48.329 -15.577  0.00  0.00    +0.000 OA
ATOM      3  O   UNL     1     -36.548  51.189 -18.588  0.00  0.00    +0.000 OA
ATOM      4  N   UNL     1     -33.589  47.046 -17.336  0.00  0.00    +0.000 N 
ATOM      5  N   UNL     1     -34.936  48.999 -17.701  0.00  0.00    +0.000 NA
ATOM      6  N   UNL     1     -35.484  49.599 -19.912  0.00  0.00    +0.000 N 
ATOM      7  C   UNL     1     -33.560  46.955 -18.681  0.00  0.00    +0.000 C 
ATOM      8  C   UNL     1     -34.308  48.140 -16.788  0.00  0.00    +0.000 C 
ATOM      9  C   UNL     1     -34.048  47.701 -19.609  0.00  0.00    +0.000 C 
ATOM     10  C   UNL     1     -34.845  48.804 -18.983  0.00  0.00    +0.000 C 
ATOM     11  C   UNL     1     -36.288  50.692 -19.673  0.00  0.00    +0.000 C 
ATOM     12  H   UNL     1     -35.393  49.363 -20.890  0.00  0.00    +0.000 HD
ENDROOT
BRANCH   4  16
ATOM     13  O   UNL     1     -31.693  45.562 -17.087  0.00  0.00    +0.000 OA
ATOM     14  C   UNL     1     -33.222  45.446 -15.363  0.00  0.00    +0.000 A 
ATOM     15  C   UNL     1     -32.195  44.479 -15.120  0.00  0.00    +0.000 A 
ATOM     16  C   UNL     1     -32.911  46.100 -16.613  0.00  0.00    +0.000 A 
ATOM     17  C   UNL     1     -31.246  44.575 -16.195  0.00  0.00    +0.000 A 
ATOM     18  C   UNL     1     -30.131  43.671 -16.595  0.00  0.00    +0.000 C 
BRANCH  14  19
ATOM     19  O   UNL     1     -34.481  45.225 -14.882  0.00  0.00    +0.000 OA
ATOM     20  H   UNL     1     -35.138  45.102 -15.603  0.00  0.00    +0.000 HD
ENDBRANCH  14  19
BRANCH  15  21
ATOM     21  O   UNL     1     -32.464  43.318 -14.445  0.00  0.00    +0.000 OA
ATOM     22  H   UNL     1     -32.816  43.514 -13.556  0.00  0.00    +0.000 HD
ENDBRANCH  15  21
ENDBRANCH   4  16
BRANCH  11  23
ATOM     23  O   UNL     1     -36.751  51.157 -20.872  0.00  0.00    +0.000 OA
BRANCH  23  24
ATOM     24  C   UNL     1     -36.165  50.651 -21.955  0.00  0.00    +0.000 C 
ATOM     25  C   UNL     1     -35.491  50.067 -23.201  0.00  0.00    +0.000 C 
BRANCH  25  26
ATOM     26  C   UNL     1     -34.818  49.481 -24.445  0.00  0.00    +0.000 C 
ATOM     27  C   UNL     1     -34.142  48.890 -25.686  0.00  0.00    +0.000 C 
ATOM     28  C   UNL     1     -33.466  48.286 -26.922  0.00  0.00    +0.000 C 
ENDBRANCH  25  26
ENDBRANCH  23  24
ENDBRANCH  11  23
TORSDOF 6
ENDMDL
MODEL 8
REMARK VINA RESULT:      -5.5      4.770     10.963
REMARK  Name = 60953_Capecitabine.pdbqt.pdb
REMARK  6 active torsions:
REMARK  status: ('A' for Active; 'I' for Inactive)
REMARK    1  A    between atoms: N_4  and  C_16
REMARK    2  A    between atoms: C_11  and  O_23
REMARK    3  A    between atoms: C_14  and  O_19
REMARK    4  A    between atoms: C_15  and  O_21
REMARK    5  A    between atoms: O_23  and  C_24
REMARK    6  A    between atoms: C_25  and  C_26
REMARK                            x       y       z     vdW  Elec       q    Type
REMARK                         _______ _______ _______ _____ _____    ______ ____
ROOT
ATOM      1  F   UNL     1     -36.567  46.996  -8.685  0.00  0.00    +0.000 F 
ATOM      2  O   UNL     1     -32.466  43.557  -8.923  0.00  0.00    +0.000 OA
ATOM      3  O   UNL     1     -34.271  45.405 -12.819  0.00  0.00    +0.000 OA
ATOM      4  N   UNL     1     -34.117  44.575  -7.645  0.00  0.00    +0.000 N 
ATOM      5  N   UNL     1     -34.032  44.807 -10.032  0.00  0.00    +0.000 NA
ATOM      6  N   UNL     1     -35.649  46.148 -11.098  0.00  0.00    +0.000 N 
ATOM      7  C   UNL     1     -35.217  45.351  -7.723  0.00  0.00    +0.000 C 
ATOM      8  C   UNL     1     -33.473  44.259  -8.869  0.00  0.00    +0.000 C 
ATOM      9  C   UNL     1     -35.844  45.864  -8.723  0.00  0.00    +0.000 C 
ATOM     10  C   UNL     1     -35.095  45.553  -9.982  0.00  0.00    +0.000 C 
ATOM     11  C   UNL     1     -35.211  46.063 -12.401  0.00  0.00    +0.000 C 
ATOM     12  H   UNL     1     -36.456  46.742 -10.974  0.00  0.00    +0.000 HD
ENDROOT
BRANCH   4  16
ATOM     13  O   UNL     1     -34.247  42.943  -5.861  0.00  0.00    +0.000 OA
ATOM     14  C   UNL     1     -32.833  44.713  -5.427  0.00  0.00    +0.000 A 
ATOM     15  C   UNL     1     -32.862  43.867  -4.273  0.00  0.00    +0.000 A 
ATOM     16  C   UNL     1     -33.727  44.138  -6.406  0.00  0.00    +0.000 A 
ATOM     17  C   UNL     1     -33.737  42.764  -4.566  0.00  0.00    +0.000 A 
ATOM     18  C   UNL     1     -34.330  41.727  -3.676  0.00  0.00    +0.000 C 
BRANCH  14  19
ATOM     19  O   UNL     1     -32.584  46.048  -5.275  0.00  0.00    +0.000 OA
ATOM     20  H   UNL     1     -33.041  46.590  -5.956  0.00  0.00    +0.000 HD
ENDBRANCH  14  19
BRANCH  15  21
ATOM     21  O   UNL     1     -32.682  44.380  -3.016  0.00  0.00    +0.000 OA
ATOM     22  H   UNL     1     -31.790  44.164  -2.684  0.00  0.00    +0.000 HD
ENDBRANCH  15  21
ENDBRANCH   4  16
BRANCH  11  23
ATOM     23  O   UNL     1     -36.022  46.840 -13.179  0.00  0.00    +0.000 OA
BRANCH  23  24
ATOM     24  C   UNL     1     -35.716  46.881 -14.474  0.00  0.00    +0.000 C 
ATOM     25  C   UNL     1     -35.365  46.930 -15.965  0.00  0.00    +0.000 C 
BRANCH  25  26
ATOM     26  C   UNL     1     -35.016  46.979 -17.455  0.00  0.00    +0.000 C 
ATOM     27  C   UNL     1     -34.671  47.023 -18.947  0.00  0.00    +0.000 C 
ATOM     28  C   UNL     1     -34.338  47.061 -20.442  0.00  0.00    +0.000 C 
ENDBRANCH  25  26
ENDBRANCH  23  24
ENDBRANCH  11  23
TORSDOF 6
ENDMDL
MODEL 9
REMARK VINA RESULT:      -5.5      3.322      6.578
REMARK  Name = 60953_Capecitabine.pdbqt.pdb
REMARK  6 active torsions:
REMARK  status: ('A' for Active; 'I' for Inactive)
REMARK    1  A    between atoms: N_4  and  C_16
REMARK    2  A    between atoms: C_11  and  O_23
REMARK    3  A    between atoms: C_14  and  O_19
REMARK    4  A    between atoms: C_15  and  O_21
REMARK    5  A    between atoms: O_23  and  C_24
REMARK    6  A    between atoms: C_25  and  C_26
REMARK                            x       y       z     vdW  Elec       q    Type
REMARK                         _______ _______ _______ _____ _____    ______ ____
ROOT
ATOM      1  F   UNL     1     -33.813  46.314 -14.224  0.00  0.00    +0.000 F 
ATOM      2  O   UNL     1     -31.194  44.910 -18.681  0.00  0.00    +0.000 OA
ATOM      3  O   UNL     1     -33.968  48.672 -18.618  0.00  0.00    +0.000 OA
ATOM      4  N   UNL     1     -31.836  44.369 -16.515  0.00  0.00    +0.000 N 
ATOM      5  N   UNL     1     -32.721  46.281 -17.664  0.00  0.00    +0.000 NA
ATOM      6  N   UNL     1     -34.251  47.672 -16.536  0.00  0.00    +0.000 N 
ATOM      7  C   UNL     1     -32.635  44.752 -15.498  0.00  0.00    +0.000 C 
ATOM      8  C   UNL     1     -31.875  45.163 -17.689  0.00  0.00    +0.000 C 
ATOM      9  C   UNL     1     -33.480  45.716 -15.380  0.00  0.00    +0.000 C 
ATOM     10  C   UNL     1     -33.441  46.558 -16.618  0.00  0.00    +0.000 C 
ATOM     11  C   UNL     1     -34.445  48.642 -17.494  0.00  0.00    +0.000 C 
ATOM     12  H   UNL     1     -34.755  47.838 -15.676  0.00  0.00    +0.000 HD
ENDROOT
BRANCH   4  16
ATOM     13  O   UNL     1     -31.681  41.969 -16.237  0.00  0.00    +0.000 OA
ATOM     14  C   UNL     1     -29.650  43.061 -16.200  0.00  0.00    +0.000 A 
ATOM     15  C   UNL     1     -29.417  41.669 -15.963  0.00  0.00    +0.000 A 
ATOM     16  C   UNL     1     -31.076  43.241 -16.343  0.00  0.00    +0.000 A 
ATOM     17  C   UNL     1     -30.690  41.003 -16.002  0.00  0.00    +0.000 A 
ATOM     18  C   UNL     1     -31.084  39.627 -15.589  0.00  0.00    +0.000 C 
BRANCH  14  19
ATOM     19  O   UNL     1     -28.787  43.985 -15.682  0.00  0.00    +0.000 OA
ATOM     20  H   UNL     1     -29.255  44.691 -15.182  0.00  0.00    +0.000 HD
ENDBRANCH  14  19
BRANCH  15  21
ATOM     21  O   UNL     1     -28.364  41.251 -15.193  0.00  0.00    +0.000 OA
ATOM     22  H   UNL     1     -27.700  40.794 -15.743  0.00  0.00    +0.000 HD
ENDBRANCH  15  21
ENDBRANCH   4  16
BRANCH  11  23
ATOM     23  O   UNL     1     -35.291  49.588 -16.984  0.00  0.00    +0.000 OA
BRANCH  23  24
ATOM     24  C   UNL     1     -36.020  49.208 -15.937  0.00  0.00    +0.000 C 
ATOM     25  C   UNL     1     -36.860  48.769 -14.733  0.00  0.00    +0.000 C 
BRANCH  25  26
ATOM     26  C   UNL     1     -37.701  48.329 -13.531  0.00  0.00    +0.000 C 
ATOM     27  C   UNL     1     -38.541  47.897 -12.326  0.00  0.00    +0.000 C 
ATOM     28  C   UNL     1     -39.386  47.476 -11.119  0.00  0.00    +0.000 C 
ENDBRANCH  25  26
ENDBRANCH  23  24
ENDBRANCH  11  23
TORSDOF 6
ENDMDL
