MODEL 1
REMARK VINA RESULT:      -5.7      0.000      0.000
REMARK  Name = 6223_Gliotoxin.pdbqt.pdb
REMARK  3 active torsions:
REMARK  status: ('A' for Active; 'I' for Inactive)
REMARK    1  A    between atoms: C_10  and  C_21
REMARK    2  A    between atoms: C_14  and  O_19
REMARK    3  A    between atoms: C_21  and  O_22
REMARK                            x       y       z     vdW  Elec       q    Type
REMARK                         _______ _______ _______ _____ _____    ______ ____
ROOT
ATOM      1  S   UNL     1     -36.919  43.757  -9.156  0.00  0.00    +0.000 S 
ATOM      2  S   UNL     1     -36.320  43.230 -11.059  0.00  0.00    +0.000 S 
ATOM      3  O   UNL     1     -32.904  44.324 -10.534  0.00  0.00    +0.000 OA
ATOM      4  O   UNL     1     -37.243  47.220  -9.886  0.00  0.00    +0.000 OA
ATOM      5  N   UNL     1     -34.548  45.125  -9.142  0.00  0.00    +0.000 N 
ATOM      6  N   UNL     1     -35.909  45.948 -11.346  0.00  0.00    +0.000 N 
ATOM      7  C   UNL     1     -36.019  45.334  -8.966  0.00  0.00    +0.000 C 
ATOM      8  C   UNL     1     -33.852  45.384  -7.961  0.00  0.00    +0.000 A 
ATOM      9  C   UNL     1     -36.073  45.849  -7.600  0.00  0.00    +0.000 C 
ATOM     10  C   UNL     1     -35.174  44.646 -11.471  0.00  0.00    +0.000 C 
ATOM     11  C   UNL     1     -34.827  45.955  -6.967  0.00  0.00    +0.000 A 
ATOM     12  C   UNL     1     -34.069  44.680 -10.368  0.00  0.00    +0.000 C 
ATOM     13  C   UNL     1     -36.452  46.294 -10.075  0.00  0.00    +0.000 C 
ATOM     14  C   UNL     1     -32.551  44.846  -7.500  0.00  0.00    +0.000 A 
ATOM     15  C   UNL     1     -34.519  45.693  -5.730  0.00  0.00    +0.000 A 
ATOM     16  C   UNL     1     -32.487  44.779  -6.065  0.00  0.00    +0.000 A 
ATOM     17  C   UNL     1     -36.170  46.696 -12.575  0.00  0.00    +0.000 C 
ATOM     18  C   UNL     1     -33.231  45.073  -5.166  0.00  0.00    +0.000 A 
ENDROOT
BRANCH  14  19
ATOM     19  O   UNL     1     -31.767  44.037  -8.270  0.00  0.00    +0.000 OA
ATOM     20  H   UNL     1     -31.042  44.517  -8.719  0.00  0.00    +0.000 HD
ENDBRANCH  14  19
BRANCH  10  21
ATOM     21  C   UNL     1     -34.573  44.394 -12.808  0.00  0.00    +0.000 C 
BRANCH  21  22
ATOM     22  O   UNL     1     -34.023  44.155 -14.002  0.00  0.00    +0.000 OA
ATOM     23  H   UNL     1     -34.530  44.582 -14.717  0.00  0.00    +0.000 HD
ENDBRANCH  21  22
ENDBRANCH  10  21
TORSDOF 3
ENDMDL
MODEL 2
REMARK VINA RESULT:      -5.6      5.588      9.364
REMARK  Name = 6223_Gliotoxin.pdbqt.pdb
REMARK  3 active torsions:
REMARK  status: ('A' for Active; 'I' for Inactive)
REMARK    1  A    between atoms: C_10  and  C_21
REMARK    2  A    between atoms: C_14  and  O_19
REMARK    3  A    between atoms: C_21  and  O_22
REMARK                            x       y       z     vdW  Elec       q    Type
REMARK                         _______ _______ _______ _____ _____    ______ ____
ROOT
ATOM      1  S   UNL     1     -34.921  44.701 -17.648  0.00  0.00    +0.000 S 
ATOM      2  S   UNL     1     -34.771  44.293 -15.630  0.00  0.00    +0.000 S 
ATOM      3  O   UNL     1     -34.537  47.791 -14.707  0.00  0.00    +0.000 OA
ATOM      4  O   UNL     1     -31.439  45.246 -18.109  0.00  0.00    +0.000 OA
ATOM      5  N   UNL     1     -34.070  47.186 -16.875  0.00  0.00    +0.000 N 
ATOM      6  N   UNL     1     -32.257  45.407 -15.910  0.00  0.00    +0.000 N 
ATOM      7  C   UNL     1     -33.707  46.057 -17.788  0.00  0.00    +0.000 C 
ATOM      8  C   UNL     1     -34.401  48.335 -17.594  0.00  0.00    +0.000 A 
ATOM      9  C   UNL     1     -33.751  46.717 -19.090  0.00  0.00    +0.000 C 
ATOM     10  C   UNL     1     -33.514  45.570 -15.107  0.00  0.00    +0.000 C 
ATOM     11  C   UNL     1     -34.102  48.074 -19.045  0.00  0.00    +0.000 A 
ATOM     12  C   UNL     1     -34.085  46.969 -15.503  0.00  0.00    +0.000 C 
ATOM     13  C   UNL     1     -32.339  45.554 -17.325  0.00  0.00    +0.000 C 
ATOM     14  C   UNL     1     -35.280  49.464 -17.208  0.00  0.00    +0.000 A 
ATOM     15  C   UNL     1     -34.864  48.744 -19.860  0.00  0.00    +0.000 A 
ATOM     16  C   UNL     1     -35.899  50.066 -18.358  0.00  0.00    +0.000 A 
ATOM     17  C   UNL     1     -31.064  44.935 -15.207  0.00  0.00    +0.000 C 
ATOM     18  C   UNL     1     -35.854  49.876 -19.544  0.00  0.00    +0.000 A 
ENDROOT
BRANCH  14  19
ATOM     19  O   UNL     1     -35.849  49.573 -15.972  0.00  0.00    +0.000 OA
ATOM     20  H   UNL     1     -35.848  48.732 -15.473  0.00  0.00    +0.000 HD
ENDBRANCH  14  19
BRANCH  10  21
ATOM     21  C   UNL     1     -33.330  45.477 -13.634  0.00  0.00    +0.000 C 
BRANCH  21  22
ATOM     22  O   UNL     1     -33.149  45.405 -12.312  0.00  0.00    +0.000 OA
ATOM     23  H   UNL     1     -33.990  45.229 -11.850  0.00  0.00    +0.000 HD
ENDBRANCH  21  22
ENDBRANCH  10  21
TORSDOF 3
ENDMDL
MODEL 3
REMARK VINA RESULT:      -5.2      6.752      8.974
REMARK  Name = 6223_Gliotoxin.pdbqt.pdb
REMARK  3 active torsions:
REMARK  status: ('A' for Active; 'I' for Inactive)
REMARK    1  A    between atoms: C_10  and  C_21
REMARK    2  A    between atoms: C_14  and  O_19
REMARK    3  A    between atoms: C_21  and  O_22
REMARK                            x       y       z     vdW  Elec       q    Type
REMARK                         _______ _______ _______ _____ _____    ______ ____
ROOT
ATOM      1  S   UNL     1     -33.850  42.541 -17.280  0.00  0.00    +0.000 S 
ATOM      2  S   UNL     1     -34.261  44.357 -18.171  0.00  0.00    +0.000 S 
ATOM      3  O   UNL     1     -30.766  45.293 -18.402  0.00  0.00    +0.000 OA
ATOM      4  O   UNL     1     -33.342  43.899 -14.036  0.00  0.00    +0.000 OA
ATOM      5  N   UNL     1     -31.375  43.651 -16.912  0.00  0.00    +0.000 N 
ATOM      6  N   UNL     1     -33.174  45.388 -15.848  0.00  0.00    +0.000 N 
ATOM      7  C   UNL     1     -32.507  43.039 -16.149  0.00  0.00    +0.000 C 
ATOM      8  C   UNL     1     -30.222  42.871 -16.825  0.00  0.00    +0.000 A 
ATOM      9  C   UNL     1     -31.846  41.896 -15.525  0.00  0.00    +0.000 C 
ATOM     10  C   UNL     1     -32.997  45.450 -17.337  0.00  0.00    +0.000 C 
ATOM     11  C   UNL     1     -30.486  41.766 -15.838  0.00  0.00    +0.000 A 
ATOM     12  C   UNL     1     -31.592  44.828 -17.618  0.00  0.00    +0.000 C 
ATOM     13  C   UNL     1     -33.025  44.126 -15.205  0.00  0.00    +0.000 C 
ATOM     14  C   UNL     1     -29.084  42.768 -17.769  0.00  0.00    +0.000 A 
ATOM     15  C   UNL     1     -29.807  40.682 -16.080  0.00  0.00    +0.000 A 
ATOM     16  C   UNL     1     -28.475  41.466 -17.719  0.00  0.00    +0.000 A 
ATOM     17  C   UNL     1     -33.658  46.593 -15.176  0.00  0.00    +0.000 C 
ATOM     18  C   UNL     1     -28.664  40.463 -17.084  0.00  0.00    +0.000 A 
ENDROOT
BRANCH  14  19
ATOM     19  O   UNL     1     -28.969  43.549 -18.882  0.00  0.00    +0.000 OA
ATOM     20  H   UNL     1     -29.370  44.435 -18.773  0.00  0.00    +0.000 HD
ENDBRANCH  14  19
BRANCH  10  21
ATOM     21  C   UNL     1     -33.093  46.815 -17.921  0.00  0.00    +0.000 C 
BRANCH  21  22
ATOM     22  O   UNL     1     -33.179  48.047 -18.427  0.00  0.00    +0.000 OA
ATOM     23  H   UNL     1     -32.842  48.713 -17.798  0.00  0.00    +0.000 HD
ENDBRANCH  21  22
ENDBRANCH  10  21
TORSDOF 3
ENDMDL
MODEL 4
REMARK VINA RESULT:      -5.2      7.675     11.559
REMARK  Name = 6223_Gliotoxin.pdbqt.pdb
REMARK  3 active torsions:
REMARK  status: ('A' for Active; 'I' for Inactive)
REMARK    1  A    between atoms: C_10  and  C_21
REMARK    2  A    between atoms: C_14  and  O_19
REMARK    3  A    between atoms: C_21  and  O_22
REMARK                            x       y       z     vdW  Elec       q    Type
REMARK                         _______ _______ _______ _____ _____    ______ ____
ROOT
ATOM      1  S   UNL     1     -36.135  45.613 -19.255  0.00  0.00    +0.000 S 
ATOM      2  S   UNL     1     -35.819  45.846 -17.229  0.00  0.00    +0.000 S 
ATOM      3  O   UNL     1     -34.368  49.147 -17.602  0.00  0.00    +0.000 OA
ATOM      4  O   UNL     1     -32.768  44.747 -19.993  0.00  0.00    +0.000 OA
ATOM      5  N   UNL     1     -34.445  47.760 -19.433  0.00  0.00    +0.000 N 
ATOM      6  N   UNL     1     -33.155  45.873 -17.965  0.00  0.00    +0.000 N 
ATOM      7  C   UNL     1     -34.594  46.347 -19.903  0.00  0.00    +0.000 C 
ATOM      8  C   UNL     1     -34.504  48.660 -20.498  0.00  0.00    +0.000 A 
ATOM      9  C   UNL     1     -34.625  46.530 -21.352  0.00  0.00    +0.000 C 
ATOM     10  C   UNL     1     -34.162  46.707 -17.229  0.00  0.00    +0.000 C 
ATOM     11  C   UNL     1     -34.523  47.862 -21.774  0.00  0.00    +0.000 A 
ATOM     12  C   UNL     1     -34.320  48.012 -18.073  0.00  0.00    +0.000 C 
ATOM     13  C   UNL     1     -33.398  45.579 -19.338  0.00  0.00    +0.000 C 
ATOM     14  C   UNL     1     -34.919  50.082 -20.505  0.00  0.00    +0.000 A 
ATOM     15  C   UNL     1     -35.151  48.457 -22.747  0.00  0.00    +0.000 A 
ATOM     16  C   UNL     1     -35.484  50.460 -21.771  0.00  0.00    +0.000 A 
ATOM     17  C   UNL     1     -32.077  45.269 -17.181  0.00  0.00    +0.000 C 
ATOM     18  C   UNL     1     -35.679  49.899 -22.817  0.00  0.00    +0.000 A 
ENDROOT
BRANCH  14  19
ATOM     19  O   UNL     1     -35.233  50.769 -19.368  0.00  0.00    +0.000 OA
ATOM     20  H   UNL     1     -35.976  51.395 -19.490  0.00  0.00    +0.000 HD
ENDBRANCH  14  19
BRANCH  10  21
ATOM     21  C   UNL     1     -33.797  47.031 -15.824  0.00  0.00    +0.000 C 
BRANCH  21  22
ATOM     22  O   UNL     1     -33.477  47.339 -14.565  0.00  0.00    +0.000 OA
ATOM     23  H   UNL     1     -34.275  47.448 -14.014  0.00  0.00    +0.000 HD
ENDBRANCH  21  22
ENDBRANCH  10  21
TORSDOF 3
ENDMDL
MODEL 5
REMARK VINA RESULT:      -5.1      4.257      6.541
REMARK  Name = 6223_Gliotoxin.pdbqt.pdb
REMARK  3 active torsions:
REMARK  status: ('A' for Active; 'I' for Inactive)
REMARK    1  A    between atoms: C_10  and  C_21
REMARK    2  A    between atoms: C_14  and  O_19
REMARK    3  A    between atoms: C_21  and  O_22
REMARK                            x       y       z     vdW  Elec       q    Type
REMARK                         _______ _______ _______ _____ _____    ______ ____
ROOT
ATOM      1  S   UNL     1     -36.500  41.964  -6.967  0.00  0.00    +0.000 S 
ATOM      2  S   UNL     1     -36.812  41.099  -5.119  0.00  0.00    +0.000 S 
ATOM      3  O   UNL     1     -34.075  42.896  -3.562  0.00  0.00    +0.000 OA
ATOM      4  O   UNL     1     -33.779  39.851  -7.838  0.00  0.00    +0.000 OA
ATOM      5  N   UNL     1     -34.113  42.706  -5.852  0.00  0.00    +0.000 N 
ATOM      6  N   UNL     1     -34.308  40.013  -5.552  0.00  0.00    +0.000 N 
ATOM      7  C   UNL     1     -34.676  41.955  -7.017  0.00  0.00    +0.000 C 
ATOM      8  C   UNL     1     -33.428  43.850  -6.267  0.00  0.00    +0.000 A 
ATOM      9  C   UNL     1     -34.142  42.723  -8.138  0.00  0.00    +0.000 C 
ATOM     10  C   UNL     1     -35.052  40.845  -4.549  0.00  0.00    +0.000 C 
ATOM     11  C   UNL     1     -33.354  43.823  -7.770  0.00  0.00    +0.000 A 
ATOM     12  C   UNL     1     -34.355  42.243  -4.565  0.00  0.00    +0.000 C 
ATOM     13  C   UNL     1     -34.178  40.515  -6.879  0.00  0.00    +0.000 C 
ATOM     14  C   UNL     1     -33.177  45.112  -5.533  0.00  0.00    +0.000 A 
ATOM     15  C   UNL     1     -33.309  45.008  -8.307  0.00  0.00    +0.000 A 
ATOM     16  C   UNL     1     -33.073  46.231  -6.430  0.00  0.00    +0.000 A 
ATOM     17  C   UNL     1     -33.915  38.663  -5.149  0.00  0.00    +0.000 C 
ATOM     18  C   UNL     1     -33.125  46.371  -7.623  0.00  0.00    +0.000 A 
ENDROOT
BRANCH  14  19
ATOM     19  O   UNL     1     -33.533  45.296  -4.228  0.00  0.00    +0.000 OA
ATOM     20  H   UNL     1     -34.022  44.536  -3.852  0.00  0.00    +0.000 HD
ENDBRANCH  14  19
BRANCH  10  21
ATOM     21  C   UNL     1     -35.077  40.286  -3.171  0.00  0.00    +0.000 C 
BRANCH  21  22
ATOM     22  O   UNL     1     -35.096  39.803  -1.926  0.00  0.00    +0.000 OA
ATOM     23  H   UNL     1     -34.575  40.364  -1.320  0.00  0.00    +0.000 HD
ENDBRANCH  21  22
ENDBRANCH  10  21
TORSDOF 3
ENDMDL
MODEL 6
REMARK VINA RESULT:      -5.1      2.010      5.526
REMARK  Name = 6223_Gliotoxin.pdbqt.pdb
REMARK  3 active torsions:
REMARK  status: ('A' for Active; 'I' for Inactive)
REMARK    1  A    between atoms: C_10  and  C_21
REMARK    2  A    between atoms: C_14  and  O_19
REMARK    3  A    between atoms: C_21  and  O_22
REMARK                            x       y       z     vdW  Elec       q    Type
REMARK                         _______ _______ _______ _____ _____    ______ ____
ROOT
ATOM      1  S   UNL     1     -36.122  43.124  -9.077  0.00  0.00    +0.000 S 
ATOM      2  S   UNL     1     -35.526  42.972  -7.106  0.00  0.00    +0.000 S 
ATOM      3  O   UNL     1     -36.012  46.504  -6.448  0.00  0.00    +0.000 OA
ATOM      4  O   UNL     1     -33.021  44.418 -10.235  0.00  0.00    +0.000 OA
ATOM      5  N   UNL     1     -35.795  45.805  -8.627  0.00  0.00    +0.000 N 
ATOM      6  N   UNL     1     -33.457  44.608  -7.931  0.00  0.00    +0.000 N 
ATOM      7  C   UNL     1     -35.328  44.705  -9.527  0.00  0.00    +0.000 C 
ATOM      8  C   UNL     1     -36.521  46.766  -9.332  0.00  0.00    +0.000 A 
ATOM      9  C   UNL     1     -35.761  45.199 -10.831  0.00  0.00    +0.000 C 
ATOM     10  C   UNL     1     -34.555  44.555  -6.911  0.00  0.00    +0.000 C 
ATOM     11  C   UNL     1     -36.424  46.433 -10.797  0.00  0.00    +0.000 A 
ATOM     12  C   UNL     1     -35.516  45.733  -7.268  0.00  0.00    +0.000 C 
ATOM     13  C   UNL     1     -33.818  44.586  -9.310  0.00  0.00    +0.000 C 
ATOM     14  C   UNL     1     -37.573  47.691  -8.848  0.00  0.00    +0.000 A 
ATOM     15  C   UNL     1     -37.459  46.820 -11.485  0.00  0.00    +0.000 A 
ATOM     16  C   UNL     1     -38.513  48.010  -9.888  0.00  0.00    +0.000 A 
ATOM     17  C   UNL     1     -32.081  44.503  -7.448  0.00  0.00    +0.000 C 
ATOM     18  C   UNL     1     -38.629  47.715 -11.049  0.00  0.00    +0.000 A 
ENDROOT
BRANCH  14  19
ATOM     19  O   UNL     1     -37.927  47.790  -7.534  0.00  0.00    +0.000 OA
ATOM     20  H   UNL     1     -37.254  47.423  -6.925  0.00  0.00    +0.000 HD
ENDBRANCH  14  19
BRANCH  10  21
ATOM     21  C   UNL     1     -34.100  44.659  -5.498  0.00  0.00    +0.000 C 
BRANCH  21  22
ATOM     22  O   UNL     1     -33.673  44.750  -4.236  0.00  0.00    +0.000 OA
ATOM     23  H   UNL     1     -32.744  44.463  -4.155  0.00  0.00    +0.000 HD
ENDBRANCH  21  22
ENDBRANCH  10  21
TORSDOF 3
ENDMDL
MODEL 7
REMARK VINA RESULT:      -5.1      5.942      7.720
REMARK  Name = 6223_Gliotoxin.pdbqt.pdb
REMARK  3 active torsions:
REMARK  status: ('A' for Active; 'I' for Inactive)
REMARK    1  A    between atoms: C_10  and  C_21
REMARK    2  A    between atoms: C_14  and  O_19
REMARK    3  A    between atoms: C_21  and  O_22
REMARK                            x       y       z     vdW  Elec       q    Type
REMARK                         _______ _______ _______ _____ _____    ______ ____
ROOT
ATOM      1  S   UNL     1     -36.867  46.231 -16.952  0.00  0.00    +0.000 S 
ATOM      2  S   UNL     1     -36.397  46.756 -18.893  0.00  0.00    +0.000 S 
ATOM      3  O   UNL     1     -32.829  46.809 -18.256  0.00  0.00    +0.000 OA
ATOM      4  O   UNL     1     -36.505  49.518 -15.650  0.00  0.00    +0.000 OA
ATOM      5  N   UNL     1     -34.272  46.959 -16.473  0.00  0.00    +0.000 N 
ATOM      6  N   UNL     1     -35.458  49.070 -17.708  0.00  0.00    +0.000 N 
ATOM      7  C   UNL     1     -35.672  47.269 -16.045  0.00  0.00    +0.000 C 
ATOM      8  C   UNL     1     -33.531  46.406 -15.429  0.00  0.00    +0.000 A 
ATOM      9  C   UNL     1     -35.613  46.945 -14.622  0.00  0.00    +0.000 C 
ATOM     10  C   UNL     1     -34.997  47.956 -18.601  0.00  0.00    +0.000 C 
ATOM     11  C   UNL     1     -34.367  46.480 -14.180  0.00  0.00    +0.000 A 
ATOM     12  C   UNL     1     -33.899  47.196 -17.790  0.00  0.00    +0.000 C 
ATOM     13  C   UNL     1     -35.914  48.738 -16.400  0.00  0.00    +0.000 C 
ATOM     14  C   UNL     1     -32.359  45.500 -15.486  0.00  0.00    +0.000 A 
ATOM     15  C   UNL     1     -34.109  45.531 -13.327  0.00  0.00    +0.000 A 
ATOM     16  C   UNL     1     -32.300  44.643 -14.334  0.00  0.00    +0.000 A 
ATOM     17  C   UNL     1     -35.575  50.403 -18.298  0.00  0.00    +0.000 C 
ATOM     18  C   UNL     1     -32.964  44.506 -13.341  0.00  0.00    +0.000 A 
ENDROOT
BRANCH  14  19
ATOM     19  O   UNL     1     -31.756  45.139 -16.656  0.00  0.00    +0.000 OA
ATOM     20  H   UNL     1     -30.797  45.336 -16.671  0.00  0.00    +0.000 HD
ENDBRANCH  14  19
BRANCH  10  21
ATOM     21  C   UNL     1     -34.466  48.393 -19.921  0.00  0.00    +0.000 C 
BRANCH  21  22
ATOM     22  O   UNL     1     -33.986  48.803 -21.098  0.00  0.00    +0.000 OA
ATOM     23  H   UNL     1     -33.183  49.345 -20.983  0.00  0.00    +0.000 HD
ENDBRANCH  21  22
ENDBRANCH  10  21
TORSDOF 3
ENDMDL
MODEL 8
REMARK VINA RESULT:      -5.1     23.652     25.282
REMARK  Name = 6223_Gliotoxin.pdbqt.pdb
REMARK  3 active torsions:
REMARK  status: ('A' for Active; 'I' for Inactive)
REMARK    1  A    between atoms: C_10  and  C_21
REMARK    2  A    between atoms: C_14  and  O_19
REMARK    3  A    between atoms: C_21  and  O_22
REMARK                            x       y       z     vdW  Elec       q    Type
REMARK                         _______ _______ _______ _____ _____    ______ ____
ROOT
ATOM      1  S   UNL     1     -28.844  62.594 -29.817  0.00  0.00    +0.000 S 
ATOM      2  S   UNL     1     -30.412  61.690 -30.810  0.00  0.00    +0.000 S 
ATOM      3  O   UNL     1     -31.290  59.594 -27.985  0.00  0.00    +0.000 OA
ATOM      4  O   UNL     1     -26.580  59.898 -30.300  0.00  0.00    +0.000 OA
ATOM      5  N   UNL     1     -29.189  60.522 -28.062  0.00  0.00    +0.000 N 
ATOM      6  N   UNL     1     -28.870  59.414 -30.523  0.00  0.00    +0.000 N 
ATOM      7  C   UNL     1     -28.152  61.153 -28.937  0.00  0.00    +0.000 C 
ATOM      8  C   UNL     1     -28.852  60.634 -26.713  0.00  0.00    +0.000 A 
ATOM      9  C   UNL     1     -27.139  61.528 -27.955  0.00  0.00    +0.000 C 
ATOM     10  C   UNL     1     -30.242  59.932 -30.204  0.00  0.00    +0.000 C 
ATOM     11  C   UNL     1     -27.462  61.205 -26.630  0.00  0.00    +0.000 A 
ATOM     12  C   UNL     1     -30.323  59.971 -28.645  0.00  0.00    +0.000 C 
ATOM     13  C   UNL     1     -27.749  60.088 -29.960  0.00  0.00    +0.000 C 
ATOM     14  C   UNL     1     -29.735  60.652 -25.522  0.00  0.00    +0.000 A 
ATOM     15  C   UNL     1     -27.251  61.898 -25.549  0.00  0.00    +0.000 A 
ATOM     16  C   UNL     1     -29.161  61.424 -24.454  0.00  0.00    +0.000 A 
ATOM     17  C   UNL     1     -28.765  58.358 -31.529  0.00  0.00    +0.000 C 
ATOM     18  C   UNL     1     -28.137  62.034 -24.300  0.00  0.00    +0.000 A 
ENDROOT
BRANCH  14  19
ATOM     19  O   UNL     1     -31.084  60.457 -25.595  0.00  0.00    +0.000 OA
ATOM     20  H   UNL     1     -31.374  59.618 -25.183  0.00  0.00    +0.000 HD
ENDBRANCH  14  19
BRANCH  10  21
ATOM     21  C   UNL     1     -31.359  59.127 -30.768  0.00  0.00    +0.000 C 
BRANCH  21  22
ATOM     22  O   UNL     1     -32.357  58.390 -31.263  0.00  0.00    +0.000 OA
ATOM     23  H   UNL     1     -33.218  58.672 -30.901  0.00  0.00    +0.000 HD
ENDBRANCH  21  22
ENDBRANCH  10  21
TORSDOF 3
ENDMDL
MODEL 9
REMARK VINA RESULT:      -5.0     24.281     25.507
REMARK  Name = 6223_Gliotoxin.pdbqt.pdb
REMARK  3 active torsions:
REMARK  status: ('A' for Active; 'I' for Inactive)
REMARK    1  A    between atoms: C_10  and  C_21
REMARK    2  A    between atoms: C_14  and  O_19
REMARK    3  A    between atoms: C_21  and  O_22
REMARK                            x       y       z     vdW  Elec       q    Type
REMARK                         _______ _______ _______ _____ _____    ______ ____
ROOT
ATOM      1  S   UNL     1     -13.918  58.360 -20.744  0.00  0.00    +0.000 S 
ATOM      2  S   UNL     1     -12.976  57.548 -19.097  0.00  0.00    +0.000 S 
ATOM      3  O   UNL     1     -14.328  54.234 -19.674  0.00  0.00    +0.000 OA
ATOM      4  O   UNL     1     -17.083  58.682 -19.160  0.00  0.00    +0.000 OA
ATOM      5  N   UNL     1     -15.362  56.036 -20.657  0.00  0.00    +0.000 N 
ATOM      6  N   UNL     1     -15.562  57.170 -18.196  0.00  0.00    +0.000 N 
ATOM      7  C   UNL     1     -15.535  57.522 -20.631  0.00  0.00    +0.000 C 
ATOM      8  C   UNL     1     -15.931  55.478 -21.802  0.00  0.00    +0.000 A 
ATOM      9  C   UNL     1     -16.362  57.735 -21.816  0.00  0.00    +0.000 C 
ATOM     10  C   UNL     1     -14.305  56.397 -18.467  0.00  0.00    +0.000 C 
ATOM     11  C   UNL     1     -16.677  56.567 -22.525  0.00  0.00    +0.000 A 
ATOM     12  C   UNL     1     -14.658  55.418 -19.632  0.00  0.00    +0.000 C 
ATOM     13  C   UNL     1     -16.178  57.855 -19.283  0.00  0.00    +0.000 C 
ATOM     14  C   UNL     1     -15.583  54.222 -22.508  0.00  0.00    +0.000 A 
ATOM     15  C   UNL     1     -16.736  56.388 -23.813  0.00  0.00    +0.000 A 
ATOM     16  C   UNL     1     -15.868  54.312 -23.914  0.00  0.00    +0.000 A 
ATOM     17  C   UNL     1     -15.978  57.315 -16.801  0.00  0.00    +0.000 C 
ATOM     18  C   UNL     1     -16.333  55.154 -24.635  0.00  0.00    +0.000 A 
ENDROOT
BRANCH  14  19
ATOM     19  O   UNL     1     -14.651  53.341 -22.040  0.00  0.00    +0.000 OA
ATOM     20  H   UNL     1     -13.925  53.775 -21.546  0.00  0.00    +0.000 HD
ENDBRANCH  14  19
BRANCH  10  21
ATOM     21  C   UNL     1     -13.768  55.650 -17.298  0.00  0.00    +0.000 C 
BRANCH  21  22
ATOM     22  O   UNL     1     -13.279  54.965 -16.260  0.00  0.00    +0.000 OA
ATOM     23  H   UNL     1     -13.036  55.561 -15.527  0.00  0.00    +0.000 HD
ENDBRANCH  21  22
ENDBRANCH  10  21
TORSDOF 3
ENDMDL
