MODEL 1
REMARK VINA RESULT:      -5.6      0.000      0.000
REMARK  Name = 6256_Trifluridine.pdbqt.pdb
REMARK  5 active torsions:
REMARK  status: ('A' for Active; 'I' for Inactive)
REMARK    1  A    between atoms: N_3  and  C1*_11
REMARK    2  A    between atoms: C_7  and  C_23
REMARK    3  A    between atoms: C3*_12  and  O3*_15
REMARK    4  A    between atoms: C4*_14  and  C5*_17
REMARK    5  A    between atoms: C5*_17  and  O5*_18
REMARK                            x       y       z     vdW  Elec       q    Type
REMARK                         _______ _______ _______ _____ _____    ______ ____
ROOT
ATOM      1  O   UNL     1     -34.649  48.068 -14.727  0.00  0.00    +0.000 OA
ATOM      2  O   UNL     1     -31.692  44.562 -14.897  0.00  0.00    +0.000 OA
ATOM      3  N   UNL     1     -33.828  47.405 -16.847  0.00  0.00    +0.000 N 
ATOM      4  N   UNL     1     -33.172  46.316 -14.877  0.00  0.00    +0.000 N 
ATOM      5  C   UNL     1     -33.002  46.506 -17.418  0.00  0.00    +0.000 A 
ATOM      6  C   UNL     1     -33.960  47.349 -15.441  0.00  0.00    +0.000 A 
ATOM      7  C   UNL     1     -32.250  45.543 -16.995  0.00  0.00    +0.000 A 
ATOM      8  C   UNL     1     -32.324  45.405 -15.518  0.00  0.00    +0.000 A 
ATOM      9  H   UNL     1     -33.231  46.234 -13.872  0.00  0.00    +0.000 HD
ENDROOT
BRANCH   3  11
ATOM     10  O4* UNL     1     -34.216  48.415 -19.010  0.00  0.00    +0.000 OA
ATOM     11  C1* UNL     1     -34.474  48.310 -17.639  0.00  0.00    +0.000 A 
ATOM     12  C3* UNL     1     -35.806  49.990 -18.414  0.00  0.00    +0.000 A 
ATOM     13  C2* UNL     1     -35.434  49.271 -17.264  0.00  0.00    +0.000 A 
ATOM     14  C4* UNL     1     -35.028  49.447 -19.499  0.00  0.00    +0.000 A 
BRANCH  12  15
ATOM     15  O3* UNL     1     -36.186  51.302 -18.409  0.00  0.00    +0.000 OA
ATOM     16  H3* UNL     1     -37.078  51.409 -18.783  0.00  0.00    +0.000 HD
ENDBRANCH  12  15
BRANCH  14  17
ATOM     17  C5* UNL     1     -34.887  49.969 -20.800  0.00  0.00    +0.000 C 
BRANCH  17  18
ATOM     18  O5* UNL     1     -34.752  50.458 -22.029  0.00  0.00    +0.000 OA
ATOM     19  H5* UNL     1     -33.811  50.591 -22.236  0.00  0.00    +0.000 HD
ENDBRANCH  17  18
ENDBRANCH  14  17
ENDBRANCH   3  11
BRANCH   7  23
ATOM     20  F   UNL     1     -31.372  44.883 -19.073  0.00  0.00    +0.000 F 
ATOM     21  F   UNL     1     -30.069  44.760 -17.339  0.00  0.00    +0.000 F 
ATOM     22  F   UNL     1     -31.690  43.333 -17.562  0.00  0.00    +0.000 F 
ATOM     23  C   UNL     1     -31.366  44.637 -17.738  0.00  0.00    +0.000 C 
ENDBRANCH   7  23
TORSDOF 5
ENDMDL
MODEL 2
REMARK VINA RESULT:      -5.5      3.039      6.070
REMARK  Name = 6256_Trifluridine.pdbqt.pdb
REMARK  5 active torsions:
REMARK  status: ('A' for Active; 'I' for Inactive)
REMARK    1  A    between atoms: N_3  and  C1*_11
REMARK    2  A    between atoms: C_7  and  C_23
REMARK    3  A    between atoms: C3*_12  and  O3*_15
REMARK    4  A    between atoms: C4*_14  and  C5*_17
REMARK    5  A    between atoms: C5*_17  and  O5*_18
REMARK                            x       y       z     vdW  Elec       q    Type
REMARK                         _______ _______ _______ _____ _____    ______ ____
ROOT
ATOM      1  O   UNL     1     -34.297  48.028 -15.452  0.00  0.00    +0.000 OA
ATOM      2  O   UNL     1     -35.818  50.899 -18.693  0.00  0.00    +0.000 OA
ATOM      3  N   UNL     1     -33.911  47.455 -17.717  0.00  0.00    +0.000 N 
ATOM      4  N   UNL     1     -35.028  49.428 -17.119  0.00  0.00    +0.000 N 
ATOM      5  C   UNL     1     -34.131  47.911 -18.966  0.00  0.00    +0.000 A 
ATOM      6  C   UNL     1     -34.387  48.254 -16.653  0.00  0.00    +0.000 A 
ATOM      7  C   UNL     1     -34.700  48.950 -19.484  0.00  0.00    +0.000 A 
ATOM      8  C   UNL     1     -35.235  49.856 -18.436  0.00  0.00    +0.000 A 
ATOM      9  H   UNL     1     -35.388  50.034 -16.395  0.00  0.00    +0.000 HD
ENDROOT
BRANCH   3  11
ATOM     10  O4* UNL     1     -31.863  46.179 -17.555  0.00  0.00    +0.000 OA
ATOM     11  C1* UNL     1     -33.259  46.267 -17.549  0.00  0.00    +0.000 A 
ATOM     12  C3* UNL     1     -32.756  44.063 -17.262  0.00  0.00    +0.000 A 
ATOM     13  C2* UNL     1     -33.813  44.983 -17.381  0.00  0.00    +0.000 A 
ATOM     14  C4* UNL     1     -31.540  44.827 -17.380  0.00  0.00    +0.000 A 
BRANCH  12  15
ATOM     15  O3* UNL     1     -32.816  42.766 -17.688  0.00  0.00    +0.000 OA
ATOM     16  H3* UNL     1     -33.737  42.494 -17.848  0.00  0.00    +0.000 HD
ENDBRANCH  12  15
BRANCH  14  17
ATOM     17  C5* UNL     1     -30.229  44.336 -17.537  0.00  0.00    +0.000 C 
BRANCH  17  18
ATOM     18  O5* UNL     1     -28.991  43.874 -17.689  0.00  0.00    +0.000 OA
ATOM     19  H5* UNL     1     -28.955  42.929 -17.458  0.00  0.00    +0.000 HD
ENDBRANCH  17  18
ENDBRANCH  14  17
ENDBRANCH   3  11
BRANCH   7  23
ATOM     20  F   UNL     1     -36.206  49.379 -21.237  0.00  0.00    +0.000 F 
ATOM     21  F   UNL     1     -34.377  50.547 -21.167  0.00  0.00    +0.000 F 
ATOM     22  F   UNL     1     -34.288  48.456 -21.744  0.00  0.00    +0.000 F 
ATOM     23  C   UNL     1     -34.895  49.318 -20.892  0.00  0.00    +0.000 C 
ENDBRANCH   7  23
TORSDOF 5
ENDMDL
MODEL 3
REMARK VINA RESULT:      -5.5      3.156      6.021
REMARK  Name = 6256_Trifluridine.pdbqt.pdb
REMARK  5 active torsions:
REMARK  status: ('A' for Active; 'I' for Inactive)
REMARK    1  A    between atoms: N_3  and  C1*_11
REMARK    2  A    between atoms: C_7  and  C_23
REMARK    3  A    between atoms: C3*_12  and  O3*_15
REMARK    4  A    between atoms: C4*_14  and  C5*_17
REMARK    5  A    between atoms: C5*_17  and  O5*_18
REMARK                            x       y       z     vdW  Elec       q    Type
REMARK                         _______ _______ _______ _____ _____    ______ ____
ROOT
ATOM      1  O   UNL     1     -32.349  44.725 -14.276  0.00  0.00    +0.000 OA
ATOM      2  O   UNL     1     -34.818  48.501 -15.118  0.00  0.00    +0.000 OA
ATOM      3  N   UNL     1     -32.470  45.501 -16.510  0.00  0.00    +0.000 N 
ATOM      4  N   UNL     1     -33.563  46.614 -14.759  0.00  0.00    +0.000 N 
ATOM      5  C   UNL     1     -33.017  46.486 -17.250  0.00  0.00    +0.000 A 
ATOM      6  C   UNL     1     -32.740  45.520 -15.123  0.00  0.00    +0.000 A 
ATOM      7  C   UNL     1     -33.772  47.509 -17.014  0.00  0.00    +0.000 A 
ATOM      8  C   UNL     1     -34.110  47.613 -15.572  0.00  0.00    +0.000 A 
ATOM      9  H   UNL     1     -33.787  46.671 -13.775  0.00  0.00    +0.000 HD
ENDROOT
BRANCH   3  11
ATOM     10  O4* UNL     1     -30.661  44.890 -17.995  0.00  0.00    +0.000 OA
ATOM     11  C1* UNL     1     -31.706  44.553 -17.127  0.00  0.00    +0.000 A 
ATOM     12  C3* UNL     1     -30.830  42.584 -17.867  0.00  0.00    +0.000 A 
ATOM     13  C2* UNL     1     -31.823  43.151 -17.050  0.00  0.00    +0.000 A 
ATOM     14  C4* UNL     1     -30.114  43.686 -18.459  0.00  0.00    +0.000 A 
BRANCH  12  15
ATOM     15  O3* UNL     1     -30.968  41.398 -18.532  0.00  0.00    +0.000 OA
ATOM     16  H3* UNL     1     -30.629  40.658 -17.998  0.00  0.00    +0.000 HD
ENDBRANCH  12  15
BRANCH  14  17
ATOM     17  C5* UNL     1     -29.174  43.637 -19.506  0.00  0.00    +0.000 C 
BRANCH  17  18
ATOM     18  O5* UNL     1     -28.288  43.588 -20.497  0.00  0.00    +0.000 OA
ATOM     19  H5* UNL     1     -27.793  44.424 -20.547  0.00  0.00    +0.000 HD
ENDBRANCH  17  18
ENDBRANCH  14  17
ENDBRANCH   3  11
BRANCH   7  23
ATOM     20  F   UNL     1     -33.900  49.767 -17.656  0.00  0.00    +0.000 F 
ATOM     21  F   UNL     1     -33.956  48.264 -19.224  0.00  0.00    +0.000 F 
ATOM     22  F   UNL     1     -35.681  48.526 -17.932  0.00  0.00    +0.000 F 
ATOM     23  C   UNL     1     -34.325  48.509 -17.936  0.00  0.00    +0.000 C 
ENDBRANCH   7  23
TORSDOF 5
ENDMDL
MODEL 4
REMARK VINA RESULT:      -5.4      3.400      6.834
REMARK  Name = 6256_Trifluridine.pdbqt.pdb
REMARK  5 active torsions:
REMARK  status: ('A' for Active; 'I' for Inactive)
REMARK    1  A    between atoms: N_3  and  C1*_11
REMARK    2  A    between atoms: C_7  and  C_23
REMARK    3  A    between atoms: C3*_12  and  O3*_15
REMARK    4  A    between atoms: C4*_14  and  C5*_17
REMARK    5  A    between atoms: C5*_17  and  O5*_18
REMARK                            x       y       z     vdW  Elec       q    Type
REMARK                         _______ _______ _______ _____ _____    ______ ____
ROOT
ATOM      1  O   UNL     1     -34.968  47.560 -13.912  0.00  0.00    +0.000 OA
ATOM      2  O   UNL     1     -32.688  46.684 -17.798  0.00  0.00    +0.000 OA
ATOM      3  N   UNL     1     -33.670  45.582 -14.020  0.00  0.00    +0.000 N 
ATOM      4  N   UNL     1     -33.799  47.070 -15.827  0.00  0.00    +0.000 N 
ATOM      5  C   UNL     1     -32.865  44.900 -14.859  0.00  0.00    +0.000 A 
ATOM      6  C   UNL     1     -34.217  46.792 -14.503  0.00  0.00    +0.000 A 
ATOM      7  C   UNL     1     -32.435  45.067 -16.066  0.00  0.00    +0.000 A 
ATOM      8  C   UNL     1     -32.960  46.322 -16.662  0.00  0.00    +0.000 A 
ATOM      9  H   UNL     1     -34.165  47.926 -16.220  0.00  0.00    +0.000 HD
ENDROOT
BRANCH   3  11
ATOM     10  O4* UNL     1     -32.950  45.100 -11.762  0.00  0.00    +0.000 OA
ATOM     11  C1* UNL     1     -33.914  45.076 -12.775  0.00  0.00    +0.000 A 
ATOM     12  C3* UNL     1     -34.867  44.076 -10.963  0.00  0.00    +0.000 A 
ATOM     13  C2* UNL     1     -35.082  44.446 -12.302  0.00  0.00    +0.000 A 
ATOM     14  C4* UNL     1     -33.523  44.486 -10.641  0.00  0.00    +0.000 A 
BRANCH  12  15
ATOM     15  O3* UNL     1     -35.430  42.981 -10.370  0.00  0.00    +0.000 OA
ATOM     16  H3* UNL     1     -34.752  42.431  -9.939  0.00  0.00    +0.000 HD
ENDBRANCH  12  15
BRANCH  14  17
ATOM     17  C5* UNL     1     -32.774  44.150  -9.496  0.00  0.00    +0.000 C 
BRANCH  17  18
ATOM     18  O5* UNL     1     -32.067  43.830  -8.416  0.00  0.00    +0.000 OA
ATOM     19  H5* UNL     1     -31.132  44.064  -8.546  0.00  0.00    +0.000 HD
ENDBRANCH  17  18
ENDBRANCH  14  17
ENDBRANCH   3  11
BRANCH   7  23
ATOM     20  F   UNL     1     -30.458  44.870 -17.323  0.00  0.00    +0.000 F 
ATOM     21  F   UNL     1     -31.111  43.138 -16.188  0.00  0.00    +0.000 F 
ATOM     22  F   UNL     1     -32.199  43.717 -17.975  0.00  0.00    +0.000 F 
ATOM     23  C   UNL     1     -31.563  44.216 -16.886  0.00  0.00    +0.000 C 
ENDBRANCH   7  23
TORSDOF 5
ENDMDL
MODEL 5
REMARK VINA RESULT:      -5.4      1.467      2.091
REMARK  Name = 6256_Trifluridine.pdbqt.pdb
REMARK  5 active torsions:
REMARK  status: ('A' for Active; 'I' for Inactive)
REMARK    1  A    between atoms: N_3  and  C1*_11
REMARK    2  A    between atoms: C_7  and  C_23
REMARK    3  A    between atoms: C3*_12  and  O3*_15
REMARK    4  A    between atoms: C4*_14  and  C5*_17
REMARK    5  A    between atoms: C5*_17  and  O5*_18
REMARK                            x       y       z     vdW  Elec       q    Type
REMARK                         _______ _______ _______ _____ _____    ______ ____
ROOT
ATOM      1  O   UNL     1     -35.441  47.946 -14.002  0.00  0.00    +0.000 OA
ATOM      2  O   UNL     1     -32.523  44.414 -13.729  0.00  0.00    +0.000 OA
ATOM      3  N   UNL     1     -34.143  47.423 -15.914  0.00  0.00    +0.000 N 
ATOM      4  N   UNL     1     -33.968  46.186 -13.929  0.00  0.00    +0.000 N 
ATOM      5  C   UNL     1     -33.206  46.553 -16.339  0.00  0.00    +0.000 A 
ATOM      6  C   UNL     1     -34.603  47.269 -14.586  0.00  0.00    +0.000 A 
ATOM      7  C   UNL     1     -32.573  45.551 -15.822  0.00  0.00    +0.000 A 
ATOM      8  C   UNL     1     -32.992  45.309 -14.418  0.00  0.00    +0.000 A 
ATOM      9  H   UNL     1     -34.261  46.034 -12.975  0.00  0.00    +0.000 HD
ENDROOT
BRANCH   3  11
ATOM     10  O4* UNL     1     -35.948  48.632 -16.976  0.00  0.00    +0.000 OA
ATOM     11  C1* UNL     1     -34.586  48.392 -16.767  0.00  0.00    +0.000 A 
ATOM     12  C3* UNL     1     -34.712  50.075 -18.299  0.00  0.00    +0.000 A 
ATOM     13  C2* UNL     1     -33.824  49.259 -17.575  0.00  0.00    +0.000 A 
ATOM     14  C4* UNL     1     -36.040  49.665 -17.918  0.00  0.00    +0.000 A 
BRANCH  12  15
ATOM     15  O3* UNL     1     -34.458  50.564 -19.549  0.00  0.00    +0.000 OA
ATOM     16  H3* UNL     1     -35.266  50.930 -19.951  0.00  0.00    +0.000 HD
ENDBRANCH  12  15
BRANCH  14  17
ATOM     17  C5* UNL     1     -37.259  50.034 -18.520  0.00  0.00    +0.000 C 
BRANCH  17  18
ATOM     18  O5* UNL     1     -38.407  50.385 -19.091  0.00  0.00    +0.000 OA
ATOM     19  H5* UNL     1     -38.916  49.593 -19.337  0.00  0.00    +0.000 HD
ENDBRANCH  17  18
ENDBRANCH  14  17
ENDBRANCH   3  11
BRANCH   7  23
ATOM     20  F   UNL     1     -30.360  44.765 -15.733  0.00  0.00    +0.000 F 
ATOM     21  F   UNL     1     -31.902  43.374 -16.368  0.00  0.00    +0.000 F 
ATOM     22  F   UNL     1     -31.289  44.973 -17.703  0.00  0.00    +0.000 F 
ATOM     23  C   UNL     1     -31.538  44.686 -16.401  0.00  0.00    +0.000 C 
ENDBRANCH   7  23
TORSDOF 5
ENDMDL
MODEL 6
REMARK VINA RESULT:      -5.4      2.780      4.200
REMARK  Name = 6256_Trifluridine.pdbqt.pdb
REMARK  5 active torsions:
REMARK  status: ('A' for Active; 'I' for Inactive)
REMARK    1  A    between atoms: N_3  and  C1*_11
REMARK    2  A    between atoms: C_7  and  C_23
REMARK    3  A    between atoms: C3*_12  and  O3*_15
REMARK    4  A    between atoms: C4*_14  and  C5*_17
REMARK    5  A    between atoms: C5*_17  and  O5*_18
REMARK                            x       y       z     vdW  Elec       q    Type
REMARK                         _______ _______ _______ _____ _____    ______ ____
ROOT
ATOM      1  O   UNL     1     -32.672  44.638 -20.062  0.00  0.00    +0.000 OA
ATOM      2  O   UNL     1     -29.253  41.865 -18.764  0.00  0.00    +0.000 OA
ATOM      3  N   UNL     1     -31.809  44.885 -17.870  0.00  0.00    +0.000 N 
ATOM      4  N   UNL     1     -30.956  43.284 -19.357  0.00  0.00    +0.000 N 
ATOM      5  C   UNL     1     -30.876  44.368 -17.046  0.00  0.00    +0.000 A 
ATOM      6  C   UNL     1     -31.900  44.323 -19.164  0.00  0.00    +0.000 A 
ATOM      7  C   UNL     1     -29.986  43.433 -17.128  0.00  0.00    +0.000 A 
ATOM      8  C   UNL     1     -30.006  42.780 -18.462  0.00  0.00    +0.000 A 
ATOM      9  H   UNL     1     -30.982  42.848 -20.267  0.00  0.00    +0.000 HD
ENDROOT
BRANCH   3  11
ATOM     10  O4* UNL     1     -32.896  47.019 -18.206  0.00  0.00    +0.000 OA
ATOM     11  C1* UNL     1     -32.605  45.899 -17.420  0.00  0.00    +0.000 A 
ATOM     12  C3* UNL     1     -33.928  47.247 -16.145  0.00  0.00    +0.000 A 
ATOM     13  C2* UNL     1     -33.220  46.032 -16.160  0.00  0.00    +0.000 A 
ATOM     14  C4* UNL     1     -33.709  47.858 -17.432  0.00  0.00    +0.000 A 
BRANCH  12  15
ATOM     15  O3* UNL     1     -34.120  48.010 -15.028  0.00  0.00    +0.000 OA
ATOM     16  H3* UNL     1     -33.388  47.895 -14.397  0.00  0.00    +0.000 HD
ENDBRANCH  12  15
BRANCH  14  17
ATOM     17  C5* UNL     1     -34.031  49.171 -17.826  0.00  0.00    +0.000 C 
BRANCH  17  18
ATOM     18  O5* UNL     1     -34.339  50.411 -18.196  0.00  0.00    +0.000 OA
ATOM     19  H5* UNL     1     -35.012  50.394 -18.899  0.00  0.00    +0.000 HD
ENDBRANCH  17  18
ENDBRANCH  14  17
ENDBRANCH   3  11
BRANCH   7  23
ATOM     20  F   UNL     1     -29.448  41.809 -15.516  0.00  0.00    +0.000 F 
ATOM     21  F   UNL     1     -27.823  42.654 -16.682  0.00  0.00    +0.000 F 
ATOM     22  F   UNL     1     -28.784  43.862 -15.155  0.00  0.00    +0.000 F 
ATOM     23  C   UNL     1     -29.031  42.947 -16.125  0.00  0.00    +0.000 C 
ENDBRANCH   7  23
TORSDOF 5
ENDMDL
MODEL 7
REMARK VINA RESULT:      -5.3     19.265     21.051
REMARK  Name = 6256_Trifluridine.pdbqt.pdb
REMARK  5 active torsions:
REMARK  status: ('A' for Active; 'I' for Inactive)
REMARK    1  A    between atoms: N_3  and  C1*_11
REMARK    2  A    between atoms: C_7  and  C_23
REMARK    3  A    between atoms: C3*_12  and  O3*_15
REMARK    4  A    between atoms: C4*_14  and  C5*_17
REMARK    5  A    between atoms: C5*_17  and  O5*_18
REMARK                            x       y       z     vdW  Elec       q    Type
REMARK                         _______ _______ _______ _____ _____    ______ ____
ROOT
ATOM      1  O   UNL     1     -19.274  56.336 -33.558  0.00  0.00    +0.000 OA
ATOM      2  O   UNL     1     -16.996  57.151 -29.658  0.00  0.00    +0.000 OA
ATOM      3  N   UNL     1     -19.655  54.888 -31.723  0.00  0.00    +0.000 N 
ATOM      4  N   UNL     1     -18.169  56.697 -31.578  0.00  0.00    +0.000 N 
ATOM      5  C   UNL     1     -19.275  54.693 -30.445  0.00  0.00    +0.000 A 
ATOM      6  C   UNL     1     -19.074  55.983 -32.402  0.00  0.00    +0.000 A 
ATOM      7  C   UNL     1     -18.467  55.277 -29.621  0.00  0.00    +0.000 A 
ATOM      8  C   UNL     1     -17.805  56.449 -30.249  0.00  0.00    +0.000 A 
ATOM      9  H   UNL     1     -17.725  57.490 -32.018  0.00  0.00    +0.000 HD
ENDROOT
BRANCH   3  11
ATOM     10  O4* UNL     1     -21.932  54.293 -32.280  0.00  0.00    +0.000 OA
ATOM     11  C1* UNL     1     -20.558  54.032 -32.286  0.00  0.00    +0.000 A 
ATOM     12  C3* UNL     1     -21.549  52.261 -33.323  0.00  0.00    +0.000 A 
ATOM     13  C2* UNL     1     -20.314  52.793 -32.910  0.00  0.00    +0.000 A 
ATOM     14  C4* UNL     1     -22.554  53.209 -32.914  0.00  0.00    +0.000 A 
BRANCH  12  15
ATOM     15  O3* UNL     1     -21.826  50.925 -33.385  0.00  0.00    +0.000 OA
ATOM     16  H3* UNL     1     -22.769  50.756 -33.216  0.00  0.00    +0.000 HD
ENDBRANCH  12  15
BRANCH  14  17
ATOM     17  C5* UNL     1     -23.951  53.032 -32.911  0.00  0.00    +0.000 C 
BRANCH  17  18
ATOM     18  O5* UNL     1     -25.271  52.863 -32.912  0.00  0.00    +0.000 OA
ATOM     19  H5* UNL     1     -25.650  53.187 -33.747  0.00  0.00    +0.000 HD
ENDBRANCH  17  18
ENDBRANCH  14  17
ENDBRANCH   3  11
BRANCH   7  23
ATOM     20  F   UNL     1     -18.806  53.860 -27.776  0.00  0.00    +0.000 F 
ATOM     21  F   UNL     1     -16.802  54.630 -28.106  0.00  0.00    +0.000 F 
ATOM     22  F   UNL     1     -18.353  55.963 -27.377  0.00  0.00    +0.000 F 
ATOM     23  C   UNL     1     -18.122  54.939 -28.235  0.00  0.00    +0.000 C 
ENDBRANCH   7  23
TORSDOF 5
ENDMDL
MODEL 8
REMARK VINA RESULT:      -5.3      9.980     13.112
REMARK  Name = 6256_Trifluridine.pdbqt.pdb
REMARK  5 active torsions:
REMARK  status: ('A' for Active; 'I' for Inactive)
REMARK    1  A    between atoms: N_3  and  C1*_11
REMARK    2  A    between atoms: C_7  and  C_23
REMARK    3  A    between atoms: C3*_12  and  O3*_15
REMARK    4  A    between atoms: C4*_14  and  C5*_17
REMARK    5  A    between atoms: C5*_17  and  O5*_18
REMARK                            x       y       z     vdW  Elec       q    Type
REMARK                         _______ _______ _______ _____ _____    ______ ____
ROOT
ATOM      1  O   UNL     1     -33.875  41.117  -7.668  0.00  0.00    +0.000 OA
ATOM      2  O   UNL     1     -35.801  44.018 -10.657  0.00  0.00    +0.000 OA
ATOM      3  N   UNL     1     -34.248  43.350  -6.971  0.00  0.00    +0.000 N 
ATOM      4  N   UNL     1     -34.842  42.614  -9.117  0.00  0.00    +0.000 N 
ATOM      5  C   UNL     1     -34.745  44.519  -7.419  0.00  0.00    +0.000 A 
ATOM      6  C   UNL     1     -34.274  42.258  -7.868  0.00  0.00    +0.000 A 
ATOM      7  C   UNL     1     -35.272  44.936  -8.524  0.00  0.00    +0.000 A 
ATOM      8  C   UNL     1     -35.343  43.852  -9.536  0.00  0.00    +0.000 A 
ATOM      9  H   UNL     1     -34.882  41.867  -9.796  0.00  0.00    +0.000 HD
ENDROOT
BRANCH   3  11
ATOM     10  O4* UNL     1     -34.335  42.483  -4.714  0.00  0.00    +0.000 OA
ATOM     11  C1* UNL     1     -33.750  43.283  -5.701  0.00  0.00    +0.000 A 
ATOM     12  C3* UNL     1     -32.522  43.602  -3.808  0.00  0.00    +0.000 A 
ATOM     13  C2* UNL     1     -32.650  43.976  -5.157  0.00  0.00    +0.000 A 
ATOM     14  C4* UNL     1     -33.590  42.671  -3.543  0.00  0.00    +0.000 A 
BRANCH  12  15
ATOM     15  O3* UNL     1     -32.046  44.423  -2.826  0.00  0.00    +0.000 OA
ATOM     16  H3* UNL     1     -31.873  45.316  -3.171  0.00  0.00    +0.000 HD
ENDBRANCH  12  15
BRANCH  14  17
ATOM     17  C5* UNL     1     -34.011  42.179  -2.292  0.00  0.00    +0.000 C 
BRANCH  17  18
ATOM     18  O5* UNL     1     -34.412  41.717  -1.111  0.00  0.00    +0.000 OA
ATOM     19  H5* UNL     1     -34.957  40.919  -1.230  0.00  0.00    +0.000 HD
ENDBRANCH  17  18
ENDBRANCH  14  17
ENDBRANCH   3  11
BRANCH   7  23
ATOM     20  F   UNL     1     -37.092  46.415  -8.686  0.00  0.00    +0.000 F 
ATOM     21  F   UNL     1     -35.156  47.248  -8.161  0.00  0.00    +0.000 F 
ATOM     22  F   UNL     1     -35.514  46.573 -10.193  0.00  0.00    +0.000 F 
ATOM     23  C   UNL     1     -35.759  46.271  -8.894  0.00  0.00    +0.000 C 
ENDBRANCH   7  23
TORSDOF 5
ENDMDL
MODEL 9
REMARK VINA RESULT:      -5.3      6.651      8.550
REMARK  Name = 6256_Trifluridine.pdbqt.pdb
REMARK  5 active torsions:
REMARK  status: ('A' for Active; 'I' for Inactive)
REMARK    1  A    between atoms: N_3  and  C1*_11
REMARK    2  A    between atoms: C_7  and  C_23
REMARK    3  A    between atoms: C3*_12  and  O3*_15
REMARK    4  A    between atoms: C4*_14  and  C5*_17
REMARK    5  A    between atoms: C5*_17  and  O5*_18
REMARK                            x       y       z     vdW  Elec       q    Type
REMARK                         _______ _______ _______ _____ _____    ______ ____
ROOT
ATOM      1  O   UNL     1     -34.782  42.037 -10.938  0.00  0.00    +0.000 OA
ATOM      2  O   UNL     1     -34.077  43.122  -6.534  0.00  0.00    +0.000 OA
ATOM      3  N   UNL     1     -33.919  44.187 -10.445  0.00  0.00    +0.000 N 
ATOM      4  N   UNL     1     -34.401  42.636  -8.754  0.00  0.00    +0.000 N 
ATOM      5  C   UNL     1     -33.554  44.956  -9.400  0.00  0.00    +0.000 A 
ATOM      6  C   UNL     1     -34.398  42.891 -10.147  0.00  0.00    +0.000 A 
ATOM      7  C   UNL     1     -33.524  44.816  -8.115  0.00  0.00    +0.000 A 
ATOM      8  C   UNL     1     -34.012  43.476  -7.703  0.00  0.00    +0.000 A 
ATOM      9  H   UNL     1     -34.737  41.721  -8.488  0.00  0.00    +0.000 HD
ENDROOT
BRANCH   3  11
ATOM     10  O4* UNL     1     -32.901  44.185 -12.639  0.00  0.00    +0.000 OA
ATOM     11  C1* UNL     1     -33.815  44.691 -11.709  0.00  0.00    +0.000 A 
ATOM     12  C3* UNL     1     -34.074  45.933 -13.603  0.00  0.00    +0.000 A 
ATOM     13  C2* UNL     1     -34.528  45.763 -12.284  0.00  0.00    +0.000 A 
ATOM     14  C4* UNL     1     -33.048  44.941 -13.809  0.00  0.00    +0.000 A 
BRANCH  12  15
ATOM     15  O3* UNL     1     -34.029  47.135 -14.250  0.00  0.00    +0.000 OA
ATOM     16  H3* UNL     1     -33.165  47.269 -14.678  0.00  0.00    +0.000 HD
ENDBRANCH  12  15
BRANCH  14  17
ATOM     17  C5* UNL     1     -32.150  44.845 -14.889  0.00  0.00    +0.000 C 
BRANCH  17  18
ATOM     18  O5* UNL     1     -31.299  44.756 -15.907  0.00  0.00    +0.000 OA
ATOM     19  H5* UNL     1     -31.553  45.376 -16.613  0.00  0.00    +0.000 HD
ENDBRANCH  17  18
ENDBRANCH  14  17
ENDBRANCH   3  11
BRANCH   7  23
ATOM     20  F   UNL     1     -32.148  45.262  -6.262  0.00  0.00    +0.000 F 
ATOM     21  F   UNL     1     -32.608  46.910  -7.600  0.00  0.00    +0.000 F 
ATOM     22  F   UNL     1     -34.151  46.143  -6.280  0.00  0.00    +0.000 F 
ATOM     23  C   UNL     1     -33.117  45.763  -7.070  0.00  0.00    +0.000 C 
ENDBRANCH   7  23
TORSDOF 5
ENDMDL
