MODEL 1
REMARK VINA RESULT:      -5.2      0.000      0.000
REMARK  Name = 6323266_Tipiracil.pdbqt.pdb
REMARK  2 active torsions:
REMARK  status: ('A' for Active; 'I' for Inactive)
REMARK    1  A    between atoms: C_6  and  C_12
REMARK    2  A    between atoms: C_12  and  N_13
REMARK                            x       y       z     vdW  Elec       q    Type
REMARK                         _______ _______ _______ _____ _____    ______ ____
ROOT
ATOM      1 CL   UNL     1     -32.819  44.994 -14.183  0.00  0.00    +0.000 Cl
ATOM      2  O   UNL     1     -34.385  47.557 -14.244  0.00  0.00    +0.000 OA
ATOM      3  O   UNL     1     -33.974  48.440 -18.668  0.00  0.00    +0.000 OA
ATOM      4  N   UNL     1     -32.999  46.567 -17.838  0.00  0.00    +0.000 N 
ATOM      5  N   UNL     1     -34.183  47.984 -16.456  0.00  0.00    +0.000 N 
ATOM      6  C   UNL     1     -32.710  45.727 -16.793  0.00  0.00    +0.000 A 
ATOM      7  C   UNL     1     -33.141  45.988 -15.552  0.00  0.00    +0.000 A 
ATOM      8  C   UNL     1     -33.949  47.222 -15.342  0.00  0.00    +0.000 A 
ATOM      9  C   UNL     1     -33.734  47.709 -17.714  0.00  0.00    +0.000 A 
ATOM     10  H   UNL     1     -32.657  46.348 -18.771  0.00  0.00    +0.000 HD
ATOM     11  H   UNL     1     -34.728  48.826 -16.336  0.00  0.00    +0.000 HD
ENDROOT
BRANCH   6  12
ATOM     12  C   UNL     1     -31.932  44.584 -17.123  0.00  0.00    +0.000 C 
BRANCH  12  13
ATOM     13  N   UNL     1     -31.034  43.491 -17.441  0.00  0.00    +0.000 N 
ATOM     14  N   UNL     1     -29.208  44.835 -18.419  0.00  0.00    +0.000 NA
ATOM     15  C   UNL     1     -30.787  42.489 -16.405  0.00  0.00    +0.000 C 
ATOM     16  C   UNL     1     -29.396  41.996 -16.022  0.00  0.00    +0.000 C 
ATOM     17  C   UNL     1     -28.842  42.994 -17.039  0.00  0.00    +0.000 C 
ATOM     18  C   UNL     1     -29.737  43.877 -17.755  0.00  0.00    +0.000 C 
ATOM     19  H   UNL     1     -28.183  44.783 -18.379  0.00  0.00    +0.000 HD
ENDBRANCH  12  13
ENDBRANCH   6  12
TORSDOF 2
ENDMDL
MODEL 2
REMARK VINA RESULT:      -4.8      2.167      2.783
REMARK  Name = 6323266_Tipiracil.pdbqt.pdb
REMARK  2 active torsions:
REMARK  status: ('A' for Active; 'I' for Inactive)
REMARK    1  A    between atoms: C_6  and  C_12
REMARK    2  A    between atoms: C_12  and  N_13
REMARK                            x       y       z     vdW  Elec       q    Type
REMARK                         _______ _______ _______ _____ _____    ______ ____
ROOT
ATOM      1 CL   UNL     1     -31.691  42.940 -15.496  0.00  0.00    +0.000 Cl
ATOM      2  O   UNL     1     -32.935  44.169 -13.053  0.00  0.00    +0.000 OA
ATOM      3  O   UNL     1     -34.364  48.027 -14.948  0.00  0.00    +0.000 OA
ATOM      4  N   UNL     1     -33.276  46.517 -16.246  0.00  0.00    +0.000 N 
ATOM      5  N   UNL     1     -33.654  46.089 -14.011  0.00  0.00    +0.000 N 
ATOM      6  C   UNL     1     -32.639  45.313 -16.408  0.00  0.00    +0.000 A 
ATOM      7  C   UNL     1     -32.484  44.464 -15.383  0.00  0.00    +0.000 A 
ATOM      8  C   UNL     1     -33.030  44.869 -14.057  0.00  0.00    +0.000 A 
ATOM      9  C   UNL     1     -33.801  46.945 -15.062  0.00  0.00    +0.000 A 
ATOM     10  H   UNL     1     -33.377  47.145 -17.040  0.00  0.00    +0.000 HD
ATOM     11  H   UNL     1     -34.031  46.382 -13.121  0.00  0.00    +0.000 HD
ENDROOT
BRANCH   6  12
ATOM     12  C   UNL     1     -32.163  45.044 -17.720  0.00  0.00    +0.000 C 
BRANCH  12  13
ATOM     13  N   UNL     1     -31.559  44.797 -19.015  0.00  0.00    +0.000 N 
ATOM     14  N   UNL     1     -29.202  44.757 -18.281  0.00  0.00    +0.000 NA
ATOM     15  C   UNL     1     -32.130  43.733 -19.841  0.00  0.00    +0.000 C 
ATOM     16  C   UNL     1     -31.295  42.663 -20.535  0.00  0.00    +0.000 C 
ATOM     17  C   UNL     1     -30.069  43.296 -19.875  0.00  0.00    +0.000 C 
ATOM     18  C   UNL     1     -30.224  44.415 -18.971  0.00  0.00    +0.000 C 
ATOM     19  H   UNL     1     -28.384  44.191 -18.537  0.00  0.00    +0.000 HD
ENDBRANCH  12  13
ENDBRANCH   6  12
TORSDOF 2
ENDMDL
MODEL 3
REMARK VINA RESULT:      -4.8      2.724      5.515
REMARK  Name = 6323266_Tipiracil.pdbqt.pdb
REMARK  2 active torsions:
REMARK  status: ('A' for Active; 'I' for Inactive)
REMARK    1  A    between atoms: C_6  and  C_12
REMARK    2  A    between atoms: C_12  and  N_13
REMARK                            x       y       z     vdW  Elec       q    Type
REMARK                         _______ _______ _______ _____ _____    ______ ____
ROOT
ATOM      1 CL   UNL     1     -32.270  43.057 -14.840  0.00  0.00    +0.000 Cl
ATOM      2  O   UNL     1     -29.565  42.151 -15.782  0.00  0.00    +0.000 OA
ATOM      3  O   UNL     1     -29.129  44.999 -19.277  0.00  0.00    +0.000 OA
ATOM      4  N   UNL     1     -31.018  45.098 -18.023  0.00  0.00    +0.000 N 
ATOM      5  N   UNL     1     -29.352  43.584 -17.519  0.00  0.00    +0.000 N 
ATOM      6  C   UNL     1     -31.786  44.660 -16.974  0.00  0.00    +0.000 A 
ATOM      7  C   UNL     1     -31.368  43.672 -16.171  0.00  0.00    +0.000 A 
ATOM      8  C   UNL     1     -30.037  43.064 -16.452  0.00  0.00    +0.000 A 
ATOM      9  C   UNL     1     -29.792  44.587 -18.332  0.00  0.00    +0.000 A 
ATOM     10  H   UNL     1     -31.360  45.847 -18.621  0.00  0.00    +0.000 HD
ATOM     11  H   UNL     1     -28.447  43.186 -17.727  0.00  0.00    +0.000 HD
ENDROOT
BRANCH   6  12
ATOM     12  C   UNL     1     -33.034  45.320 -16.813  0.00  0.00    +0.000 C 
BRANCH  12  13
ATOM     13  N   UNL     1     -34.247  46.102 -16.679  0.00  0.00    +0.000 N 
ATOM     14  N   UNL     1     -33.735  47.141 -14.498  0.00  0.00    +0.000 NA
ATOM     15  C   UNL     1     -34.677  46.895 -17.831  0.00  0.00    +0.000 C 
ATOM     16  C   UNL     1     -35.097  48.358 -17.740  0.00  0.00    +0.000 C 
ATOM     17  C   UNL     1     -34.756  48.287 -16.250  0.00  0.00    +0.000 C 
ATOM     18  C   UNL     1     -34.207  47.073 -15.686  0.00  0.00    +0.000 C 
ATOM     19  H   UNL     1     -33.883  48.076 -14.100  0.00  0.00    +0.000 HD
ENDBRANCH  12  13
ENDBRANCH   6  12
TORSDOF 2
ENDMDL
MODEL 4
REMARK VINA RESULT:      -4.7      2.266      2.884
REMARK  Name = 6323266_Tipiracil.pdbqt.pdb
REMARK  2 active torsions:
REMARK  status: ('A' for Active; 'I' for Inactive)
REMARK    1  A    between atoms: C_6  and  C_12
REMARK    2  A    between atoms: C_12  and  N_13
REMARK                            x       y       z     vdW  Elec       q    Type
REMARK                         _______ _______ _______ _____ _____    ______ ____
ROOT
ATOM      1 CL   UNL     1     -34.772  46.969 -14.619  0.00  0.00    +0.000 Cl
ATOM      2  O   UNL     1     -36.442  49.423 -15.082  0.00  0.00    +0.000 OA
ATOM      3  O   UNL     1     -34.853  50.501 -19.184  0.00  0.00    +0.000 OA
ATOM      4  N   UNL     1     -34.018  48.666 -18.143  0.00  0.00    +0.000 N 
ATOM      5  N   UNL     1     -35.650  49.948 -17.135  0.00  0.00    +0.000 N 
ATOM      6  C   UNL     1     -33.978  47.808 -17.074  0.00  0.00    +0.000 A 
ATOM      7  C   UNL     1     -34.763  47.992 -16.004  0.00  0.00    +0.000 A 
ATOM      8  C   UNL     1     -35.687  49.161 -16.013  0.00  0.00    +0.000 A 
ATOM      9  C   UNL     1     -34.842  49.751 -18.215  0.00  0.00    +0.000 A 
ATOM     10  H   UNL     1     -33.408  48.506 -18.942  0.00  0.00    +0.000 HD
ATOM     11  H   UNL     1     -36.268  50.746 -17.162  0.00  0.00    +0.000 HD
ENDROOT
BRANCH   6  12
ATOM     12  C   UNL     1     -33.055  46.733 -17.187  0.00  0.00    +0.000 C 
BRANCH  12  13
ATOM     13  N   UNL     1     -32.216  45.557 -17.313  0.00  0.00    +0.000 N 
ATOM     14  N   UNL     1     -31.557  45.363 -14.941  0.00  0.00    +0.000 NA
ATOM     15  C   UNL     1     -32.746  44.419 -18.063  0.00  0.00    +0.000 C 
ATOM     16  C   UNL     1     -32.699  42.980 -17.560  0.00  0.00    +0.000 C 
ATOM     17  C   UNL     1     -32.065  43.526 -16.280  0.00  0.00    +0.000 C 
ATOM     18  C   UNL     1     -31.880  44.951 -16.109  0.00  0.00    +0.000 C 
ATOM     19  H   UNL     1     -31.419  44.573 -14.301  0.00  0.00    +0.000 HD
ENDBRANCH  12  13
ENDBRANCH   6  12
TORSDOF 2
ENDMDL
MODEL 5
REMARK VINA RESULT:      -4.5     24.600     25.734
REMARK  Name = 6323266_Tipiracil.pdbqt.pdb
REMARK  2 active torsions:
REMARK  status: ('A' for Active; 'I' for Inactive)
REMARK    1  A    between atoms: C_6  and  C_12
REMARK    2  A    between atoms: C_12  and  N_13
REMARK                            x       y       z     vdW  Elec       q    Type
REMARK                         _______ _______ _______ _____ _____    ______ ____
ROOT
ATOM      1 CL   UNL     1     -31.841  48.967   8.568  0.00  0.00    +0.000 Cl
ATOM      2  O   UNL     1     -29.171  49.072   7.196  0.00  0.00    +0.000 OA
ATOM      3  O   UNL     1     -29.167  53.482   6.162  0.00  0.00    +0.000 OA
ATOM      4  N   UNL     1     -30.956  52.626   7.265  0.00  0.00    +0.000 N 
ATOM      5  N   UNL     1     -29.173  51.278   6.693  0.00  0.00    +0.000 N 
ATOM      6  C   UNL     1     -31.615  51.573   7.846  0.00  0.00    +0.000 A 
ATOM      7  C   UNL     1     -31.082  50.344   7.867  0.00  0.00    +0.000 A 
ATOM      8  C   UNL     1     -29.744  50.157   7.237  0.00  0.00    +0.000 A 
ATOM      9  C   UNL     1     -29.730  52.522   6.675  0.00  0.00    +0.000 A 
ATOM     10  H   UNL     1     -31.385  53.549   7.259  0.00  0.00    +0.000 HD
ATOM     11  H   UNL     1     -28.267  51.173   6.261  0.00  0.00    +0.000 HD
ENDROOT
BRANCH   6  12
ATOM     12  C   UNL     1     -32.882  51.881   8.411  0.00  0.00    +0.000 C 
BRANCH  12  13
ATOM     13  N   UNL     1     -34.227  52.158   8.876  0.00  0.00    +0.000 N 
ATOM     14  N   UNL     1     -35.111  53.122   6.782  0.00  0.00    +0.000 NA
ATOM     15  C   UNL     1     -34.931  51.096   9.596  0.00  0.00    +0.000 C 
ATOM     16  C   UNL     1     -36.364  50.674   9.288  0.00  0.00    +0.000 C 
ATOM     17  C   UNL     1     -36.344  51.698   8.153  0.00  0.00    +0.000 C 
ATOM     18  C   UNL     1     -35.141  52.451   7.871  0.00  0.00    +0.000 C 
ATOM     19  H   UNL     1     -36.010  53.059   6.291  0.00  0.00    +0.000 HD
ENDBRANCH  12  13
ENDBRANCH   6  12
TORSDOF 2
ENDMDL
MODEL 6
REMARK VINA RESULT:      -4.4      7.622      9.356
REMARK  Name = 6323266_Tipiracil.pdbqt.pdb
REMARK  2 active torsions:
REMARK  status: ('A' for Active; 'I' for Inactive)
REMARK    1  A    between atoms: C_6  and  C_12
REMARK    2  A    between atoms: C_12  and  N_13
REMARK                            x       y       z     vdW  Elec       q    Type
REMARK                         _______ _______ _______ _____ _____    ______ ____
ROOT
ATOM      1 CL   UNL     1     -33.550  44.336 -10.579  0.00  0.00    +0.000 Cl
ATOM      2  O   UNL     1     -35.566  44.843 -12.749  0.00  0.00    +0.000 OA
ATOM      3  O   UNL     1     -38.311  47.597 -10.426  0.00  0.00    +0.000 OA
ATOM      4  N   UNL     1     -36.472  46.766  -9.388  0.00  0.00    +0.000 N 
ATOM      5  N   UNL     1     -36.925  46.225 -11.584  0.00  0.00    +0.000 N 
ATOM      6  C   UNL     1     -35.334  46.002  -9.394  0.00  0.00    +0.000 A 
ATOM      7  C   UNL     1     -34.957  45.324 -10.487  0.00  0.00    +0.000 A 
ATOM      8  C   UNL     1     -35.816  45.428 -11.700  0.00  0.00    +0.000 A 
ATOM      9  C   UNL     1     -37.299  46.907 -10.464  0.00  0.00    +0.000 A 
ATOM     10  H   UNL     1     -36.738  47.269  -8.544  0.00  0.00    +0.000 HD
ATOM     11  H   UNL     1     -37.522  46.310 -12.395  0.00  0.00    +0.000 HD
ENDROOT
BRANCH   6  12
ATOM     12  C   UNL     1     -34.602  45.983  -8.176  0.00  0.00    +0.000 C 
BRANCH  12  13
ATOM     13  N   UNL     1     -33.815  46.083  -6.963  0.00  0.00    +0.000 N 
ATOM     14  N   UNL     1     -35.679  45.982  -5.347  0.00  0.00    +0.000 NA
ATOM     15  C   UNL     1     -32.638  45.222  -6.841  0.00  0.00    +0.000 C 
ATOM     16  C   UNL     1     -32.325  44.391  -5.602  0.00  0.00    +0.000 C 
ATOM     17  C   UNL     1     -33.640  44.906  -5.014  0.00  0.00    +0.000 C 
ATOM     18  C   UNL     1     -34.500  45.766  -5.797  0.00  0.00    +0.000 C 
ATOM     19  H   UNL     1     -35.806  45.534  -4.432  0.00  0.00    +0.000 HD
ENDBRANCH  12  13
ENDBRANCH   6  12
TORSDOF 2
ENDMDL
MODEL 7
REMARK VINA RESULT:      -4.4     23.253     24.975
REMARK  Name = 6323266_Tipiracil.pdbqt.pdb
REMARK  2 active torsions:
REMARK  status: ('A' for Active; 'I' for Inactive)
REMARK    1  A    between atoms: C_6  and  C_12
REMARK    2  A    between atoms: C_12  and  N_13
REMARK                            x       y       z     vdW  Elec       q    Type
REMARK                         _______ _______ _______ _____ _____    ______ ____
ROOT
ATOM      1 CL   UNL     1     -31.821  52.444   9.101  0.00  0.00    +0.000 Cl
ATOM      2  O   UNL     1     -29.803  53.081   6.968  0.00  0.00    +0.000 OA
ATOM      3  O   UNL     1     -30.923  49.808   4.045  0.00  0.00    +0.000 OA
ATOM      4  N   UNL     1     -32.074  49.965   5.994  0.00  0.00    +0.000 N 
ATOM      5  N   UNL     1     -30.376  51.450   5.510  0.00  0.00    +0.000 N 
ATOM      6  C   UNL     1     -32.313  50.572   7.200  0.00  0.00    +0.000 A 
ATOM      7  C   UNL     1     -31.594  51.628   7.602  0.00  0.00    +0.000 A 
ATOM      8  C   UNL     1     -30.523  52.126   6.693  0.00  0.00    +0.000 A 
ATOM      9  C   UNL     1     -31.113  50.373   5.116  0.00  0.00    +0.000 A 
ATOM     10  H   UNL     1     -32.633  49.162   5.714  0.00  0.00    +0.000 HD
ATOM     11  H   UNL     1     -29.656  51.771   4.879  0.00  0.00    +0.000 HD
ENDROOT
BRANCH   6  12
ATOM     12  C   UNL     1     -33.360  50.003   7.975  0.00  0.00    +0.000 C 
BRANCH  12  13
ATOM     13  N   UNL     1     -34.455  49.542   8.806  0.00  0.00    +0.000 N 
ATOM     14  N   UNL     1     -36.224  49.594   7.083  0.00  0.00    +0.000 NA
ATOM     15  C   UNL     1     -34.226  48.364   9.643  0.00  0.00    +0.000 C 
ATOM     16  C   UNL     1     -35.190  47.186   9.724  0.00  0.00    +0.000 C 
ATOM     17  C   UNL     1     -36.041  47.903   8.675  0.00  0.00    +0.000 C 
ATOM     18  C   UNL     1     -35.592  49.156   8.107  0.00  0.00    +0.000 C 
ATOM     19  H   UNL     1     -37.018  48.985   6.858  0.00  0.00    +0.000 HD
ENDBRANCH  12  13
ENDBRANCH   6  12
TORSDOF 2
ENDMDL
MODEL 8
REMARK VINA RESULT:      -4.4     18.173     20.163
REMARK  Name = 6323266_Tipiracil.pdbqt.pdb
REMARK  2 active torsions:
REMARK  status: ('A' for Active; 'I' for Inactive)
REMARK    1  A    between atoms: C_6  and  C_12
REMARK    2  A    between atoms: C_12  and  N_13
REMARK                            x       y       z     vdW  Elec       q    Type
REMARK                         _______ _______ _______ _____ _____    ______ ____
ROOT
ATOM      1 CL   UNL     1     -35.968  62.928  -4.009  0.00  0.00    +0.000 Cl
ATOM      2  O   UNL     1     -37.963  60.724  -3.571  0.00  0.00    +0.000 OA
ATOM      3  O   UNL     1     -36.217  57.710  -6.467  0.00  0.00    +0.000 OA
ATOM      4  N   UNL     1     -35.193  59.723  -6.244  0.00  0.00    +0.000 N 
ATOM      5  N   UNL     1     -37.078  59.221  -5.012  0.00  0.00    +0.000 N 
ATOM      6  C   UNL     1     -35.106  60.968  -5.675  0.00  0.00    +0.000 A 
ATOM      7  C   UNL     1     -35.998  61.381  -4.766  0.00  0.00    +0.000 A 
ATOM      8  C   UNL     1     -37.092  60.442  -4.388  0.00  0.00    +0.000 A 
ATOM      9  C   UNL     1     -36.165  58.815  -5.940  0.00  0.00    +0.000 A 
ATOM     10  H   UNL     1     -34.504  59.434  -6.935  0.00  0.00    +0.000 HD
ATOM     11  H   UNL     1     -37.810  58.569  -4.770  0.00  0.00    +0.000 HD
ENDROOT
BRANCH   6  12
ATOM     12  C   UNL     1     -34.019  61.769  -6.120  0.00  0.00    +0.000 C 
BRANCH  12  13
ATOM     13  N   UNL     1     -32.949  62.560  -6.694  0.00  0.00    +0.000 N 
ATOM     14  N   UNL     1     -34.307  63.833  -8.316  0.00  0.00    +0.000 NA
ATOM     15  C   UNL     1     -32.022  63.221  -5.775  0.00  0.00    +0.000 C 
ATOM     16  C   UNL     1     -31.612  64.684  -5.897  0.00  0.00    +0.000 C 
ATOM     17  C   UNL     1     -32.570  64.778  -7.085  0.00  0.00    +0.000 C 
ATOM     18  C   UNL     1     -33.369  63.634  -7.467  0.00  0.00    +0.000 C 
ATOM     19  H   UNL     1     -34.301  64.805  -8.644  0.00  0.00    +0.000 HD
ENDBRANCH  12  13
ENDBRANCH   6  12
TORSDOF 2
ENDMDL
MODEL 9
REMARK VINA RESULT:      -4.3     18.108     19.964
REMARK  Name = 6323266_Tipiracil.pdbqt.pdb
REMARK  2 active torsions:
REMARK  status: ('A' for Active; 'I' for Inactive)
REMARK    1  A    between atoms: C_6  and  C_12
REMARK    2  A    between atoms: C_12  and  N_13
REMARK                            x       y       z     vdW  Elec       q    Type
REMARK                         _______ _______ _______ _____ _____    ______ ____
ROOT
ATOM      1 CL   UNL     1     -30.444  59.993 -30.120  0.00  0.00    +0.000 Cl
ATOM      2  O   UNL     1     -32.710  59.418 -28.233  0.00  0.00    +0.000 OA
ATOM      3  O   UNL     1     -30.642  60.611 -24.384  0.00  0.00    +0.000 OA
ATOM      4  N   UNL     1     -29.493  60.783 -26.334  0.00  0.00    +0.000 N 
ATOM      5  N   UNL     1     -31.672  60.026 -26.317  0.00  0.00    +0.000 N 
ATOM      6  C   UNL     1     -29.417  60.650 -27.696  0.00  0.00    +0.000 A 
ATOM      7  C   UNL     1     -30.456  60.198 -28.411  0.00  0.00    +0.000 A 
ATOM      8  C   UNL     1     -31.704  59.846 -27.675  0.00  0.00    +0.000 A 
ATOM      9  C   UNL     1     -30.605  60.482 -25.602  0.00  0.00    +0.000 A 
ATOM     10  H   UNL     1     -28.688  61.125 -25.814  0.00  0.00    +0.000 HD
ATOM     11  H   UNL     1     -32.508  59.793 -25.799  0.00  0.00    +0.000 HD
ENDROOT
BRANCH   6  12
ATOM     12  C   UNL     1     -28.174  61.017 -28.278  0.00  0.00    +0.000 C 
BRANCH  12  13
ATOM     13  N   UNL     1     -26.900  61.488 -28.786  0.00  0.00    +0.000 N 
ATOM     14  N   UNL     1     -26.663  59.875 -30.640  0.00  0.00    +0.000 NA
ATOM     15  C   UNL     1     -26.738  62.928 -28.989  0.00  0.00    +0.000 C 
ATOM     16  C   UNL     1     -26.163  63.542 -30.261  0.00  0.00    +0.000 C 
ATOM     17  C   UNL     1     -26.072  62.121 -30.818  0.00  0.00    +0.000 C 
ATOM     18  C   UNL     1     -26.558  61.001 -30.042  0.00  0.00    +0.000 C 
ATOM     19  H   UNL     1     -26.315  59.941 -31.604  0.00  0.00    +0.000 HD
ENDBRANCH  12  13
ENDBRANCH   6  12
TORSDOF 2
ENDMDL
