MODEL 1
REMARK VINA RESULT:      -6.2      0.000      0.000
REMARK  Name = 6325056_Deoxyelephantopin.pdbqt.pdb
REMARK  3 active torsions:
REMARK  status: ('A' for Active; 'I' for Inactive)
REMARK    1  A    between atoms: C_6  and  O_20
REMARK    2  A    between atoms: O_20  and  C_22
REMARK    3  A    between atoms: C_22  and  C_23
REMARK                            x       y       z     vdW  Elec       q    Type
REMARK                         _______ _______ _______ _____ _____    ______ ____
ROOT
ATOM      1  O   UNL     1     -34.911  40.881  -9.793  0.00  0.00    +0.000 OA
ATOM      2  O   UNL     1     -34.942  46.845  -7.154  0.00  0.00    +0.000 OA
ATOM      3  O   UNL     1     -34.308  38.667  -9.690  0.00  0.00    +0.000 OA
ATOM      4  O   UNL     1     -34.929  46.026  -4.981  0.00  0.00    +0.000 OA
ATOM      5  C   UNL     1     -34.156  41.595  -7.673  0.00  0.00    +0.000 C 
ATOM      6  C   UNL     1     -33.913  42.413  -6.484  0.00  0.00    +0.000 C 
ATOM      7  C   UNL     1     -34.797  41.971  -8.920  0.00  0.00    +0.000 C 
ATOM      8  C   UNL     1     -33.554  43.785  -6.539  0.00  0.00    +0.000 C 
ATOM      9  C   UNL     1     -33.868  40.186  -7.839  0.00  0.00    +0.000 C 
ATOM     10  C   UNL     1     -33.361  45.199  -6.635  0.00  0.00    +0.000 C 
ATOM     11  C   UNL     1     -35.220  43.245  -9.368  0.00  0.00    +0.000 C 
ATOM     12  C   UNL     1     -34.225  46.418  -8.292  0.00  0.00    +0.000 C 
ATOM     13  C   UNL     1     -35.002  45.685  -9.238  0.00  0.00    +0.000 C 
ATOM     14  C   UNL     1     -35.568  44.542  -9.846  0.00  0.00    +0.000 C 
ATOM     15  C   UNL     1     -33.041  45.779  -7.873  0.00  0.00    +0.000 C 
ATOM     16  C   UNL     1     -34.364  39.773  -9.179  0.00  0.00    +0.000 C 
ATOM     17  C   UNL     1     -34.465  46.069  -6.107  0.00  0.00    +0.000 C 
ATOM     18  C   UNL     1     -33.204  39.398  -6.986  0.00  0.00    +0.000 C 
ATOM     19  C   UNL     1     -36.307  44.678 -11.138  0.00  0.00    +0.000 C 
ENDROOT
BRANCH   6  20
ATOM     20  O   UNL     1     -33.776  41.798  -5.228  0.00  0.00    +0.000 OA
BRANCH  20  22
ATOM     21  O   UNL     1     -35.659  42.652  -4.217  0.00  0.00    +0.000 OA
ATOM     22  C   UNL     1     -34.455  42.408  -4.197  0.00  0.00    +0.000 C 
BRANCH  22  23
ATOM     23  C   UNL     1     -33.507  42.713  -3.064  0.00  0.00    +0.000 C 
ATOM     24  C   UNL     1     -32.224  43.507  -3.246  0.00  0.00    +0.000 C 
ATOM     25  C   UNL     1     -33.773  42.351  -1.803  0.00  0.00    +0.000 C 
ENDBRANCH  22  23
ENDBRANCH  20  22
ENDBRANCH   6  20
TORSDOF 3
ENDMDL
MODEL 2
REMARK VINA RESULT:      -6.0     21.120     23.010
REMARK  Name = 6325056_Deoxyelephantopin.pdbqt.pdb
REMARK  3 active torsions:
REMARK  status: ('A' for Active; 'I' for Inactive)
REMARK    1  A    between atoms: C_6  and  O_20
REMARK    2  A    between atoms: O_20  and  C_22
REMARK    3  A    between atoms: C_22  and  C_23
REMARK                            x       y       z     vdW  Elec       q    Type
REMARK                         _______ _______ _______ _____ _____    ______ ____
ROOT
ATOM      1  O   UNL     1     -16.466  47.649   5.254  0.00  0.00    +0.000 OA
ATOM      2  O   UNL     1     -17.039  54.137   5.582  0.00  0.00    +0.000 OA
ATOM      3  O   UNL     1     -16.218  45.738   4.005  0.00  0.00    +0.000 OA
ATOM      4  O   UNL     1     -15.752  54.479   3.680  0.00  0.00    +0.000 OA
ATOM      5  C   UNL     1     -16.291  49.266   3.543  0.00  0.00    +0.000 C 
ATOM      6  C   UNL     1     -16.176  50.546   2.843  0.00  0.00    +0.000 C 
ATOM      7  C   UNL     1     -16.481  49.019   4.961  0.00  0.00    +0.000 C 
ATOM      8  C   UNL     1     -16.926  51.699   3.193  0.00  0.00    +0.000 C 
ATOM      9  C   UNL     1     -16.166  47.942   2.971  0.00  0.00    +0.000 C 
ATOM     10  C   UNL     1     -17.573  52.877   3.684  0.00  0.00    +0.000 C 
ATOM     11  C   UNL     1     -16.747  49.933   6.007  0.00  0.00    +0.000 C 
ATOM     12  C   UNL     1     -18.039  53.177   5.844  0.00  0.00    +0.000 C 
ATOM     13  C   UNL     1     -17.627  52.116   6.704  0.00  0.00    +0.000 C 
ATOM     14  C   UNL     1     -17.097  50.850   7.042  0.00  0.00    +0.000 C 
ATOM     15  C   UNL     1     -18.609  52.765   4.623  0.00  0.00    +0.000 C 
ATOM     16  C   UNL     1     -16.273  46.954   4.078  0.00  0.00    +0.000 C 
ATOM     17  C   UNL     1     -16.685  53.946   4.254  0.00  0.00    +0.000 C 
ATOM     18  C   UNL     1     -16.055  47.637   1.673  0.00  0.00    +0.000 C 
ATOM     19  C   UNL     1     -17.154  50.376   8.459  0.00  0.00    +0.000 C 
ENDROOT
BRANCH   6  20
ATOM     20  O   UNL     1     -15.494  50.613   1.616  0.00  0.00    +0.000 OA
BRANCH  20  22
ATOM     21  O   UNL     1     -13.324  49.876   1.837  0.00  0.00    +0.000 OA
ATOM     22  C   UNL     1     -14.131  50.794   1.709  0.00  0.00    +0.000 C 
BRANCH  22  23
ATOM     23  C   UNL     1     -13.799  52.262   1.622  0.00  0.00    +0.000 C 
ATOM     24  C   UNL     1     -14.439  53.199   0.611  0.00  0.00    +0.000 C 
ATOM     25  C   UNL     1     -12.956  52.848   2.481  0.00  0.00    +0.000 C 
ENDBRANCH  22  23
ENDBRANCH  20  22
ENDBRANCH   6  20
TORSDOF 3
ENDMDL
MODEL 3
REMARK VINA RESULT:      -5.9     20.825     22.342
REMARK  Name = 6325056_Deoxyelephantopin.pdbqt.pdb
REMARK  3 active torsions:
REMARK  status: ('A' for Active; 'I' for Inactive)
REMARK    1  A    between atoms: C_6  and  O_20
REMARK    2  A    between atoms: O_20  and  C_22
REMARK    3  A    between atoms: C_22  and  C_23
REMARK                            x       y       z     vdW  Elec       q    Type
REMARK                         _______ _______ _______ _____ _____    ______ ____
ROOT
ATOM      1  O   UNL     1     -16.782  47.071   6.391  0.00  0.00    +0.000 OA
ATOM      2  O   UNL     1     -15.753  52.264   2.583  0.00  0.00    +0.000 OA
ATOM      3  O   UNL     1     -16.789  44.793   6.684  0.00  0.00    +0.000 OA
ATOM      4  O   UNL     1     -14.079  51.207   1.370  0.00  0.00    +0.000 OA
ATOM      5  C   UNL     1     -15.879  47.187   4.214  0.00  0.00    +0.000 C 
ATOM      6  C   UNL     1     -15.311  47.703   2.967  0.00  0.00    +0.000 C 
ATOM      7  C   UNL     1     -16.395  47.926   5.352  0.00  0.00    +0.000 C 
ATOM      8  C   UNL     1     -15.800  48.860   2.305  0.00  0.00    +0.000 C 
ATOM      9  C   UNL     1     -15.984  45.802   4.619  0.00  0.00    +0.000 C 
ATOM     10  C   UNL     1     -16.211  50.119   1.765  0.00  0.00    +0.000 C 
ATOM     11  C   UNL     1     -16.619  49.315   5.497  0.00  0.00    +0.000 C 
ATOM     12  C   UNL     1     -16.995  51.773   3.040  0.00  0.00    +0.000 C 
ATOM     13  C   UNL     1     -17.037  51.489   4.438  0.00  0.00    +0.000 C 
ATOM     14  C   UNL     1     -16.920  50.705   5.608  0.00  0.00    +0.000 C 
ATOM     15  C   UNL     1     -17.403  50.713   2.206  0.00  0.00    +0.000 C 
ATOM     16  C   UNL     1     -16.548  45.770   5.995  0.00  0.00    +0.000 C 
ATOM     17  C   UNL     1     -15.210  51.237   1.824  0.00  0.00    +0.000 C 
ATOM     18  C   UNL     1     -15.705  44.725   3.875  0.00  0.00    +0.000 C 
ATOM     19  C   UNL     1     -17.367  51.260   6.922  0.00  0.00    +0.000 C 
ENDROOT
BRANCH   6  20
ATOM     20  O   UNL     1     -14.411  46.915   2.230  0.00  0.00    +0.000 OA
BRANCH  20  22
ATOM     21  O   UNL     1     -15.901  46.083   0.686  0.00  0.00    +0.000 OA
ATOM     22  C   UNL     1     -14.817  46.596   0.953  0.00  0.00    +0.000 C 
BRANCH  22  23
ATOM     23  C   UNL     1     -13.748  46.977  -0.039  0.00  0.00    +0.000 C 
ATOM     24  C   UNL     1     -13.577  46.286  -1.382  0.00  0.00    +0.000 C 
ATOM     25  C   UNL     1     -12.914  48.002   0.179  0.00  0.00    +0.000 C 
ENDBRANCH  22  23
ENDBRANCH  20  22
ENDBRANCH   6  20
TORSDOF 3
ENDMDL
MODEL 4
REMARK VINA RESULT:      -5.8      1.586      2.135
REMARK  Name = 6325056_Deoxyelephantopin.pdbqt.pdb
REMARK  3 active torsions:
REMARK  status: ('A' for Active; 'I' for Inactive)
REMARK    1  A    between atoms: C_6  and  O_20
REMARK    2  A    between atoms: O_20  and  C_22
REMARK    3  A    between atoms: C_22  and  C_23
REMARK                            x       y       z     vdW  Elec       q    Type
REMARK                         _______ _______ _______ _____ _____    ______ ____
ROOT
ATOM      1  O   UNL     1     -33.631  40.565  -9.252  0.00  0.00    +0.000 OA
ATOM      2  O   UNL     1     -34.507  46.670  -7.135  0.00  0.00    +0.000 OA
ATOM      3  O   UNL     1     -33.245  38.344  -8.807  0.00  0.00    +0.000 OA
ATOM      4  O   UNL     1     -35.482  45.980  -5.144  0.00  0.00    +0.000 OA
ATOM      5  C   UNL     1     -33.839  41.379  -7.047  0.00  0.00    +0.000 C 
ATOM      6  C   UNL     1     -34.097  42.258  -5.905  0.00  0.00    +0.000 C 
ATOM      7  C   UNL     1     -33.854  41.700  -8.462  0.00  0.00    +0.000 C 
ATOM      8  C   UNL     1     -33.680  43.614  -5.852  0.00  0.00    +0.000 C 
ATOM      9  C   UNL     1     -33.578  39.956  -7.013  0.00  0.00    +0.000 C 
ATOM     10  C   UNL     1     -33.394  45.015  -5.911  0.00  0.00    +0.000 C 
ATOM     11  C   UNL     1     -33.975  42.957  -9.100  0.00  0.00    +0.000 C 
ATOM     12  C   UNL     1     -33.389  46.158  -7.826  0.00  0.00    +0.000 C 
ATOM     13  C   UNL     1     -33.713  45.393  -8.987  0.00  0.00    +0.000 C 
ATOM     14  C   UNL     1     -34.014  44.233  -9.735  0.00  0.00    +0.000 C 
ATOM     15  C   UNL     1     -32.539  45.512  -6.907  0.00  0.00    +0.000 C 
ATOM     16  C   UNL     1     -33.462  39.479  -8.417  0.00  0.00    +0.000 C 
ATOM     17  C   UNL     1     -34.573  45.943  -5.954  0.00  0.00    +0.000 C 
ATOM     18  C   UNL     1     -33.392  39.201  -5.924  0.00  0.00    +0.000 C 
ATOM     19  C   UNL     1     -34.109  44.314 -11.224  0.00  0.00    +0.000 C 
ENDROOT
BRANCH   6  20
ATOM     20  O   UNL     1     -34.551  41.714  -4.692  0.00  0.00    +0.000 OA
BRANCH  20  22
ATOM     21  O   UNL     1     -36.464  42.875  -4.157  0.00  0.00    +0.000 OA
ATOM     22  C   UNL     1     -35.905  41.826  -4.466  0.00  0.00    +0.000 C 
BRANCH  22  23
ATOM     23  C   UNL     1     -36.573  40.489  -4.664  0.00  0.00    +0.000 C 
ATOM     24  C   UNL     1     -36.532  39.379  -3.626  0.00  0.00    +0.000 C 
ATOM     25  C   UNL     1     -37.304  40.218  -5.752  0.00  0.00    +0.000 C 
ENDBRANCH  22  23
ENDBRANCH  20  22
ENDBRANCH   6  20
TORSDOF 3
ENDMDL
MODEL 5
REMARK VINA RESULT:      -5.8      7.842     10.604
REMARK  Name = 6325056_Deoxyelephantopin.pdbqt.pdb
REMARK  3 active torsions:
REMARK  status: ('A' for Active; 'I' for Inactive)
REMARK    1  A    between atoms: C_6  and  O_20
REMARK    2  A    between atoms: O_20  and  C_22
REMARK    3  A    between atoms: C_22  and  C_23
REMARK                            x       y       z     vdW  Elec       q    Type
REMARK                         _______ _______ _______ _____ _____    ______ ____
ROOT
ATOM      1  O   UNL     1     -31.972  44.801 -18.777  0.00  0.00    +0.000 OA
ATOM      2  O   UNL     1     -36.663  49.280 -18.106  0.00  0.00    +0.000 OA
ATOM      3  O   UNL     1     -30.258  43.568 -17.871  0.00  0.00    +0.000 OA
ATOM      4  O   UNL     1     -37.030  48.752 -15.875  0.00  0.00    +0.000 OA
ATOM      5  C   UNL     1     -32.736  45.903 -16.835  0.00  0.00    +0.000 C 
ATOM      6  C   UNL     1     -33.542  46.710 -15.917  0.00  0.00    +0.000 C 
ATOM      7  C   UNL     1     -32.904  45.712 -18.264  0.00  0.00    +0.000 C 
ATOM      8  C   UNL     1     -34.103  47.966 -16.267  0.00  0.00    +0.000 C 
ATOM      9  C   UNL     1     -31.618  45.048 -16.496  0.00  0.00    +0.000 C 
ATOM     10  C   UNL     1     -34.788  49.140 -16.713  0.00  0.00    +0.000 C 
ATOM     11  C   UNL     1     -33.786  46.357 -19.162  0.00  0.00    +0.000 C 
ATOM     12  C   UNL     1     -35.455  49.410 -18.824  0.00  0.00    +0.000 C 
ATOM     13  C   UNL     1     -35.166  48.315 -19.693  0.00  0.00    +0.000 C 
ATOM     14  C   UNL     1     -34.619  47.069 -20.074  0.00  0.00    +0.000 C 
ATOM     15  C   UNL     1     -34.422  49.744 -17.926  0.00  0.00    +0.000 C 
ATOM     16  C   UNL     1     -31.171  44.366 -17.740  0.00  0.00    +0.000 C 
ATOM     17  C   UNL     1     -36.286  49.059 -16.789  0.00  0.00    +0.000 C 
ATOM     18  C   UNL     1     -31.027  44.937 -15.301  0.00  0.00    +0.000 C 
ATOM     19  C   UNL     1     -34.690  46.633 -21.502  0.00  0.00    +0.000 C 
ENDROOT
BRANCH   6  20
ATOM     20  O   UNL     1     -33.578  46.387 -14.550  0.00  0.00    +0.000 OA
BRANCH  20  22
ATOM     21  O   UNL     1     -35.677  45.443 -14.598  0.00  0.00    +0.000 OA
ATOM     22  C   UNL     1     -34.517  45.444 -14.193  0.00  0.00    +0.000 C 
BRANCH  22  23
ATOM     23  C   UNL     1     -33.904  44.434 -13.257  0.00  0.00    +0.000 C 
ATOM     24  C   UNL     1     -33.959  42.935 -13.501  0.00  0.00    +0.000 C 
ATOM     25  C   UNL     1     -33.211  44.805 -12.173  0.00  0.00    +0.000 C 
ENDBRANCH  22  23
ENDBRANCH  20  22
ENDBRANCH   6  20
TORSDOF 3
ENDMDL
MODEL 6
REMARK VINA RESULT:      -5.8      7.321     10.514
REMARK  Name = 6325056_Deoxyelephantopin.pdbqt.pdb
REMARK  3 active torsions:
REMARK  status: ('A' for Active; 'I' for Inactive)
REMARK    1  A    between atoms: C_6  and  O_20
REMARK    2  A    between atoms: O_20  and  C_22
REMARK    3  A    between atoms: C_22  and  C_23
REMARK                            x       y       z     vdW  Elec       q    Type
REMARK                         _______ _______ _______ _____ _____    ______ ____
ROOT
ATOM      1  O   UNL     1     -33.729  41.703 -13.803  0.00  0.00    +0.000 OA
ATOM      2  O   UNL     1     -29.180  42.590 -18.391  0.00  0.00    +0.000 OA
ATOM      3  O   UNL     1     -35.049  42.550 -12.125  0.00  0.00    +0.000 OA
ATOM      4  O   UNL     1     -29.819  44.787 -18.786  0.00  0.00    +0.000 OA
ATOM      5  C   UNL     1     -32.715  43.698 -14.554  0.00  0.00    +0.000 C 
ATOM      6  C   UNL     1     -31.940  44.653 -15.346  0.00  0.00    +0.000 C 
ATOM      7  C   UNL     1     -32.825  42.259 -14.717  0.00  0.00    +0.000 C 
ATOM      8  C   UNL     1     -30.654  44.369 -15.875  0.00  0.00    +0.000 C 
ATOM      9  C   UNL     1     -33.614  43.996 -13.459  0.00  0.00    +0.000 C 
ATOM     10  C   UNL     1     -29.441  43.984 -16.529  0.00  0.00    +0.000 C 
ATOM     11  C   UNL     1     -32.110  41.393 -15.577  0.00  0.00    +0.000 C 
ATOM     12  C   UNL     1     -29.041  41.887 -17.175  0.00  0.00    +0.000 C 
ATOM     13  C   UNL     1     -30.093  40.962 -16.906  0.00  0.00    +0.000 C 
ATOM     14  C   UNL     1     -31.330  40.516 -16.386  0.00  0.00    +0.000 C 
ATOM     15  C   UNL     1     -28.781  42.808 -16.141  0.00  0.00    +0.000 C 
ATOM     16  C   UNL     1     -34.238  42.719 -13.020  0.00  0.00    +0.000 C 
ATOM     17  C   UNL     1     -29.481  43.895 -18.028  0.00  0.00    +0.000 C 
ATOM     18  C   UNL     1     -33.804  45.186 -12.879  0.00  0.00    +0.000 C 
ATOM     19  C   UNL     1     -31.686  39.066 -16.458  0.00  0.00    +0.000 C 
ENDROOT
BRANCH   6  20
ATOM     20  O   UNL     1     -32.336  46.001 -15.401  0.00  0.00    +0.000 OA
BRANCH  20  22
ATOM     21  O   UNL     1     -32.584  46.389 -17.656  0.00  0.00    +0.000 OA
ATOM     22  C   UNL     1     -33.054  46.359 -16.521  0.00  0.00    +0.000 C 
BRANCH  22  23
ATOM     23  C   UNL     1     -34.474  46.689 -16.139  0.00  0.00    +0.000 C 
ATOM     24  C   UNL     1     -35.624  45.708 -16.291  0.00  0.00    +0.000 C 
ATOM     25  C   UNL     1     -34.801  47.860 -15.577  0.00  0.00    +0.000 C 
ENDBRANCH  22  23
ENDBRANCH  20  22
ENDBRANCH   6  20
TORSDOF 3
ENDMDL
MODEL 7
REMARK VINA RESULT:      -5.7     27.030     29.161
REMARK  Name = 6325056_Deoxyelephantopin.pdbqt.pdb
REMARK  3 active torsions:
REMARK  status: ('A' for Active; 'I' for Inactive)
REMARK    1  A    between atoms: C_6  and  O_20
REMARK    2  A    between atoms: O_20  and  C_22
REMARK    3  A    between atoms: C_22  and  C_23
REMARK                            x       y       z     vdW  Elec       q    Type
REMARK                         _______ _______ _______ _____ _____    ______ ____
ROOT
ATOM      1  O   UNL     1     -17.242  53.625 -27.011  0.00  0.00    +0.000 OA
ATOM      2  O   UNL     1     -14.809  56.682 -21.789  0.00  0.00    +0.000 OA
ATOM      3  O   UNL     1     -18.435  53.688 -28.972  0.00  0.00    +0.000 OA
ATOM      4  O   UNL     1     -14.550  58.691 -22.923  0.00  0.00    +0.000 OA
ATOM      5  C   UNL     1     -17.224  55.925 -26.484  0.00  0.00    +0.000 C 
ATOM      6  C   UNL     1     -16.923  57.204 -25.839  0.00  0.00    +0.000 C 
ATOM      7  C   UNL     1     -16.815  54.589 -26.090  0.00  0.00    +0.000 C 
ATOM      8  C   UNL     1     -16.860  57.375 -24.432  0.00  0.00    +0.000 C 
ATOM      9  C   UNL     1     -17.950  55.719 -27.719  0.00  0.00    +0.000 C 
ATOM     10  C   UNL     1     -16.639  57.463 -23.021  0.00  0.00    +0.000 C 
ATOM     11  C   UNL     1     -16.150  54.160 -24.917  0.00  0.00    +0.000 C 
ATOM     12  C   UNL     1     -15.869  55.751 -21.817  0.00  0.00    +0.000 C 
ATOM     13  C   UNL     1     -15.593  54.565 -22.562  0.00  0.00    +0.000 C 
ATOM     14  C   UNL     1     -15.555  53.724 -23.697  0.00  0.00    +0.000 C 
ATOM     15  C   UNL     1     -17.055  56.419 -22.181  0.00  0.00    +0.000 C 
ATOM     16  C   UNL     1     -17.932  54.262 -28.021  0.00  0.00    +0.000 C 
ATOM     17  C   UNL     1     -15.233  57.745 -22.574  0.00  0.00    +0.000 C 
ATOM     18  C   UNL     1     -18.597  56.646 -28.434  0.00  0.00    +0.000 C 
ATOM     19  C   UNL     1     -15.138  52.296 -23.549  0.00  0.00    +0.000 C 
ENDROOT
BRANCH   6  20
ATOM     20  O   UNL     1     -16.936  58.389 -26.595  0.00  0.00    +0.000 OA
BRANCH  20  22
ATOM     21  O   UNL     1     -14.795  59.152 -26.230  0.00  0.00    +0.000 OA
ATOM     22  C   UNL     1     -16.010  59.337 -26.219  0.00  0.00    +0.000 C 
BRANCH  22  23
ATOM     23  C   UNL     1     -16.711  60.608 -25.811  0.00  0.00    +0.000 C 
ATOM     24  C   UNL     1     -16.841  61.056 -24.364  0.00  0.00    +0.000 C 
ATOM     25  C   UNL     1     -17.211  61.461 -26.714  0.00  0.00    +0.000 C 
ENDBRANCH  22  23
ENDBRANCH  20  22
ENDBRANCH   6  20
TORSDOF 3
ENDMDL
MODEL 8
REMARK VINA RESULT:      -5.7     21.060     23.288
REMARK  Name = 6325056_Deoxyelephantopin.pdbqt.pdb
REMARK  3 active torsions:
REMARK  status: ('A' for Active; 'I' for Inactive)
REMARK    1  A    between atoms: C_6  and  O_20
REMARK    2  A    between atoms: O_20  and  C_22
REMARK    3  A    between atoms: C_22  and  C_23
REMARK                            x       y       z     vdW  Elec       q    Type
REMARK                         _______ _______ _______ _____ _____    ______ ____
ROOT
ATOM      1  O   UNL     1     -25.389  62.987   4.325  0.00  0.00    +0.000 OA
ATOM      2  O   UNL     1     -31.841  62.226   3.766  0.00  0.00    +0.000 OA
ATOM      3  O   UNL     1     -23.284  62.828   3.419  0.00  0.00    +0.000 OA
ATOM      4  O   UNL     1     -31.824  62.635   1.480  0.00  0.00    +0.000 OA
ATOM      5  C   UNL     1     -26.677  62.380   2.443  0.00  0.00    +0.000 C 
ATOM      6  C   UNL     1     -27.812  62.137   1.552  0.00  0.00    +0.000 C 
ATOM      7  C   UNL     1     -26.685  62.780   3.838  0.00  0.00    +0.000 C 
ATOM      8  C   UNL     1     -29.020  61.522   1.974  0.00  0.00    +0.000 C 
ATOM      9  C   UNL     1     -25.271  62.342   2.098  0.00  0.00    +0.000 C 
ATOM     10  C   UNL     1     -30.275  61.057   2.478  0.00  0.00    +0.000 C 
ATOM     11  C   UNL     1     -27.773  62.898   4.735  0.00  0.00    +0.000 C 
ATOM     12  C   UNL     1     -30.958  61.467   4.562  0.00  0.00    +0.000 C 
ATOM     13  C   UNL     1     -30.057  62.244   5.349  0.00  0.00    +0.000 C 
ATOM     14  C   UNL     1     -28.862  62.935   5.654  0.00  0.00    +0.000 C 
ATOM     15  C   UNL     1     -30.346  60.484   3.757  0.00  0.00    +0.000 C 
ATOM     16  C   UNL     1     -24.495  62.738   3.304  0.00  0.00    +0.000 C 
ATOM     17  C   UNL     1     -31.414  62.036   2.459  0.00  0.00    +0.000 C 
ATOM     18  C   UNL     1     -24.741  61.948   0.935  0.00  0.00    +0.000 C 
ATOM     19  C   UNL     1     -28.645  63.470   7.033  0.00  0.00    +0.000 C 
ENDROOT
BRANCH   6  20
ATOM     20  O   UNL     1     -27.652  62.273   0.162  0.00  0.00    +0.000 OA
BRANCH  20  22
ATOM     21  O   UNL     1     -29.372  62.905  -1.231  0.00  0.00    +0.000 OA
ATOM     22  C   UNL     1     -28.480  63.196  -0.438  0.00  0.00    +0.000 C 
BRANCH  22  23
ATOM     23  C   UNL     1     -28.129  64.585   0.033  0.00  0.00    +0.000 C 
ATOM     24  C   UNL     1     -26.753  65.201  -0.155  0.00  0.00    +0.000 C 
ATOM     25  C   UNL     1     -29.038  65.392   0.594  0.00  0.00    +0.000 C 
ENDBRANCH  22  23
ENDBRANCH  20  22
ENDBRANCH   6  20
TORSDOF 3
ENDMDL
MODEL 9
REMARK VINA RESULT:      -5.7     26.255     28.305
REMARK  Name = 6325056_Deoxyelephantopin.pdbqt.pdb
REMARK  3 active torsions:
REMARK  status: ('A' for Active; 'I' for Inactive)
REMARK    1  A    between atoms: C_6  and  O_20
REMARK    2  A    between atoms: O_20  and  C_22
REMARK    3  A    between atoms: C_22  and  C_23
REMARK                            x       y       z     vdW  Elec       q    Type
REMARK                         _______ _______ _______ _____ _____    ______ ____
ROOT
ATOM      1  O   UNL     1     -15.076  51.768 -22.654  0.00  0.00    +0.000 OA
ATOM      2  O   UNL     1     -15.655  58.254 -23.006  0.00  0.00    +0.000 OA
ATOM      3  O   UNL     1     -15.162  49.709 -23.668  0.00  0.00    +0.000 OA
ATOM      4  O   UNL     1     -14.976  58.326 -25.225  0.00  0.00    +0.000 OA
ATOM      5  C   UNL     1     -15.432  53.150 -24.535  0.00  0.00    +0.000 C 
ATOM      6  C   UNL     1     -15.547  54.327 -25.396  0.00  0.00    +0.000 C 
ATOM      7  C   UNL     1     -15.202  53.089 -23.103  0.00  0.00    +0.000 C 
ATOM      8  C   UNL     1     -16.188  55.529 -24.995  0.00  0.00    +0.000 C 
ATOM      9  C   UNL     1     -15.452  51.761 -24.945  0.00  0.00    +0.000 C 
ATOM     10  C   UNL     1     -16.688  56.772 -24.493  0.00  0.00    +0.000 C 
ATOM     11  C   UNL     1     -15.173  54.135 -22.150  0.00  0.00    +0.000 C 
ATOM     12  C   UNL     1     -16.520  57.354 -22.347  0.00  0.00    +0.000 C 
ATOM     13  C   UNL     1     -15.857  56.404 -21.514  0.00  0.00    +0.000 C 
ATOM     14  C   UNL     1     -15.228  55.182 -21.184  0.00  0.00    +0.000 C 
ATOM     15  C   UNL     1     -17.409  56.800 -23.289  0.00  0.00    +0.000 C 
ATOM     16  C   UNL     1     -15.217  50.925 -23.737  0.00  0.00    +0.000 C 
ATOM     17  C   UNL     1     -15.695  57.888 -24.344  0.00  0.00    +0.000 C 
ATOM     18  C   UNL     1     -15.713  51.291 -26.170  0.00  0.00    +0.000 C 
ATOM     19  C   UNL     1     -14.866  54.894 -19.763  0.00  0.00    +0.000 C 
ENDROOT
BRANCH   6  20
ATOM     20  O   UNL     1     -15.249  54.225 -26.765  0.00  0.00    +0.000 OA
BRANCH  20  22
ATOM     21  O   UNL     1     -15.968  56.085 -27.914  0.00  0.00    +0.000 OA
ATOM     22  C   UNL     1     -16.103  54.904 -27.606  0.00  0.00    +0.000 C 
BRANCH  22  23
ATOM     23  C   UNL     1     -17.198  53.982 -28.082  0.00  0.00    +0.000 C 
ATOM     24  C   UNL     1     -17.012  52.992 -29.221  0.00  0.00    +0.000 C 
ATOM     25  C   UNL     1     -18.394  53.936 -27.482  0.00  0.00    +0.000 C 
ENDBRANCH  22  23
ENDBRANCH  20  22
ENDBRANCH   6  20
TORSDOF 3
ENDMDL
