MODEL 1
REMARK VINA RESULT:      -5.5      0.000      0.000
REMARK  Name = 641785_Cardamonin.pdbqt.pdb
REMARK  6 active torsions:
REMARK  status: ('A' for Active; 'I' for Inactive)
REMARK    1  A    between atoms: C_1  and  C_14
REMARK    2  A    between atoms: C_2  and  O_7
REMARK    3  A    between atoms: C_3  and  O_9
REMARK    4  A    between atoms: C_6  and  O_11
REMARK    5  A    between atoms: C_14  and  C_15
REMARK    6  A    between atoms: C_16  and  C_17
REMARK                            x       y       z     vdW  Elec       q    Type
REMARK                         _______ _______ _______ _____ _____    ______ ____
ROOT
ATOM      1  C   UNL     1     -34.061  45.049  -7.533  0.00  0.00    +0.000 A 
ATOM      2  C   UNL     1     -34.587  44.009  -6.743  0.00  0.00    +0.000 A 
ATOM      3  C   UNL     1     -33.011  45.833  -7.014  0.00  0.00    +0.000 A 
ATOM      4  C   UNL     1     -34.070  43.798  -5.456  0.00  0.00    +0.000 A 
ATOM      5  C   UNL     1     -32.517  45.617  -5.729  0.00  0.00    +0.000 A 
ATOM      6  C   UNL     1     -33.056  44.603  -4.954  0.00  0.00    +0.000 A 
ENDROOT
BRANCH   2   7
ATOM      7  O   UNL     1     -35.540  43.176  -7.282  0.00  0.00    +0.000 OA
ATOM      8  C   UNL     1     -36.825  43.279  -6.737  0.00  0.00    +0.000 C 
ENDBRANCH   2   7
BRANCH   3   9
ATOM      9  O   UNL     1     -32.407  46.849  -7.711  0.00  0.00    +0.000 OA
ATOM     10  H   UNL     1     -32.914  47.681  -7.589  0.00  0.00    +0.000 HD
ENDBRANCH   3   9
BRANCH   6  11
ATOM     11  O   UNL     1     -32.564  44.404  -3.700  0.00  0.00    +0.000 OA
ATOM     12  H   UNL     1     -31.714  43.932  -3.766  0.00  0.00    +0.000 HD
ENDBRANCH   6  11
BRANCH   1  14
ATOM     13  O   UNL     1     -33.963  44.939  -9.884  0.00  0.00    +0.000 OA
ATOM     14  C   UNL     1     -34.553  45.368  -8.898  0.00  0.00    +0.000 C 
BRANCH  14  15
ATOM     15  C   UNL     1     -35.681  46.246  -9.085  0.00  0.00    +0.000 C 
ATOM     16  C   UNL     1     -36.630  46.972  -9.224  0.00  0.00    +0.000 C 
BRANCH  16  17
ATOM     17  C   UNL     1     -37.753  47.833  -9.396  0.00  0.00    +0.000 A 
ATOM     18  C   UNL     1     -38.460  47.822 -10.597  0.00  0.00    +0.000 A 
ATOM     19  C   UNL     1     -38.140  48.686  -8.365  0.00  0.00    +0.000 A 
ATOM     20  C   UNL     1     -39.556  48.665 -10.766  0.00  0.00    +0.000 A 
ATOM     21  C   UNL     1     -39.237  49.528  -8.535  0.00  0.00    +0.000 A 
ATOM     22  C   UNL     1     -39.943  49.517  -9.735  0.00  0.00    +0.000 A 
ENDBRANCH  16  17
ENDBRANCH  14  15
ENDBRANCH   1  14
TORSDOF 6
ENDMDL
MODEL 2
REMARK VINA RESULT:      -5.5      3.002      3.774
REMARK  Name = 641785_Cardamonin.pdbqt.pdb
REMARK  6 active torsions:
REMARK  status: ('A' for Active; 'I' for Inactive)
REMARK    1  A    between atoms: C_1  and  C_14
REMARK    2  A    between atoms: C_2  and  O_7
REMARK    3  A    between atoms: C_3  and  O_9
REMARK    4  A    between atoms: C_6  and  O_11
REMARK    5  A    between atoms: C_14  and  C_15
REMARK    6  A    between atoms: C_16  and  C_17
REMARK                            x       y       z     vdW  Elec       q    Type
REMARK                         _______ _______ _______ _____ _____    ______ ____
ROOT
ATOM      1  C   UNL     1     -34.175  44.350  -8.216  0.00  0.00    +0.000 A 
ATOM      2  C   UNL     1     -35.339  44.703  -7.506  0.00  0.00    +0.000 A 
ATOM      3  C   UNL     1     -32.921  44.533  -7.599  0.00  0.00    +0.000 A 
ATOM      4  C   UNL     1     -35.218  45.247  -6.219  0.00  0.00    +0.000 A 
ATOM      5  C   UNL     1     -32.819  45.086  -6.323  0.00  0.00    +0.000 A 
ATOM      6  C   UNL     1     -33.970  45.446  -5.643  0.00  0.00    +0.000 A 
ENDROOT
BRANCH   2   7
ATOM      7  O   UNL     1     -36.568  44.432  -8.061  0.00  0.00    +0.000 OA
ATOM      8  C   UNL     1     -37.321  45.543  -8.459  0.00  0.00    +0.000 C 
ENDBRANCH   2   7
BRANCH   3   9
ATOM      9  O   UNL     1     -31.729  44.194  -8.188  0.00  0.00    +0.000 OA
ATOM     10  H   UNL     1     -31.381  43.370  -7.781  0.00  0.00    +0.000 HD
ENDBRANCH   3   9
BRANCH   6  11
ATOM     11  O   UNL     1     -33.855  45.986  -4.398  0.00  0.00    +0.000 OA
ATOM     12  H   UNL     1     -33.518  45.304  -3.789  0.00  0.00    +0.000 HD
ENDBRANCH   6  11
BRANCH   1  14
ATOM     13  O   UNL     1     -33.911  42.610  -9.781  0.00  0.00    +0.000 OA
ATOM     14  C   UNL     1     -34.193  43.788  -9.591  0.00  0.00    +0.000 C 
BRANCH  14  15
ATOM     15  C   UNL     1     -34.468  44.634 -10.726  0.00  0.00    +0.000 C 
ATOM     16  C   UNL     1     -34.700  45.324 -11.683  0.00  0.00    +0.000 C 
BRANCH  16  17
ATOM     17  C   UNL     1     -34.972  46.148 -12.814  0.00  0.00    +0.000 A 
ATOM     18  C   UNL     1     -34.072  46.186 -13.878  0.00  0.00    +0.000 A 
ATOM     19  C   UNL     1     -36.135  46.913 -12.854  0.00  0.00    +0.000 A 
ATOM     20  C   UNL     1     -34.337  46.992 -14.983  0.00  0.00    +0.000 A 
ATOM     21  C   UNL     1     -36.399  47.719 -13.960  0.00  0.00    +0.000 A 
ATOM     22  C   UNL     1     -35.499  47.758 -15.022  0.00  0.00    +0.000 A 
ENDBRANCH  16  17
ENDBRANCH  14  15
ENDBRANCH   1  14
TORSDOF 6
ENDMDL
MODEL 3
REMARK VINA RESULT:      -5.5      3.578      4.603
REMARK  Name = 641785_Cardamonin.pdbqt.pdb
REMARK  6 active torsions:
REMARK  status: ('A' for Active; 'I' for Inactive)
REMARK    1  A    between atoms: C_1  and  C_14
REMARK    2  A    between atoms: C_2  and  O_7
REMARK    3  A    between atoms: C_3  and  O_9
REMARK    4  A    between atoms: C_6  and  O_11
REMARK    5  A    between atoms: C_14  and  C_15
REMARK    6  A    between atoms: C_16  and  C_17
REMARK                            x       y       z     vdW  Elec       q    Type
REMARK                         _______ _______ _______ _____ _____    ______ ____
ROOT
ATOM      1  C   UNL     1     -34.046  44.646  -9.241  0.00  0.00    +0.000 A 
ATOM      2  C   UNL     1     -34.739  45.677  -8.578  0.00  0.00    +0.000 A 
ATOM      3  C   UNL     1     -32.915  44.078  -8.619  0.00  0.00    +0.000 A 
ATOM      4  C   UNL     1     -34.274  46.126  -7.334  0.00  0.00    +0.000 A 
ATOM      5  C   UNL     1     -32.461  44.543  -7.386  0.00  0.00    +0.000 A 
ATOM      6  C   UNL     1     -33.141  45.571  -6.753  0.00  0.00    +0.000 A 
ENDROOT
BRANCH   2   7
ATOM      7  O   UNL     1     -35.900  46.164  -9.132  0.00  0.00    +0.000 OA
ATOM      8  C   UNL     1     -36.498  47.238  -8.461  0.00  0.00    +0.000 C 
ENDBRANCH   2   7
BRANCH   3   9
ATOM      9  O   UNL     1     -32.187  43.049  -9.162  0.00  0.00    +0.000 OA
ATOM     10  H   UNL     1     -32.665  42.678  -9.936  0.00  0.00    +0.000 HD
ENDBRANCH   3   9
BRANCH   6  11
ATOM     11  O   UNL     1     -32.684  46.016  -5.550  0.00  0.00    +0.000 OA
ATOM     12  H   UNL     1     -33.446  46.178  -4.965  0.00  0.00    +0.000 HD
ENDBRANCH   6  11
BRANCH   1  14
ATOM     13  O   UNL     1     -34.647  42.916 -10.722  0.00  0.00    +0.000 OA
ATOM     14  C   UNL     1     -34.442  44.115 -10.571  0.00  0.00    +0.000 C 
BRANCH  14  15
ATOM     15  C   UNL     1     -34.519  44.988 -11.716  0.00  0.00    +0.000 C 
ATOM     16  C   UNL     1     -34.593  45.729 -12.660  0.00  0.00    +0.000 C 
BRANCH  16  17
ATOM     17  C   UNL     1     -34.679  46.601 -13.785  0.00  0.00    +0.000 A 
ATOM     18  C   UNL     1     -35.682  47.568 -13.838  0.00  0.00    +0.000 A 
ATOM     19  C   UNL     1     -33.763  46.486 -14.827  0.00  0.00    +0.000 A 
ATOM     20  C   UNL     1     -35.767  48.420 -14.937  0.00  0.00    +0.000 A 
ATOM     21  C   UNL     1     -33.849  47.338 -15.926  0.00  0.00    +0.000 A 
ATOM     22  C   UNL     1     -34.851  48.304 -15.979  0.00  0.00    +0.000 A 
ENDBRANCH  16  17
ENDBRANCH  14  15
ENDBRANCH   1  14
TORSDOF 6
ENDMDL
MODEL 4
REMARK VINA RESULT:      -5.3     16.504     19.733
REMARK  Name = 641785_Cardamonin.pdbqt.pdb
REMARK  6 active torsions:
REMARK  status: ('A' for Active; 'I' for Inactive)
REMARK    1  A    between atoms: C_1  and  C_14
REMARK    2  A    between atoms: C_2  and  O_7
REMARK    3  A    between atoms: C_3  and  O_9
REMARK    4  A    between atoms: C_6  and  O_11
REMARK    5  A    between atoms: C_14  and  C_15
REMARK    6  A    between atoms: C_16  and  C_17
REMARK                            x       y       z     vdW  Elec       q    Type
REMARK                         _______ _______ _______ _____ _____    ______ ____
ROOT
ATOM      1  C   UNL     1     -19.250  39.463  -3.835  0.00  0.00    +0.000 A 
ATOM      2  C   UNL     1     -18.636  39.199  -5.075  0.00  0.00    +0.000 A 
ATOM      3  C   UNL     1     -20.654  39.371  -3.739  0.00  0.00    +0.000 A 
ATOM      4  C   UNL     1     -19.436  38.879  -6.182  0.00  0.00    +0.000 A 
ATOM      5  C   UNL     1     -21.434  39.062  -4.852  0.00  0.00    +0.000 A 
ATOM      6  C   UNL     1     -20.819  38.823  -6.070  0.00  0.00    +0.000 A 
ENDROOT
BRANCH   2   7
ATOM      7  O   UNL     1     -17.263  39.186  -5.150  0.00  0.00    +0.000 OA
ATOM      8  C   UNL     1     -16.663  37.923  -5.211  0.00  0.00    +0.000 C 
ENDBRANCH   2   7
BRANCH   3   9
ATOM      9  O   UNL     1     -21.350  39.576  -2.574  0.00  0.00    +0.000 OA
ATOM     10  H   UNL     1     -20.746  39.474  -1.806  0.00  0.00    +0.000 HD
ENDBRANCH   3   9
BRANCH   6  11
ATOM     11  O   UNL     1     -21.594  38.524  -7.149  0.00  0.00    +0.000 OA
ATOM     12  H   UNL     1     -21.020  38.214  -7.872  0.00  0.00    +0.000 HD
ENDBRANCH   6  11
BRANCH   1  14
ATOM     13  O   UNL     1     -18.643  39.189  -1.576  0.00  0.00    +0.000 OA
ATOM     14  C   UNL     1     -18.496  39.832  -2.610  0.00  0.00    +0.000 C 
BRANCH  14  15
ATOM     15  C   UNL     1     -17.641  40.993  -2.597  0.00  0.00    +0.000 C 
ATOM     16  C   UNL     1     -16.929  41.962  -2.605  0.00  0.00    +0.000 C 
BRANCH  16  17
ATOM     17  C   UNL     1     -16.083  43.110  -2.608  0.00  0.00    +0.000 A 
ATOM     18  C   UNL     1     -16.644  44.385  -2.644  0.00  0.00    +0.000 A 
ATOM     19  C   UNL     1     -14.700  42.955  -2.577  0.00  0.00    +0.000 A 
ATOM     20  C   UNL     1     -15.818  45.507  -2.649  0.00  0.00    +0.000 A 
ATOM     21  C   UNL     1     -13.874  44.077  -2.581  0.00  0.00    +0.000 A 
ATOM     22  C   UNL     1     -14.435  45.352  -2.617  0.00  0.00    +0.000 A 
ENDBRANCH  16  17
ENDBRANCH  14  15
ENDBRANCH   1  14
TORSDOF 6
ENDMDL
MODEL 5
REMARK VINA RESULT:      -5.2     12.481     15.951
REMARK  Name = 641785_Cardamonin.pdbqt.pdb
REMARK  6 active torsions:
REMARK  status: ('A' for Active; 'I' for Inactive)
REMARK    1  A    between atoms: C_1  and  C_14
REMARK    2  A    between atoms: C_2  and  O_7
REMARK    3  A    between atoms: C_3  and  O_9
REMARK    4  A    between atoms: C_6  and  O_11
REMARK    5  A    between atoms: C_14  and  C_15
REMARK    6  A    between atoms: C_16  and  C_17
REMARK                            x       y       z     vdW  Elec       q    Type
REMARK                         _______ _______ _______ _____ _____    ______ ____
ROOT
ATOM      1  C   UNL     1     -23.994  38.528  -9.640  0.00  0.00    +0.000 A 
ATOM      2  C   UNL     1     -25.102  37.665  -9.534  0.00  0.00    +0.000 A 
ATOM      3  C   UNL     1     -24.219  39.894  -9.905  0.00  0.00    +0.000 A 
ATOM      4  C   UNL     1     -26.393  38.182  -9.720  0.00  0.00    +0.000 A 
ATOM      5  C   UNL     1     -25.508  40.388 -10.098  0.00  0.00    +0.000 A 
ATOM      6  C   UNL     1     -26.588  39.526 -10.010  0.00  0.00    +0.000 A 
ENDROOT
BRANCH   2   7
ATOM      7  O   UNL     1     -24.896  36.354  -9.174  0.00  0.00    +0.000 OA
ATOM      8  C   UNL     1     -25.304  36.000  -7.882  0.00  0.00    +0.000 C 
ENDBRANCH   2   7
BRANCH   3   9
ATOM      9  O   UNL     1     -23.215  40.824  -9.997  0.00  0.00    +0.000 OA
ATOM     10  H   UNL     1     -22.399  40.398 -10.339  0.00  0.00    +0.000 HD
ENDBRANCH   3   9
BRANCH   6  11
ATOM     11  O   UNL     1     -27.842  40.022 -10.202  0.00  0.00    +0.000 OA
ATOM     12  H   UNL     1     -27.784  40.811 -10.770  0.00  0.00    +0.000 HD
ENDBRANCH   6  11
BRANCH   1  14
ATOM     13  O   UNL     1     -22.052  37.403 -10.356  0.00  0.00    +0.000 OA
ATOM     14  C   UNL     1     -22.587  38.077  -9.483  0.00  0.00    +0.000 C 
BRANCH  14  15
ATOM     15  C   UNL     1     -21.857  38.361  -8.272  0.00  0.00    +0.000 C 
ATOM     16  C   UNL     1     -21.250  38.616  -7.266  0.00  0.00    +0.000 C 
BRANCH  16  17
ATOM     17  C   UNL     1     -20.528  38.912  -6.073  0.00  0.00    +0.000 A 
ATOM     18  C   UNL     1     -19.135  38.960  -6.098  0.00  0.00    +0.000 A 
ATOM     19  C   UNL     1     -21.214  39.152  -4.885  0.00  0.00    +0.000 A 
ATOM     20  C   UNL     1     -18.428  39.247  -4.932  0.00  0.00    +0.000 A 
ATOM     21  C   UNL     1     -20.507  39.439  -3.719  0.00  0.00    +0.000 A 
ATOM     22  C   UNL     1     -19.115  39.486  -3.744  0.00  0.00    +0.000 A 
ENDBRANCH  16  17
ENDBRANCH  14  15
ENDBRANCH   1  14
TORSDOF 6
ENDMDL
MODEL 6
REMARK VINA RESULT:      -5.2     24.743     26.298
REMARK  Name = 641785_Cardamonin.pdbqt.pdb
REMARK  6 active torsions:
REMARK  status: ('A' for Active; 'I' for Inactive)
REMARK    1  A    between atoms: C_1  and  C_14
REMARK    2  A    between atoms: C_2  and  O_7
REMARK    3  A    between atoms: C_3  and  O_9
REMARK    4  A    between atoms: C_6  and  O_11
REMARK    5  A    between atoms: C_14  and  C_15
REMARK    6  A    between atoms: C_16  and  C_17
REMARK                            x       y       z     vdW  Elec       q    Type
REMARK                         _______ _______ _______ _____ _____    ______ ____
ROOT
ATOM      1  C   UNL     1     -15.606  49.813 -24.368  0.00  0.00    +0.000 A 
ATOM      2  C   UNL     1     -16.237  49.608 -25.610  0.00  0.00    +0.000 A 
ATOM      3  C   UNL     1     -15.893  48.931 -23.306  0.00  0.00    +0.000 A 
ATOM      4  C   UNL     1     -17.149  48.552 -25.749  0.00  0.00    +0.000 A 
ATOM      5  C   UNL     1     -16.810  47.892 -23.459  0.00  0.00    +0.000 A 
ATOM      6  C   UNL     1     -17.438  47.713 -24.681  0.00  0.00    +0.000 A 
ENDROOT
BRANCH   2   7
ATOM      7  O   UNL     1     -15.884  50.402 -26.677  0.00  0.00    +0.000 OA
ATOM      8  C   UNL     1     -16.823  51.366 -27.062  0.00  0.00    +0.000 C 
ENDBRANCH   2   7
BRANCH   3   9
ATOM      9  O   UNL     1     -15.311  49.021 -22.067  0.00  0.00    +0.000 OA
ATOM     10  H   UNL     1     -15.491  48.200 -21.557  0.00  0.00    +0.000 HD
ENDBRANCH   3   9
BRANCH   6  11
ATOM     11  O   UNL     1     -18.333  46.696 -24.816  0.00  0.00    +0.000 OA
ATOM     12  H   UNL     1     -18.958  46.919 -25.528  0.00  0.00    +0.000 HD
ENDBRANCH   6  11
BRANCH   1  14
ATOM     13  O   UNL     1     -13.438  50.688 -24.076  0.00  0.00    +0.000 OA
ATOM     14  C   UNL     1     -14.643  50.914 -24.110  0.00  0.00    +0.000 C 
BRANCH  14  15
ATOM     15  C   UNL     1     -15.113  52.247 -23.821  0.00  0.00    +0.000 C 
ATOM     16  C   UNL     1     -15.491  53.359 -23.567  0.00  0.00    +0.000 C 
BRANCH  16  17
ATOM     17  C   UNL     1     -15.946  54.677 -23.269  0.00  0.00    +0.000 A 
ATOM     18  C   UNL     1     -16.412  55.499 -24.294  0.00  0.00    +0.000 A 
ATOM     19  C   UNL     1     -15.923  55.142 -21.956  0.00  0.00    +0.000 A 
ATOM     20  C   UNL     1     -16.855  56.788 -24.004  0.00  0.00    +0.000 A 
ATOM     21  C   UNL     1     -16.367  56.431 -21.667  0.00  0.00    +0.000 A 
ATOM     22  C   UNL     1     -16.832  57.252 -22.691  0.00  0.00    +0.000 A 
ENDBRANCH  16  17
ENDBRANCH  14  15
ENDBRANCH   1  14
TORSDOF 6
ENDMDL
MODEL 7
REMARK VINA RESULT:      -5.1     26.758     28.649
REMARK  Name = 641785_Cardamonin.pdbqt.pdb
REMARK  6 active torsions:
REMARK  status: ('A' for Active; 'I' for Inactive)
REMARK    1  A    between atoms: C_1  and  C_14
REMARK    2  A    between atoms: C_2  and  O_7
REMARK    3  A    between atoms: C_3  and  O_9
REMARK    4  A    between atoms: C_6  and  O_11
REMARK    5  A    between atoms: C_14  and  C_15
REMARK    6  A    between atoms: C_16  and  C_17
REMARK                            x       y       z     vdW  Elec       q    Type
REMARK                         _______ _______ _______ _____ _____    ______ ____
ROOT
ATOM      1  C   UNL     1     -17.222  54.256 -28.585  0.00  0.00    +0.000 A 
ATOM      2  C   UNL     1     -17.096  55.540 -29.150  0.00  0.00    +0.000 A 
ATOM      3  C   UNL     1     -18.320  53.454 -28.959  0.00  0.00    +0.000 A 
ATOM      4  C   UNL     1     -18.074  55.994 -30.047  0.00  0.00    +0.000 A 
ATOM      5  C   UNL     1     -19.289  53.925 -29.844  0.00  0.00    +0.000 A 
ATOM      6  C   UNL     1     -19.163  55.197 -30.378  0.00  0.00    +0.000 A 
ENDROOT
BRANCH   2   7
ATOM      7  O   UNL     1     -15.975  56.286 -28.869  0.00  0.00    +0.000 OA
ATOM      8  C   UNL     1     -16.191  57.482 -28.175  0.00  0.00    +0.000 C 
ENDBRANCH   2   7
BRANCH   3   9
ATOM      9  O   UNL     1     -18.521  52.179 -28.494  0.00  0.00    +0.000 OA
ATOM     10  H   UNL     1     -19.415  52.111 -28.092  0.00  0.00    +0.000 HD
ENDBRANCH   3   9
BRANCH   6  11
ATOM     11  O   UNL     1     -20.118  55.645 -31.240  0.00  0.00    +0.000 OA
ATOM     12  H   UNL     1     -19.960  56.588 -31.422  0.00  0.00    +0.000 HD
ENDBRANCH   6  11
BRANCH   1  14
ATOM     13  O   UNL     1     -15.502  52.782 -27.942  0.00  0.00    +0.000 OA
ATOM     14  C   UNL     1     -16.254  53.691 -27.610  0.00  0.00    +0.000 C 
BRANCH  14  15
ATOM     15  C   UNL     1     -16.237  54.151 -26.244  0.00  0.00    +0.000 C 
ATOM     16  C   UNL     1     -16.208  54.522 -25.100  0.00  0.00    +0.000 C 
BRANCH  16  17
ATOM     17  C   UNL     1     -16.181  54.966 -23.746  0.00  0.00    +0.000 A 
ATOM     18  C   UNL     1     -16.737  56.198 -23.407  0.00  0.00    +0.000 A 
ATOM     19  C   UNL     1     -15.597  54.168 -22.764  0.00  0.00    +0.000 A 
ATOM     20  C   UNL     1     -16.709  56.633 -22.084  0.00  0.00    +0.000 A 
ATOM     21  C   UNL     1     -15.569  54.604 -21.441  0.00  0.00    +0.000 A 
ATOM     22  C   UNL     1     -16.125  55.836 -21.102  0.00  0.00    +0.000 A 
ENDBRANCH  16  17
ENDBRANCH  14  15
ENDBRANCH   1  14
TORSDOF 6
ENDMDL
MODEL 8
REMARK VINA RESULT:      -5.0     19.292     21.403
REMARK  Name = 641785_Cardamonin.pdbqt.pdb
REMARK  6 active torsions:
REMARK  status: ('A' for Active; 'I' for Inactive)
REMARK    1  A    between atoms: C_1  and  C_14
REMARK    2  A    between atoms: C_2  and  O_7
REMARK    3  A    between atoms: C_3  and  O_9
REMARK    4  A    between atoms: C_6  and  O_11
REMARK    5  A    between atoms: C_14  and  C_15
REMARK    6  A    between atoms: C_16  and  C_17
REMARK                            x       y       z     vdW  Elec       q    Type
REMARK                         _______ _______ _______ _____ _____    ______ ____
ROOT
ATOM      1  C   UNL     1     -16.221  43.133  -1.820  0.00  0.00    +0.000 A 
ATOM      2  C   UNL     1     -15.424  42.058  -1.383  0.00  0.00    +0.000 A 
ATOM      3  C   UNL     1     -17.435  42.854  -2.482  0.00  0.00    +0.000 A 
ATOM      4  C   UNL     1     -15.845  40.744  -1.639  0.00  0.00    +0.000 A 
ATOM      5  C   UNL     1     -17.832  41.543  -2.737  0.00  0.00    +0.000 A 
ATOM      6  C   UNL     1     -17.030  40.495  -2.319  0.00  0.00    +0.000 A 
ENDROOT
BRANCH   2   7
ATOM      7  O   UNL     1     -14.292  42.322  -0.647  0.00  0.00    +0.000 OA
ATOM      8  C   UNL     1     -13.996  41.410   0.373  0.00  0.00    +0.000 C 
ENDBRANCH   2   7
BRANCH   3   9
ATOM      9  O   UNL     1     -18.300  43.825  -2.920  0.00  0.00    +0.000 OA
ATOM     10  H   UNL     1     -18.551  44.408  -2.170  0.00  0.00    +0.000 HD
ENDBRANCH   3   9
BRANCH   6  11
ATOM     11  O   UNL     1     -17.430  39.218  -2.576  0.00  0.00    +0.000 OA
ATOM     12  H   UNL     1     -18.366  39.125  -2.324  0.00  0.00    +0.000 HD
ENDBRANCH   6  11
BRANCH   1  14
ATOM     13  O   UNL     1     -16.103  45.117  -0.556  0.00  0.00    +0.000 OA
ATOM     14  C   UNL     1     -15.856  44.559  -1.619  0.00  0.00    +0.000 C 
BRANCH  14  15
ATOM     15  C   UNL     1     -15.274  45.325  -2.694  0.00  0.00    +0.000 C 
ATOM     16  C   UNL     1     -14.804  45.976  -3.588  0.00  0.00    +0.000 C 
BRANCH  16  17
ATOM     17  C   UNL     1     -14.241  46.743  -4.651  0.00  0.00    +0.000 A 
ATOM     18  C   UNL     1     -14.696  48.040  -4.887  0.00  0.00    +0.000 A 
ATOM     19  C   UNL     1     -13.242  46.196  -5.451  0.00  0.00    +0.000 A 
ATOM     20  C   UNL     1     -14.148  48.789  -5.926  0.00  0.00    +0.000 A 
ATOM     21  C   UNL     1     -12.695  46.946  -6.490  0.00  0.00    +0.000 A 
ATOM     22  C   UNL     1     -13.149  48.242  -6.726  0.00  0.00    +0.000 A 
ENDBRANCH  16  17
ENDBRANCH  14  15
ENDBRANCH   1  14
TORSDOF 6
ENDMDL
MODEL 9
REMARK VINA RESULT:      -5.0     21.884     23.192
REMARK  Name = 641785_Cardamonin.pdbqt.pdb
REMARK  6 active torsions:
REMARK  status: ('A' for Active; 'I' for Inactive)
REMARK    1  A    between atoms: C_1  and  C_14
REMARK    2  A    between atoms: C_2  and  O_7
REMARK    3  A    between atoms: C_3  and  O_9
REMARK    4  A    between atoms: C_6  and  O_11
REMARK    5  A    between atoms: C_14  and  C_15
REMARK    6  A    between atoms: C_16  and  C_17
REMARK                            x       y       z     vdW  Elec       q    Type
REMARK                         _______ _______ _______ _____ _____    ______ ____
ROOT
ATOM      1  C   UNL     1     -17.995  52.680   6.037  0.00  0.00    +0.000 A 
ATOM      2  C   UNL     1     -17.487  51.641   6.840  0.00  0.00    +0.000 A 
ATOM      3  C   UNL     1     -18.008  52.512   4.637  0.00  0.00    +0.000 A 
ATOM      4  C   UNL     1     -16.986  50.483   6.227  0.00  0.00    +0.000 A 
ATOM      5  C   UNL     1     -17.497  51.359   4.044  0.00  0.00    +0.000 A 
ATOM      6  C   UNL     1     -16.982  50.352   4.844  0.00  0.00    +0.000 A 
ENDROOT
BRANCH   2   7
ATOM      7  O   UNL     1     -17.566  51.755   8.208  0.00  0.00    +0.000 OA
ATOM      8  C   UNL     1     -17.409  50.568   8.934  0.00  0.00    +0.000 C 
ENDBRANCH   2   7
BRANCH   3   9
ATOM      9  O   UNL     1     -18.509  53.446   3.765  0.00  0.00    +0.000 OA
ATOM     10  H   UNL     1     -17.944  53.486   2.962  0.00  0.00    +0.000 HD
ENDBRANCH   3   9
BRANCH   6  11
ATOM     11  O   UNL     1     -16.485  49.232   4.251  0.00  0.00    +0.000 OA
ATOM     12  H   UNL     1     -15.898  48.776   4.881  0.00  0.00    +0.000 HD
ENDBRANCH   6  11
BRANCH   1  14
ATOM     13  O   UNL     1     -17.852  54.977   6.538  0.00  0.00    +0.000 OA
ATOM     14  C   UNL     1     -18.527  53.954   6.585  0.00  0.00    +0.000 C 
BRANCH  14  15
ATOM     15  C   UNL     1     -19.808  53.990   7.246  0.00  0.00    +0.000 C 
ATOM     16  C   UNL     1     -20.881  54.003   7.788  0.00  0.00    +0.000 C 
BRANCH  16  17
ATOM     17  C   UNL     1     -22.152  54.026   8.433  0.00  0.00    +0.000 A 
ATOM     18  C   UNL     1     -22.327  53.364   9.647  0.00  0.00    +0.000 A 
ATOM     19  C   UNL     1     -23.217  54.708   7.849  0.00  0.00    +0.000 A 
ATOM     20  C   UNL     1     -23.569  53.385  10.277  0.00  0.00    +0.000 A 
ATOM     21  C   UNL     1     -24.459  54.728   8.480  0.00  0.00    +0.000 A 
ATOM     22  C   UNL     1     -24.634  54.066   9.693  0.00  0.00    +0.000 A 
ENDBRANCH  16  17
ENDBRANCH  14  15
ENDBRANCH   1  14
TORSDOF 6
ENDMDL
