MODEL 1
REMARK VINA RESULT:      -5.6      0.000      0.000
REMARK  Name = 6440856_Goniothalamin.pdbqt.pdb
REMARK  2 active torsions:
REMARK  status: ('A' for Active; 'I' for Inactive)
REMARK    1  A    between atoms: C_1  and  C_5
REMARK    2  A    between atoms: C_2  and  C_10
REMARK                            x       y       z     vdW  Elec       q    Type
REMARK                         _______ _______ _______ _____ _____    ______ ____
ROOT
ATOM      1  C   UNL     1     -35.710  46.743  -8.255  0.00  0.00    +0.000 C 
ATOM      2  C   UNL     1     -36.675  47.364  -8.611  0.00  0.00    +0.000 C 
ENDROOT
BRANCH   1   5
ATOM      3  O   UNL     1     -33.993  45.063  -8.752  0.00  0.00    +0.000 OA
ATOM      4  O   UNL     1     -32.287  43.513  -9.007  0.00  0.00    +0.000 OA
ATOM      5  C   UNL     1     -34.577  46.010  -7.837  0.00  0.00    +0.000 A 
ATOM      6  C   UNL     1     -33.933  46.111  -6.574  0.00  0.00    +0.000 A 
ATOM      7  C   UNL     1     -32.725  45.369  -6.051  0.00  0.00    +0.000 A 
ATOM      8  C   UNL     1     -32.443  44.665  -6.979  0.00  0.00    +0.000 A 
ATOM      9  C   UNL     1     -32.871  44.342  -8.326  0.00  0.00    +0.000 A 
ENDBRANCH   1   5
BRANCH   2  10
ATOM     10  C   UNL     1     -37.821  48.100  -9.033  0.00  0.00    +0.000 A 
ATOM     11  C   UNL     1     -38.368  49.073  -8.200  0.00  0.00    +0.000 A 
ATOM     12  C   UNL     1     -38.391  47.846 -10.279  0.00  0.00    +0.000 A 
ATOM     13  C   UNL     1     -39.488  49.792  -8.612  0.00  0.00    +0.000 A 
ATOM     14  C   UNL     1     -39.510  48.566 -10.691  0.00  0.00    +0.000 A 
ATOM     15  C   UNL     1     -40.058  49.539  -9.858  0.00  0.00    +0.000 A 
ENDBRANCH   2  10
TORSDOF 2
ENDMDL
MODEL 2
REMARK VINA RESULT:      -5.6      1.575      2.269
REMARK  Name = 6440856_Goniothalamin.pdbqt.pdb
REMARK  2 active torsions:
REMARK  status: ('A' for Active; 'I' for Inactive)
REMARK    1  A    between atoms: C_1  and  C_5
REMARK    2  A    between atoms: C_2  and  C_10
REMARK                            x       y       z     vdW  Elec       q    Type
REMARK                         _______ _______ _______ _____ _____    ______ ____
ROOT
ATOM      1  C   UNL     1     -35.678  46.609  -7.953  0.00  0.00    +0.000 C 
ATOM      2  C   UNL     1     -36.587  47.174  -8.498  0.00  0.00    +0.000 C 
ENDROOT
BRANCH   1   5
ATOM      3  O   UNL     1     -34.736  45.639  -5.905  0.00  0.00    +0.000 OA
ATOM      4  O   UNL     1     -33.657  44.668  -4.097  0.00  0.00    +0.000 OA
ATOM      5  C   UNL     1     -34.610  45.945  -7.307  0.00  0.00    +0.000 A 
ATOM      6  C   UNL     1     -33.391  45.535  -7.912  0.00  0.00    +0.000 A 
ATOM      7  C   UNL     1     -32.207  44.826  -7.297  0.00  0.00    +0.000 A 
ATOM      8  C   UNL     1     -32.558  44.694  -6.160  0.00  0.00    +0.000 A 
ATOM      9  C   UNL     1     -33.672  44.982  -5.277  0.00  0.00    +0.000 A 
ENDBRANCH   1   5
BRANCH   2  10
ATOM     10  C   UNL     1     -37.666  47.844  -9.146  0.00  0.00    +0.000 A 
ATOM     11  C   UNL     1     -38.002  47.515 -10.457  0.00  0.00    +0.000 A 
ATOM     12  C   UNL     1     -38.382  48.827  -8.466  0.00  0.00    +0.000 A 
ATOM     13  C   UNL     1     -39.056  48.171 -11.090  0.00  0.00    +0.000 A 
ATOM     14  C   UNL     1     -39.436  49.482  -9.099  0.00  0.00    +0.000 A 
ATOM     15  C   UNL     1     -39.773  49.153 -10.411  0.00  0.00    +0.000 A 
ENDBRANCH   2  10
TORSDOF 2
ENDMDL
MODEL 3
REMARK VINA RESULT:      -5.2     24.310     25.713
REMARK  Name = 6440856_Goniothalamin.pdbqt.pdb
REMARK  2 active torsions:
REMARK  status: ('A' for Active; 'I' for Inactive)
REMARK    1  A    between atoms: C_1  and  C_5
REMARK    2  A    between atoms: C_2  and  C_10
REMARK                            x       y       z     vdW  Elec       q    Type
REMARK                         _______ _______ _______ _____ _____    ______ ____
ROOT
ATOM      1  C   UNL     1     -16.564  57.386 -20.468  0.00  0.00    +0.000 C 
ATOM      2  C   UNL     1     -16.363  56.553 -21.309  0.00  0.00    +0.000 C 
ENDROOT
BRANCH   1   5
ATOM      3  O   UNL     1     -17.041  57.943 -18.126  0.00  0.00    +0.000 OA
ATOM      4  O   UNL     1     -17.491  58.694 -15.979  0.00  0.00    +0.000 OA
ATOM      5  C   UNL     1     -16.801  58.370 -19.481  0.00  0.00    +0.000 A 
ATOM      6  C   UNL     1     -16.826  59.776 -19.689  0.00  0.00    +0.000 A 
ATOM      7  C   UNL     1     -17.070  60.888 -18.696  0.00  0.00    +0.000 A 
ATOM      8  C   UNL     1     -17.238  60.281 -17.677  0.00  0.00    +0.000 A 
ATOM      9  C   UNL     1     -17.275  58.927 -17.158  0.00  0.00    +0.000 A 
ENDBRANCH   1   5
BRANCH   2  10
ATOM     10  C   UNL     1     -16.124  55.564 -22.308  0.00  0.00    +0.000 A 
ATOM     11  C   UNL     1     -16.447  55.825 -23.638  0.00  0.00    +0.000 A 
ATOM     12  C   UNL     1     -15.568  54.337 -21.953  0.00  0.00    +0.000 A 
ATOM     13  C   UNL     1     -16.215  54.858 -24.613  0.00  0.00    +0.000 A 
ATOM     14  C   UNL     1     -15.336  53.370 -22.928  0.00  0.00    +0.000 A 
ATOM     15  C   UNL     1     -15.659  53.632 -24.258  0.00  0.00    +0.000 A 
ENDBRANCH   2  10
TORSDOF 2
ENDMDL
MODEL 4
REMARK VINA RESULT:      -5.2      4.088      5.380
REMARK  Name = 6440856_Goniothalamin.pdbqt.pdb
REMARK  2 active torsions:
REMARK  status: ('A' for Active; 'I' for Inactive)
REMARK    1  A    between atoms: C_1  and  C_5
REMARK    2  A    between atoms: C_2  and  C_10
REMARK                            x       y       z     vdW  Elec       q    Type
REMARK                         _______ _______ _______ _____ _____    ______ ____
ROOT
ATOM      1  C   UNL     1     -33.692  45.206  -9.461  0.00  0.00    +0.000 C 
ATOM      2  C   UNL     1     -33.737  45.225 -10.661  0.00  0.00    +0.000 C 
ENDROOT
BRANCH   1   5
ATOM      3  O   UNL     1     -34.756  45.699  -7.306  0.00  0.00    +0.000 OA
ATOM      4  O   UNL     1     -35.570  46.079  -5.168  0.00  0.00    +0.000 OA
ATOM      5  C   UNL     1     -33.635  45.184  -8.049  0.00  0.00    +0.000 A 
ATOM      6  C   UNL     1     -32.557  44.693  -7.262  0.00  0.00    +0.000 A 
ATOM      7  C   UNL     1     -32.418  44.634  -5.759  0.00  0.00    +0.000 A 
ATOM      8  C   UNL     1     -33.454  45.110  -5.392  0.00  0.00    +0.000 A 
ATOM      9  C   UNL     1     -34.687  45.673  -5.908  0.00  0.00    +0.000 A 
ENDBRANCH   1   5
BRANCH   2  10
ATOM     10  C   UNL     1     -33.791  45.248 -12.086  0.00  0.00    +0.000 A 
ATOM     11  C   UNL     1     -32.895  44.482 -12.829  0.00  0.00    +0.000 A 
ATOM     12  C   UNL     1     -34.740  46.037 -12.733  0.00  0.00    +0.000 A 
ATOM     13  C   UNL     1     -32.948  44.506 -14.221  0.00  0.00    +0.000 A 
ATOM     14  C   UNL     1     -34.792  46.060 -14.125  0.00  0.00    +0.000 A 
ATOM     15  C   UNL     1     -33.896  45.294 -14.868  0.00  0.00    +0.000 A 
ENDBRANCH   2  10
TORSDOF 2
ENDMDL
MODEL 5
REMARK VINA RESULT:      -5.0     26.656     28.060
REMARK  Name = 6440856_Goniothalamin.pdbqt.pdb
REMARK  2 active torsions:
REMARK  status: ('A' for Active; 'I' for Inactive)
REMARK    1  A    between atoms: C_1  and  C_5
REMARK    2  A    between atoms: C_2  and  C_10
REMARK                            x       y       z     vdW  Elec       q    Type
REMARK                         _______ _______ _______ _____ _____    ______ ____
ROOT
ATOM      1  C   UNL     1     -17.412  54.517 -27.109  0.00  0.00    +0.000 C 
ATOM      2  C   UNL     1     -16.917  54.512 -26.015  0.00  0.00    +0.000 C 
ENDROOT
BRANCH   1   5
ATOM      3  O   UNL     1     -18.064  55.764 -29.120  0.00  0.00    +0.000 OA
ATOM      4  O   UNL     1     -18.762  56.741 -31.104  0.00  0.00    +0.000 OA
ATOM      5  C   UNL     1     -17.997  54.521 -28.396  0.00  0.00    +0.000 A 
ATOM      6  C   UNL     1     -18.541  53.394 -29.071  0.00  0.00    +0.000 A 
ATOM      7  C   UNL     1     -19.180  53.312 -30.438  0.00  0.00    +0.000 A 
ATOM      8  C   UNL     1     -19.113  54.447 -30.814  0.00  0.00    +0.000 A 
ATOM      9  C   UNL     1     -18.646  55.754 -30.393  0.00  0.00    +0.000 A 
ENDBRANCH   1   5
BRANCH   2  10
ATOM     10  C   UNL     1     -16.330  54.506 -24.716  0.00  0.00    +0.000 A 
ATOM     11  C   UNL     1     -16.398  55.645 -23.916  0.00  0.00    +0.000 A 
ATOM     12  C   UNL     1     -15.689  53.361 -24.248  0.00  0.00    +0.000 A 
ATOM     13  C   UNL     1     -15.823  55.639 -22.647  0.00  0.00    +0.000 A 
ATOM     14  C   UNL     1     -15.115  53.356 -22.978  0.00  0.00    +0.000 A 
ATOM     15  C   UNL     1     -15.183  54.494 -22.179  0.00  0.00    +0.000 A 
ENDBRANCH   2  10
TORSDOF 2
ENDMDL
MODEL 6
REMARK VINA RESULT:      -5.0     24.911     25.898
REMARK  Name = 6440856_Goniothalamin.pdbqt.pdb
REMARK  2 active torsions:
REMARK  status: ('A' for Active; 'I' for Inactive)
REMARK    1  A    between atoms: C_1  and  C_5
REMARK    2  A    between atoms: C_2  and  C_10
REMARK                            x       y       z     vdW  Elec       q    Type
REMARK                         _______ _______ _______ _____ _____    ______ ____
ROOT
ATOM      1  C   UNL     1     -16.236  56.200 -22.048  0.00  0.00    +0.000 C 
ATOM      2  C   UNL     1     -16.424  57.139 -21.324  0.00  0.00    +0.000 C 
ENDROOT
BRANCH   1   5
ATOM      3  O   UNL     1     -15.528  53.865 -22.317  0.00  0.00    +0.000 OA
ATOM      4  O   UNL     1     -14.902  51.686 -22.800  0.00  0.00    +0.000 OA
ATOM      5  C   UNL     1     -16.011  55.092 -22.897  0.00  0.00    +0.000 A 
ATOM      6  C   UNL     1     -16.218  55.060 -24.303  0.00  0.00    +0.000 A 
ATOM      7  C   UNL     1     -16.004  53.926 -25.278  0.00  0.00    +0.000 A 
ATOM      8  C   UNL     1     -15.612  53.050 -24.561  0.00  0.00    +0.000 A 
ATOM      9  C   UNL     1     -15.309  52.777 -23.169  0.00  0.00    +0.000 A 
ENDBRANCH   1   5
BRANCH   2  10
ATOM     10  C   UNL     1     -16.647  58.255 -20.465  0.00  0.00    +0.000 A 
ATOM     11  C   UNL     1     -16.750  58.065 -19.089  0.00  0.00    +0.000 A 
ATOM     12  C   UNL     1     -16.762  59.535 -21.003  0.00  0.00    +0.000 A 
ATOM     13  C   UNL     1     -16.969  59.155 -18.250  0.00  0.00    +0.000 A 
ATOM     14  C   UNL     1     -16.981  60.626 -20.164  0.00  0.00    +0.000 A 
ATOM     15  C   UNL     1     -17.083  60.435 -18.788  0.00  0.00    +0.000 A 
ENDBRANCH   2  10
TORSDOF 2
ENDMDL
MODEL 7
REMARK VINA RESULT:      -4.9     22.222     23.474
REMARK  Name = 6440856_Goniothalamin.pdbqt.pdb
REMARK  2 active torsions:
REMARK  status: ('A' for Active; 'I' for Inactive)
REMARK    1  A    between atoms: C_1  and  C_5
REMARK    2  A    between atoms: C_2  and  C_10
REMARK                            x       y       z     vdW  Elec       q    Type
REMARK                         _______ _______ _______ _____ _____    ______ ____
ROOT
ATOM      1  C   UNL     1     -13.358  46.584  -7.387  0.00  0.00    +0.000 C 
ATOM      2  C   UNL     1     -13.345  45.460  -7.809  0.00  0.00    +0.000 C 
ENDROOT
BRANCH   1   5
ATOM      3  O   UNL     1     -12.205  48.731  -7.101  0.00  0.00    +0.000 OA
ATOM      4  O   UNL     1     -11.307  50.834  -6.718  0.00  0.00    +0.000 OA
ATOM      5  C   UNL     1     -13.368  47.908  -6.891  0.00  0.00    +0.000 A 
ATOM      6  C   UNL     1     -14.436  48.530  -6.188  0.00  0.00    +0.000 A 
ATOM      7  C   UNL     1     -14.527  49.930  -5.629  0.00  0.00    +0.000 A 
ATOM      8  C   UNL     1     -13.462  50.390  -5.929  0.00  0.00    +0.000 A 
ATOM      9  C   UNL     1     -12.228  50.040  -6.605  0.00  0.00    +0.000 A 
ENDBRANCH   1   5
BRANCH   2  10
ATOM     10  C   UNL     1     -13.331  44.124  -8.310  0.00  0.00    +0.000 A 
ATOM     11  C   UNL     1     -12.868  43.085  -7.506  0.00  0.00    +0.000 A 
ATOM     12  C   UNL     1     -13.780  43.862  -9.602  0.00  0.00    +0.000 A 
ATOM     13  C   UNL     1     -12.853  41.781  -7.996  0.00  0.00    +0.000 A 
ATOM     14  C   UNL     1     -13.766  42.558 -10.092  0.00  0.00    +0.000 A 
ATOM     15  C   UNL     1     -13.303  41.518  -9.288  0.00  0.00    +0.000 A 
ENDBRANCH   2  10
TORSDOF 2
ENDMDL
MODEL 8
REMARK VINA RESULT:      -4.9     24.220     25.381
REMARK  Name = 6440856_Goniothalamin.pdbqt.pdb
REMARK  2 active torsions:
REMARK  status: ('A' for Active; 'I' for Inactive)
REMARK    1  A    between atoms: C_1  and  C_5
REMARK    2  A    between atoms: C_2  and  C_10
REMARK                            x       y       z     vdW  Elec       q    Type
REMARK                         _______ _______ _______ _____ _____    ______ ____
ROOT
ATOM      1  C   UNL     1     -16.507  56.962 -20.771  0.00  0.00    +0.000 C 
ATOM      2  C   UNL     1     -16.698  57.741 -19.877  0.00  0.00    +0.000 C 
ENDROOT
BRANCH   1   5
ATOM      3  O   UNL     1     -15.749  54.748 -21.507  0.00  0.00    +0.000 OA
ATOM      4  O   UNL     1     -15.082  52.723 -22.420  0.00  0.00    +0.000 OA
ATOM      5  C   UNL     1     -16.280  56.048 -21.825  0.00  0.00    +0.000 A 
ATOM      6  C   UNL     1     -16.529  56.283 -23.205  0.00  0.00    +0.000 A 
ATOM      7  C   UNL     1     -16.316  55.366 -24.386  0.00  0.00    +0.000 A 
ATOM      8  C   UNL     1     -15.880  54.381 -23.863  0.00  0.00    +0.000 A 
ATOM      9  C   UNL     1     -15.528  53.852 -22.560  0.00  0.00    +0.000 A 
ENDBRANCH   1   5
BRANCH   2  10
ATOM     10  C   UNL     1     -16.925  58.666 -18.815  0.00  0.00    +0.000 A 
ATOM     11  C   UNL     1     -17.002  60.030 -19.086  0.00  0.00    +0.000 A 
ATOM     12  C   UNL     1     -17.070  58.204 -17.509  0.00  0.00    +0.000 A 
ATOM     13  C   UNL     1     -17.223  60.934 -18.048  0.00  0.00    +0.000 A 
ATOM     14  C   UNL     1     -17.291  59.107 -16.472  0.00  0.00    +0.000 A 
ATOM     15  C   UNL     1     -17.368  60.472 -16.743  0.00  0.00    +0.000 A 
ENDBRANCH   2  10
TORSDOF 2
ENDMDL
MODEL 9
REMARK VINA RESULT:      -4.9     24.822     26.128
REMARK  Name = 6440856_Goniothalamin.pdbqt.pdb
REMARK  2 active torsions:
REMARK  status: ('A' for Active; 'I' for Inactive)
REMARK    1  A    between atoms: C_1  and  C_5
REMARK    2  A    between atoms: C_2  and  C_10
REMARK                            x       y       z     vdW  Elec       q    Type
REMARK                         _______ _______ _______ _____ _____    ______ ____
ROOT
ATOM      1  C   UNL     1     -16.480  57.286 -20.848  0.00  0.00    +0.000 C 
ATOM      2  C   UNL     1     -16.281  56.395 -21.627  0.00  0.00    +0.000 C 
ENDROOT
BRANCH   1   5
ATOM      3  O   UNL     1     -16.889  59.671 -20.440  0.00  0.00    +0.000 OA
ATOM      4  O   UNL     1     -17.282  61.873 -19.827  0.00  0.00    +0.000 OA
ATOM      5  C   UNL     1     -16.711  58.336 -19.930  0.00  0.00    +0.000 A 
ATOM      6  C   UNL     1     -16.789  58.209 -18.516  0.00  0.00    +0.000 A 
ATOM      7  C   UNL     1     -17.032  59.273 -17.471  0.00  0.00    +0.000 A 
ATOM      8  C   UNL     1     -17.142  60.260 -18.139  0.00  0.00    +0.000 A 
ATOM      9  C   UNL     1     -17.117  60.702 -19.520  0.00  0.00    +0.000 A 
ENDBRANCH   1   5
BRANCH   2  10
ATOM     10  C   UNL     1     -16.044  55.336 -22.553  0.00  0.00    +0.000 A 
ATOM     11  C   UNL     1     -16.350  55.509 -23.901  0.00  0.00    +0.000 A 
ATOM     12  C   UNL     1     -15.505  54.131 -22.108  0.00  0.00    +0.000 A 
ATOM     13  C   UNL     1     -16.119  54.474 -24.805  0.00  0.00    +0.000 A 
ATOM     14  C   UNL     1     -15.274  53.097 -23.012  0.00  0.00    +0.000 A 
ATOM     15  C   UNL     1     -15.580  53.269 -24.360  0.00  0.00    +0.000 A 
ENDBRANCH   2  10
TORSDOF 2
ENDMDL
