MODEL 1
REMARK VINA RESULT:      -3.6      0.000      0.000
REMARK  Name = 649_Dihydrouracil.pdb
REMARK  0 active torsions:
REMARK  status: ('A' for Active; 'I' for Inactive)
REMARK                            x       y       z     vdW  Elec       q    Type
REMARK                         _______ _______ _______ _____ _____    ______ ____
ROOT
ATOM      1  O   UNL     1     -23.072  54.025 -33.229  0.00  0.00    +0.000 OA
ATOM      2  O   UNL     1     -25.116  51.741 -29.779  0.00  0.00    +0.000 OA
ATOM      3  N   UNL     1     -25.946  51.436 -31.895  0.00  0.00    +0.000 N 
ATOM      4  N   UNL     1     -24.112  52.869 -31.512  0.00  0.00    +0.000 N 
ATOM      5  C   UNL     1     -25.898  51.708 -33.206  0.00  0.00    +0.000 A 
ATOM      6  C   UNL     1     -24.869  52.645 -33.748  0.00  0.00    +0.000 A 
ATOM      7  C   UNL     1     -23.934  53.251 -32.842  0.00  0.00    +0.000 A 
ATOM      8  C   UNL     1     -25.065  51.995 -30.977  0.00  0.00    +0.000 A 
ATOM      9  H   UNL     1     -26.647  50.799 -31.538  0.00  0.00    +0.000 HD
ATOM     10  H   UNL     1     -23.471  53.277 -30.849  0.00  0.00    +0.000 HD
ENDROOT
TORSDOF 0
ENDMDL
MODEL 2
REMARK VINA RESULT:      -3.5     38.093     39.354
REMARK  Name = 649_Dihydrouracil.pdb
REMARK  0 active torsions:
REMARK  status: ('A' for Active; 'I' for Inactive)
REMARK                            x       y       z     vdW  Elec       q    Type
REMARK                         _______ _______ _______ _____ _____    ______ ____
ROOT
ATOM      1  O   UNL     1     -29.975  52.037   4.511  0.00  0.00    +0.000 OA
ATOM      2  O   UNL     1     -27.681  52.497   8.488  0.00  0.00    +0.000 OA
ATOM      3  N   UNL     1     -29.144  50.741   8.302  0.00  0.00    +0.000 N 
ATOM      4  N   UNL     1     -28.833  52.250   6.516  0.00  0.00    +0.000 N 
ATOM      5  C   UNL     1     -30.035  50.051   7.578  0.00  0.00    +0.000 A 
ATOM      6  C   UNL     1     -30.376  50.479   6.188  0.00  0.00    +0.000 A 
ATOM      7  C   UNL     1     -29.734  51.641   5.641  0.00  0.00    +0.000 A 
ATOM      8  C   UNL     1     -28.495  51.871   7.820  0.00  0.00    +0.000 A 
ATOM      9  H   UNL     1     -28.920  50.442   9.242  0.00  0.00    +0.000 HD
ATOM     10  H   UNL     1     -28.365  53.069   6.162  0.00  0.00    +0.000 HD
ENDROOT
TORSDOF 0
ENDMDL
MODEL 3
REMARK VINA RESULT:      -3.5      9.131      9.670
REMARK  Name = 649_Dihydrouracil.pdb
REMARK  0 active torsions:
REMARK  status: ('A' for Active; 'I' for Inactive)
REMARK                            x       y       z     vdW  Elec       q    Type
REMARK                         _______ _______ _______ _____ _____    ______ ____
ROOT
ATOM      1  O   UNL     1     -26.726  61.000 -26.038  0.00  0.00    +0.000 OA
ATOM      2  O   UNL     1     -26.237  59.969 -30.509  0.00  0.00    +0.000 OA
ATOM      3  N   UNL     1     -28.369  60.220 -29.703  0.00  0.00    +0.000 N 
ATOM      4  N   UNL     1     -26.503  60.483 -28.285  0.00  0.00    +0.000 N 
ATOM      5  C   UNL     1     -29.196  60.477 -28.680  0.00  0.00    +0.000 A 
ATOM      6  C   UNL     1     -28.650  60.770 -27.320  0.00  0.00    +0.000 A 
ATOM      7  C   UNL     1     -27.227  60.769 -27.127  0.00  0.00    +0.000 A 
ATOM      8  C   UNL     1     -26.986  60.207 -29.569  0.00  0.00    +0.000 A 
ATOM      9  H   UNL     1     -28.749  60.023 -30.620  0.00  0.00    +0.000 HD
ATOM     10  H   UNL     1     -25.500  60.474 -28.183  0.00  0.00    +0.000 HD
ENDROOT
TORSDOF 0
ENDMDL
MODEL 4
REMARK VINA RESULT:      -3.5     26.530     27.960
REMARK  Name = 649_Dihydrouracil.pdb
REMARK  0 active torsions:
REMARK  status: ('A' for Active; 'I' for Inactive)
REMARK                            x       y       z     vdW  Elec       q    Type
REMARK                         _______ _______ _______ _____ _____    ______ ____
ROOT
ATOM      1  O   UNL     1     -33.974  43.757  -4.632  0.00  0.00    +0.000 OA
ATOM      2  O   UNL     1     -32.482  43.376  -8.982  0.00  0.00    +0.000 OA
ATOM      3  N   UNL     1     -32.470  45.463  -8.034  0.00  0.00    +0.000 N 
ATOM      4  N   UNL     1     -33.221  43.588  -6.817  0.00  0.00    +0.000 N 
ATOM      5  C   UNL     1     -32.712  46.256  -6.982  0.00  0.00    +0.000 A 
ATOM      6  C   UNL     1     -33.261  45.687  -5.714  0.00  0.00    +0.000 A 
ATOM      7  C   UNL     1     -33.524  44.277  -5.642  0.00  0.00    +0.000 A 
ATOM      8  C   UNL     1     -32.707  44.094  -8.015  0.00  0.00    +0.000 A 
ATOM      9  H   UNL     1     -32.097  45.859  -8.887  0.00  0.00    +0.000 HD
ATOM     10  H   UNL     1     -33.395  42.595  -6.799  0.00  0.00    +0.000 HD
ENDROOT
TORSDOF 0
ENDMDL
MODEL 5
REMARK VINA RESULT:      -3.4     37.831     39.053
REMARK  Name = 649_Dihydrouracil.pdb
REMARK  0 active torsions:
REMARK  status: ('A' for Active; 'I' for Inactive)
REMARK                            x       y       z     vdW  Elec       q    Type
REMARK                         _______ _______ _______ _____ _____    ______ ____
ROOT
ATOM      1  O   UNL     1     -29.660  52.967   7.233  0.00  0.00    +0.000 OA
ATOM      2  O   UNL     1     -30.972  49.816   4.128  0.00  0.00    +0.000 OA
ATOM      3  N   UNL     1     -32.154  49.933   6.089  0.00  0.00    +0.000 N 
ATOM      4  N   UNL     1     -30.335  51.379   5.688  0.00  0.00    +0.000 N 
ATOM      5  C   UNL     1     -32.350  50.495   7.289  0.00  0.00    +0.000 A 
ATOM      6  C   UNL     1     -31.470  51.608   7.757  0.00  0.00    +0.000 A 
ATOM      7  C   UNL     1     -30.410  52.063   6.901  0.00  0.00    +0.000 A 
ATOM      8  C   UNL     1     -31.145  50.336   5.224  0.00  0.00    +0.000 A 
ATOM      9  H   UNL     1     -32.757  49.180   5.781  0.00  0.00    +0.000 HD
ATOM     10  H   UNL     1     -29.601  51.675   5.063  0.00  0.00    +0.000 HD
ENDROOT
TORSDOF 0
ENDMDL
MODEL 6
REMARK VINA RESULT:      -3.4     24.880     26.009
REMARK  Name = 649_Dihydrouracil.pdb
REMARK  0 active torsions:
REMARK  status: ('A' for Active; 'I' for Inactive)
REMARK                            x       y       z     vdW  Elec       q    Type
REMARK                         _______ _______ _______ _____ _____    ______ ____
ROOT
ATOM      1  O   UNL     1     -26.265  36.883  -9.263  0.00  0.00    +0.000 OA
ATOM      2  O   UNL     1     -23.636  40.675  -9.339  0.00  0.00    +0.000 OA
ATOM      3  N   UNL     1     -25.544  40.678 -10.611  0.00  0.00    +0.000 N 
ATOM      4  N   UNL     1     -24.959  38.796  -9.315  0.00  0.00    +0.000 N 
ATOM      5  C   UNL     1     -26.646  40.052 -11.044  0.00  0.00    +0.000 A 
ATOM      6  C   UNL     1     -26.959  38.665 -10.583  0.00  0.00    +0.000 A 
ATOM      7  C   UNL     1     -26.060  38.016  -9.671  0.00  0.00    +0.000 A 
ATOM      8  C   UNL     1     -24.642  40.094  -9.730  0.00  0.00    +0.000 A 
ATOM      9  H   UNL     1     -25.341  41.618 -10.929  0.00  0.00    +0.000 HD
ATOM     10  H   UNL     1     -24.308  38.369  -8.676  0.00  0.00    +0.000 HD
ENDROOT
TORSDOF 0
ENDMDL
MODEL 7
REMARK VINA RESULT:      -3.3     28.942     29.557
REMARK  Name = 649_Dihydrouracil.pdb
REMARK  0 active torsions:
REMARK  status: ('A' for Active; 'I' for Inactive)
REMARK                            x       y       z     vdW  Elec       q    Type
REMARK                         _______ _______ _______ _____ _____    ______ ____
ROOT
ATOM      1  O   UNL     1     -34.368  42.272  -7.034  0.00  0.00    +0.000 OA
ATOM      2  O   UNL     1     -31.803  43.312  -3.342  0.00  0.00    +0.000 OA
ATOM      3  N   UNL     1     -32.783  45.046  -4.479  0.00  0.00    +0.000 N 
ATOM      4  N   UNL     1     -33.085  42.816  -5.184  0.00  0.00    +0.000 N 
ATOM      5  C   UNL     1     -33.550  45.480  -5.487  0.00  0.00    +0.000 A 
ATOM      6  C   UNL     1     -34.155  44.511  -6.450  0.00  0.00    +0.000 A 
ATOM      7  C   UNL     1     -33.900  43.108  -6.277  0.00  0.00    +0.000 A 
ATOM      8  C   UNL     1     -32.506  43.701  -4.267  0.00  0.00    +0.000 A 
ATOM      9  H   UNL     1     -32.378  45.711  -3.832  0.00  0.00    +0.000 HD
ATOM     10  H   UNL     1     -32.886  41.839  -5.034  0.00  0.00    +0.000 HD
ENDROOT
TORSDOF 0
ENDMDL
MODEL 8
REMARK VINA RESULT:      -3.2     38.728     39.606
REMARK  Name = 649_Dihydrouracil.pdb
REMARK  0 active torsions:
REMARK  status: ('A' for Active; 'I' for Inactive)
REMARK                            x       y       z     vdW  Elec       q    Type
REMARK                         _______ _______ _______ _____ _____    ______ ____
ROOT
ATOM      1  O   UNL     1     -31.204  49.208   7.799  0.00  0.00    +0.000 OA
ATOM      2  O   UNL     1     -27.970  52.477   8.186  0.00  0.00    +0.000 OA
ATOM      3  N   UNL     1     -29.006  52.241   6.154  0.00  0.00    +0.000 N 
ATOM      4  N   UNL     1     -29.584  50.855   7.972  0.00  0.00    +0.000 N 
ATOM      5  C   UNL     1     -29.903  51.618   5.379  0.00  0.00    +0.000 A 
ATOM      6  C   UNL     1     -30.734  50.504   5.928  0.00  0.00    +0.000 A 
ATOM      7  C   UNL     1     -30.554  50.112   7.298  0.00  0.00    +0.000 A 
ATOM      8  C   UNL     1     -28.793  51.901   7.484  0.00  0.00    +0.000 A 
ATOM      9  H   UNL     1     -28.449  52.995   5.772  0.00  0.00    +0.000 HD
ATOM     10  H   UNL     1     -29.433  50.604   8.936  0.00  0.00    +0.000 HD
ENDROOT
TORSDOF 0
ENDMDL
MODEL 9
REMARK VINA RESULT:      -3.1      9.107      9.417
REMARK  Name = 649_Dihydrouracil.pdb
REMARK  0 active torsions:
REMARK  status: ('A' for Active; 'I' for Inactive)
REMARK                            x       y       z     vdW  Elec       q    Type
REMARK                         _______ _______ _______ _____ _____    ______ ____
ROOT
ATOM      1  O   UNL     1     -26.157  60.043 -30.400  0.00  0.00    +0.000 OA
ATOM      2  O   UNL     1     -30.703  59.799 -29.650  0.00  0.00    +0.000 OA
ATOM      3  N   UNL     1     -29.382  60.559 -27.936  0.00  0.00    +0.000 N 
ATOM      4  N   UNL     1     -28.436  59.928 -30.002  0.00  0.00    +0.000 N 
ATOM      5  C   UNL     1     -28.168  60.864 -27.461  0.00  0.00    +0.000 A 
ATOM      6  C   UNL     1     -26.955  60.696 -28.317  0.00  0.00    +0.000 A 
ATOM      7  C   UNL     1     -27.113  60.201 -29.656  0.00  0.00    +0.000 A 
ATOM      8  C   UNL     1     -29.589  60.077 -29.223  0.00  0.00    +0.000 A 
ATOM      9  H   UNL     1     -30.197  60.677 -27.348  0.00  0.00    +0.000 HD
ATOM     10  H   UNL     1     -28.581  59.579 -30.937  0.00  0.00    +0.000 HD
ENDROOT
TORSDOF 0
ENDMDL
