MODEL 1
REMARK VINA RESULT:      -8.5      0.000      0.000
REMARK  Name = 6509753_ManzamineA.pdbqt.pdb
REMARK  2 active torsions:
REMARK  status: ('A' for Active; 'I' for Inactive)
REMARK    1  A    between atoms: C_7  and  O_42
REMARK    2  A    between atoms: C_11  and  C_30
REMARK                            x       y       z     vdW  Elec       q    Type
REMARK                         _______ _______ _______ _____ _____    ______ ____
ROOT
ATOM      1  N   UNL     1     -33.882  43.080  -7.771  0.00  0.00    +0.000 N 
ATOM      2  N   UNL     1     -37.721  42.113 -10.800  0.00  0.00    +0.000 N 
ATOM      3  C   UNL     1     -35.047  42.811 -10.003  0.00  0.00    +0.000 C 
ATOM      4  C   UNL     1     -34.566  43.790  -8.882  0.00  0.00    +0.000 C 
ATOM      5  C   UNL     1     -34.641  43.104 -11.506  0.00  0.00    +0.000 C 
ATOM      6  C   UNL     1     -34.353  41.630  -9.498  0.00  0.00    +0.000 C 
ATOM      7  C   UNL     1     -34.034  45.169  -9.280  0.00  0.00    +0.000 C 
ATOM      8  C   UNL     1     -36.531  42.560 -10.004  0.00  0.00    +0.000 C 
ATOM      9  C   UNL     1     -33.870  41.657  -8.177  0.00  0.00    +0.000 C 
ATOM     10  C   UNL     1     -35.624  42.648 -12.457  0.00  0.00    +0.000 C 
ATOM     11  C   UNL     1     -33.907  44.333 -11.774  0.00  0.00    +0.000 C 
ATOM     12  C   UNL     1     -33.793  45.056 -10.704  0.00  0.00    +0.000 C 
ATOM     13  C   UNL     1     -37.056  42.234 -12.106  0.00  0.00    +0.000 C 
ATOM     14  C   UNL     1     -34.546  43.304  -6.484  0.00  0.00    +0.000 C 
ATOM     15  C   UNL     1     -34.988  46.210  -8.909  0.00  0.00    +0.000 C 
ATOM     16  C   UNL     1     -34.008  40.607  -7.221  0.00  0.00    +0.000 C 
ATOM     17  C   UNL     1     -38.733  43.151 -10.704  0.00  0.00    +0.000 C 
ATOM     18  C   UNL     1     -35.120  42.975  -5.093  0.00  0.00    +0.000 C 
ATOM     19  C   UNL     1     -36.107  47.217  -8.633  0.00  0.00    +0.000 C 
ATOM     20  C   UNL     1     -34.313  40.085  -6.182  0.00  0.00    +0.000 C 
ATOM     21  C   UNL     1     -35.291  41.699  -4.270  0.00  0.00    +0.000 C 
ATOM     22  C   UNL     1     -39.684  44.332 -10.485  0.00  0.00    +0.000 C 
ATOM     23  C   UNL     1     -34.890  40.322  -4.785  0.00  0.00    +0.000 C 
ATOM     24  C   UNL     1     -37.490  47.862  -8.604  0.00  0.00    +0.000 C 
ATOM     25  C   UNL     1     -40.180  45.706 -10.045  0.00  0.00    +0.000 C 
ATOM     26  C   UNL     1     -39.848  47.050  -9.419  0.00  0.00    +0.000 C 
ATOM     27  C   UNL     1     -38.659  47.809  -8.855  0.00  0.00    +0.000 C 
ENDROOT
BRANCH  11  30
ATOM     28  N   UNL     1     -32.441  44.275 -13.705  0.00  0.00    +0.000 NA
ATOM     29  N   UNL     1     -35.286  46.603 -13.291  0.00  0.00    +0.000 N 
ATOM     30  C   UNL     1     -33.503  44.831 -13.081  0.00  0.00    +0.000 A 
ATOM     31  C   UNL     1     -34.186  45.880 -13.692  0.00  0.00    +0.000 A 
ATOM     32  C   UNL     1     -33.801  46.379 -14.938  0.00  0.00    +0.000 A 
ATOM     33  C   UNL     1     -32.075  44.762 -14.911  0.00  0.00    +0.000 A 
ATOM     34  C   UNL     1     -32.696  45.804 -15.585  0.00  0.00    +0.000 A 
ATOM     35  C   UNL     1     -34.701  47.436 -15.274  0.00  0.00    +0.000 A 
ATOM     36  C   UNL     1     -35.616  47.553 -14.229  0.00  0.00    +0.000 A 
ATOM     37  C   UNL     1     -34.821  48.302 -16.377  0.00  0.00    +0.000 A 
ATOM     38  C   UNL     1     -36.651  48.493 -14.224  0.00  0.00    +0.000 A 
ATOM     39  C   UNL     1     -35.848  49.249 -16.390  0.00  0.00    +0.000 A 
ATOM     40  C   UNL     1     -36.745  49.338 -15.332  0.00  0.00    +0.000 A 
ATOM     41  H   UNL     1     -35.793  46.454 -12.429  0.00  0.00    +0.000 HD
ENDBRANCH  11  30
BRANCH   7  42
ATOM     42  O   UNL     1     -32.790  45.434  -8.648  0.00  0.00    +0.000 OA
ATOM     43  H   UNL     1     -32.851  45.043  -7.760  0.00  0.00    +0.000 HD
ENDBRANCH   7  42
TORSDOF 2
ENDMDL
MODEL 2
REMARK VINA RESULT:      -8.1      2.978      8.347
REMARK  Name = 6509753_ManzamineA.pdbqt.pdb
REMARK  2 active torsions:
REMARK  status: ('A' for Active; 'I' for Inactive)
REMARK    1  A    between atoms: C_7  and  O_42
REMARK    2  A    between atoms: C_11  and  C_30
REMARK                            x       y       z     vdW  Elec       q    Type
REMARK                         _______ _______ _______ _____ _____    ______ ____
ROOT
ATOM      1  N   UNL     1     -32.159  42.999 -15.277  0.00  0.00    +0.000 N 
ATOM      2  N   UNL     1     -34.895  46.860 -16.842  0.00  0.00    +0.000 N 
ATOM      3  C   UNL     1     -33.537  45.106 -15.011  0.00  0.00    +0.000 C 
ATOM      4  C   UNL     1     -33.505  43.544 -14.968  0.00  0.00    +0.000 C 
ATOM      5  C   UNL     1     -34.121  45.899 -13.770  0.00  0.00    +0.000 C 
ATOM      6  C   UNL     1     -32.093  45.296 -15.117  0.00  0.00    +0.000 C 
ATOM      7  C   UNL     1     -34.344  42.814 -13.915  0.00  0.00    +0.000 C 
ATOM      8  C   UNL     1     -34.209  45.674 -16.232  0.00  0.00    +0.000 C 
ATOM      9  C   UNL     1     -31.301  44.189 -15.474  0.00  0.00    +0.000 C 
ATOM     10  C   UNL     1     -34.743  47.146 -14.136  0.00  0.00    +0.000 C 
ATOM     11  C   UNL     1     -34.683  45.115 -12.680  0.00  0.00    +0.000 C 
ATOM     12  C   UNL     1     -34.700  43.851 -12.968  0.00  0.00    +0.000 C 
ATOM     13  C   UNL     1     -35.128  47.547 -15.563  0.00  0.00    +0.000 C 
ATOM     14  C   UNL     1     -32.179  42.107 -16.439  0.00  0.00    +0.000 C 
ATOM     15  C   UNL     1     -35.483  42.149 -14.541  0.00  0.00    +0.000 C 
ATOM     16  C   UNL     1     -30.246  44.198 -16.435  0.00  0.00    +0.000 C 
ATOM     17  C   UNL     1     -36.177  46.412 -17.361  0.00  0.00    +0.000 C 
ATOM     18  C   UNL     1     -31.711  41.465 -17.759  0.00  0.00    +0.000 C 
ATOM     19  C   UNL     1     -36.731  41.620 -15.252  0.00  0.00    +0.000 C 
ATOM     20  C   UNL     1     -29.630  43.858 -17.408  0.00  0.00    +0.000 C 
ATOM     21  C   UNL     1     -30.568  41.722 -18.739  0.00  0.00    +0.000 C 
ATOM     22  C   UNL     1     -37.475  45.768 -17.858  0.00  0.00    +0.000 C 
ATOM     23  C   UNL     1     -29.565  42.856 -18.562  0.00  0.00    +0.000 C 
ATOM     24  C   UNL     1     -37.972  41.571 -16.139  0.00  0.00    +0.000 C 
ATOM     25  C   UNL     1     -38.561  44.718 -18.068  0.00  0.00    +0.000 C 
ATOM     26  C   UNL     1     -39.075  43.323 -17.751  0.00  0.00    +0.000 C 
ATOM     27  C   UNL     1     -38.707  42.108 -16.917  0.00  0.00    +0.000 C 
ENDROOT
BRANCH  11  30
ATOM     28  N   UNL     1     -36.530  46.257 -11.599  0.00  0.00    +0.000 NA
ATOM     29  N   UNL     1     -33.554  44.933  -9.843  0.00  0.00    +0.000 N 
ATOM     30  C   UNL     1     -35.334  45.636 -11.486  0.00  0.00    +0.000 A 
ATOM     31  C   UNL     1     -34.738  45.518 -10.233  0.00  0.00    +0.000 A 
ATOM     32  C   UNL     1     -35.342  46.026  -9.082  0.00  0.00    +0.000 A 
ATOM     33  C   UNL     1     -37.109  46.746 -10.480  0.00  0.00    +0.000 A 
ATOM     34  C   UNL     1     -36.582  46.673  -9.199  0.00  0.00    +0.000 A 
ATOM     35  C   UNL     1     -34.479  45.738  -7.981  0.00  0.00    +0.000 A 
ATOM     36  C   UNL     1     -33.373  45.056  -8.486  0.00  0.00    +0.000 A 
ATOM     37  C   UNL     1     -34.542  45.994  -6.599  0.00  0.00    +0.000 A 
ATOM     38  C   UNL     1     -32.320  44.611  -7.680  0.00  0.00    +0.000 A 
ATOM     39  C   UNL     1     -33.499  45.558  -5.777  0.00  0.00    +0.000 A 
ATOM     40  C   UNL     1     -32.411  44.879  -6.313  0.00  0.00    +0.000 A 
ATOM     41  H   UNL     1     -32.908  44.467 -10.464  0.00  0.00    +0.000 HD
ENDBRANCH  11  30
BRANCH   7  42
ATOM     42  O   UNL     1     -33.564  41.847 -13.227  0.00  0.00    +0.000 OA
ATOM     43  H   UNL     1     -32.637  42.047 -13.444  0.00  0.00    +0.000 HD
ENDBRANCH   7  42
TORSDOF 2
ENDMDL
MODEL 3
REMARK VINA RESULT:      -7.9      4.901      9.648
REMARK  Name = 6509753_ManzamineA.pdbqt.pdb
REMARK  2 active torsions:
REMARK  status: ('A' for Active; 'I' for Inactive)
REMARK    1  A    between atoms: C_7  and  O_42
REMARK    2  A    between atoms: C_11  and  C_30
REMARK                            x       y       z     vdW  Elec       q    Type
REMARK                         _______ _______ _______ _____ _____    ______ ____
ROOT
ATOM      1  N   UNL     1     -29.108  42.980 -18.346  0.00  0.00    +0.000 N 
ATOM      2  N   UNL     1     -33.490  42.141 -20.569  0.00  0.00    +0.000 N 
ATOM      3  C   UNL     1     -31.412  43.586 -19.203  0.00  0.00    +0.000 C 
ATOM      4  C   UNL     1     -30.537  43.154 -17.981  0.00  0.00    +0.000 C 
ATOM      5  C   UNL     1     -32.343  44.861 -19.070  0.00  0.00    +0.000 C 
ATOM      6  C   UNL     1     -30.303  43.846 -20.116  0.00  0.00    +0.000 C 
ATOM      7  C   UNL     1     -30.854  43.734 -16.600  0.00  0.00    +0.000 C 
ATOM      8  C   UNL     1     -32.274  42.486 -19.761  0.00  0.00    +0.000 C 
ATOM      9  C   UNL     1     -29.033  43.340 -19.780  0.00  0.00    +0.000 C 
ATOM     10  C   UNL     1     -33.540  44.774 -19.868  0.00  0.00    +0.000 C 
ATOM     11  C   UNL     1     -32.399  45.517 -17.771  0.00  0.00    +0.000 C 
ATOM     12  C   UNL     1     -31.724  44.858 -16.882  0.00  0.00    +0.000 C 
ATOM     13  C   UNL     1     -34.070  43.491 -20.516  0.00  0.00    +0.000 C 
ATOM     14  C   UNL     1     -28.630  41.623 -18.069  0.00  0.00    +0.000 C 
ATOM     15  C   UNL     1     -31.443  42.712 -15.741  0.00  0.00    +0.000 C 
ATOM     16  C   UNL     1     -28.144  42.670 -20.673  0.00  0.00    +0.000 C 
ATOM     17  C   UNL     1     -34.318  41.256 -19.768  0.00  0.00    +0.000 C 
ATOM     18  C   UNL     1     -27.878  40.297 -18.291  0.00  0.00    +0.000 C 
ATOM     19  C   UNL     1     -32.197  41.630 -14.964  0.00  0.00    +0.000 C 
ATOM     20  C   UNL     1     -27.434  41.789 -21.077  0.00  0.00    +0.000 C 
ATOM     21  C   UNL     1     -27.049  39.703 -19.429  0.00  0.00    +0.000 C 
ATOM     22  C   UNL     1     -35.053  40.328 -18.797  0.00  0.00    +0.000 C 
ATOM     23  C   UNL     1     -26.825  40.423 -20.753  0.00  0.00    +0.000 C 
ATOM     24  C   UNL     1     -33.205  40.534 -14.631  0.00  0.00    +0.000 C 
ATOM     25  C   UNL     1     -35.393  39.585 -17.508  0.00  0.00    +0.000 C 
ATOM     26  C   UNL     1     -35.070  39.344 -16.043  0.00  0.00    +0.000 C 
ATOM     27  C   UNL     1     -34.107  39.823 -14.970  0.00  0.00    +0.000 C 
ENDROOT
BRANCH  11  30
ATOM     28  N   UNL     1     -33.182  47.781 -18.147  0.00  0.00    +0.000 NA
ATOM     29  N   UNL     1     -34.346  45.577 -15.412  0.00  0.00    +0.000 N 
ATOM     30  C   UNL     1     -33.239  46.650 -17.410  0.00  0.00    +0.000 A 
ATOM     31  C   UNL     1     -34.089  46.590 -16.308  0.00  0.00    +0.000 A 
ATOM     32  C   UNL     1     -34.889  47.673 -15.940  0.00  0.00    +0.000 A 
ATOM     33  C   UNL     1     -33.959  48.825 -17.785  0.00  0.00    +0.000 A 
ATOM     34  C   UNL     1     -34.829  48.850 -16.703  0.00  0.00    +0.000 A 
ATOM     35  C   UNL     1     -35.633  47.285 -14.784  0.00  0.00    +0.000 A 
ATOM     36  C   UNL     1     -35.274  45.974 -14.479  0.00  0.00    +0.000 A 
ATOM     37  C   UNL     1     -36.583  47.932 -13.972  0.00  0.00    +0.000 A 
ATOM     38  C   UNL     1     -35.815  45.267 -13.400  0.00  0.00    +0.000 A 
ATOM     39  C   UNL     1     -37.135  47.243 -12.889  0.00  0.00    +0.000 A 
ATOM     40  C   UNL     1     -36.755  45.935 -12.613  0.00  0.00    +0.000 A 
ATOM     41  H   UNL     1     -33.920  44.661 -15.440  0.00  0.00    +0.000 HD
ENDBRANCH  11  30
BRANCH   7  42
ATOM     42  O   UNL     1     -29.679  44.239 -15.982  0.00  0.00    +0.000 OA
ATOM     43  H   UNL     1     -28.991  43.566 -16.121  0.00  0.00    +0.000 HD
ENDBRANCH   7  42
TORSDOF 2
ENDMDL
MODEL 4
REMARK VINA RESULT:      -7.9      4.511      8.109
REMARK  Name = 6509753_ManzamineA.pdbqt.pdb
REMARK  2 active torsions:
REMARK  status: ('A' for Active; 'I' for Inactive)
REMARK    1  A    between atoms: C_7  and  O_42
REMARK    2  A    between atoms: C_11  and  C_30
REMARK                            x       y       z     vdW  Elec       q    Type
REMARK                         _______ _______ _______ _____ _____    ______ ____
ROOT
ATOM      1  N   UNL     1     -29.931  43.370 -16.756  0.00  0.00    +0.000 N 
ATOM      2  N   UNL     1     -34.202  42.184 -19.034  0.00  0.00    +0.000 N 
ATOM      3  C   UNL     1     -32.106  43.837 -17.965  0.00  0.00    +0.000 C 
ATOM      4  C   UNL     1     -31.361  43.737 -16.594  0.00  0.00    +0.000 C 
ATOM      5  C   UNL     1     -32.927  45.150 -18.300  0.00  0.00    +0.000 C 
ATOM      6  C   UNL     1     -30.916  43.739 -18.806  0.00  0.00    +0.000 C 
ATOM      7  C   UNL     1     -31.721  44.723 -15.480  0.00  0.00    +0.000 C 
ATOM      8  C   UNL     1     -33.021  42.678 -18.253  0.00  0.00    +0.000 C 
ATOM      9  C   UNL     1     -29.724  43.277 -18.218  0.00  0.00    +0.000 C 
ATOM     10  C   UNL     1     -34.068  44.904 -19.145  0.00  0.00    +0.000 C 
ATOM     11  C   UNL     1     -33.015  46.167 -17.262  0.00  0.00    +0.000 C 
ATOM     12  C   UNL     1     -32.466  45.764 -16.159  0.00  0.00    +0.000 C 
ATOM     13  C   UNL     1     -34.662  43.522 -19.434  0.00  0.00    +0.000 C 
ATOM     14  C   UNL     1     -29.596  42.131 -16.049  0.00  0.00    +0.000 C 
ATOM     15  C   UNL     1     -32.458  44.047 -14.417  0.00  0.00    +0.000 C 
ATOM     16  C   UNL     1     -28.837  42.314 -18.788  0.00  0.00    +0.000 C 
ATOM     17  C   UNL     1     -35.161  41.634 -18.089  0.00  0.00    +0.000 C 
ATOM     18  C   UNL     1     -28.951  40.755 -15.800  0.00  0.00    +0.000 C 
ATOM     19  C   UNL     1     -33.358  43.298 -13.431  0.00  0.00    +0.000 C 
ATOM     20  C   UNL     1     -28.181  41.309 -18.847  0.00  0.00    +0.000 C 
ATOM     21  C   UNL     1     -28.100  39.795 -16.630  0.00  0.00    +0.000 C 
ATOM     22  C   UNL     1     -36.042  41.090 -16.962  0.00  0.00    +0.000 C 
ATOM     23  C   UNL     1     -27.720  40.068 -18.080  0.00  0.00    +0.000 C 
ATOM     24  C   UNL     1     -34.480  42.419 -12.886  0.00  0.00    +0.000 C 
ATOM     25  C   UNL     1     -36.536  40.792 -15.549  0.00  0.00    +0.000 C 
ATOM     26  C   UNL     1     -36.339  40.982 -14.054  0.00  0.00    +0.000 C 
ATOM     27  C   UNL     1     -35.416  41.698 -13.084  0.00  0.00    +0.000 C 
ENDROOT
BRANCH  11  30
ATOM     28  N   UNL     1     -33.493  48.307 -18.299  0.00  0.00    +0.000 NA
ATOM     29  N   UNL     1     -35.266  46.955 -15.346  0.00  0.00    +0.000 N 
ATOM     30  C   UNL     1     -33.775  47.407 -17.330  0.00  0.00    +0.000 A 
ATOM     31  C   UNL     1     -34.777  47.687 -16.404  0.00  0.00    +0.000 A 
ATOM     32  C   UNL     1     -35.503  48.878 -16.447  0.00  0.00    +0.000 A 
ATOM     33  C   UNL     1     -34.200  49.458 -18.334  0.00  0.00    +0.000 A 
ATOM     34  C   UNL     1     -35.209  49.814 -17.450  0.00  0.00    +0.000 A 
ATOM     35  C   UNL     1     -36.443  48.847 -15.371  0.00  0.00    +0.000 A 
ATOM     36  C   UNL     1     -36.272  47.637 -14.703  0.00  0.00    +0.000 A 
ATOM     37  C   UNL     1     -37.427  49.741 -14.909  0.00  0.00    +0.000 A 
ATOM     38  C   UNL     1     -37.035  47.266 -13.591  0.00  0.00    +0.000 A 
ATOM     39  C   UNL     1     -38.199  49.389 -13.799  0.00  0.00    +0.000 A 
ATOM     40  C   UNL     1     -38.003  48.173 -13.156  0.00  0.00    +0.000 A 
ATOM     41  H   UNL     1     -34.939  46.036 -15.079  0.00  0.00    +0.000 HD
ENDBRANCH  11  30
BRANCH   7  42
ATOM     42  O   UNL     1     -30.553  45.315 -14.930  0.00  0.00    +0.000 OA
ATOM     43  H   UNL     1     -30.485  44.979 -14.020  0.00  0.00    +0.000 HD
ENDBRANCH   7  42
TORSDOF 2
ENDMDL
MODEL 5
REMARK VINA RESULT:      -7.8      5.082     11.301
REMARK  Name = 6509753_ManzamineA.pdbqt.pdb
REMARK  2 active torsions:
REMARK  status: ('A' for Active; 'I' for Inactive)
REMARK    1  A    between atoms: C_7  and  O_42
REMARK    2  A    between atoms: C_11  and  C_30
REMARK                            x       y       z     vdW  Elec       q    Type
REMARK                         _______ _______ _______ _____ _____    ______ ____
ROOT
ATOM      1  N   UNL     1     -35.629  47.178 -22.361  0.00  0.00    +0.000 N 
ATOM      2  N   UNL     1     -35.970  50.236 -18.439  0.00  0.00    +0.000 N 
ATOM      3  C   UNL     1     -34.941  48.145 -20.124  0.00  0.00    +0.000 C 
ATOM      4  C   UNL     1     -35.706  47.014 -20.887  0.00  0.00    +0.000 C 
ATOM      5  C   UNL     1     -33.871  47.744 -19.026  0.00  0.00    +0.000 C 
ATOM      6  C   UNL     1     -34.292  48.723 -21.297  0.00  0.00    +0.000 C 
ATOM      7  C   UNL     1     -35.675  45.590 -20.326  0.00  0.00    +0.000 C 
ATOM      8  C   UNL     1     -35.838  49.172 -19.488  0.00  0.00    +0.000 C 
ATOM      9  C   UNL     1     -34.784  48.375 -22.568  0.00  0.00    +0.000 C 
ATOM     10  C   UNL     1     -33.764  48.709 -17.961  0.00  0.00    +0.000 C 
ATOM     11  C   UNL     1     -33.720  46.328 -18.724  0.00  0.00    +0.000 C 
ATOM     12  C   UNL     1     -34.595  45.615 -19.361  0.00  0.00    +0.000 C 
ATOM     13  C   UNL     1     -34.774  49.827 -17.688  0.00  0.00    +0.000 C 
ATOM     14  C   UNL     1     -36.956  47.300 -22.971  0.00  0.00    +0.000 C 
ATOM     15  C   UNL     1     -36.976  45.232 -19.770  0.00  0.00    +0.000 C 
ATOM     16  C   UNL     1     -35.026  49.284 -23.642  0.00  0.00    +0.000 C 
ATOM     17  C   UNL     1     -37.142  49.926 -17.638  0.00  0.00    +0.000 C 
ATOM     18  C   UNL     1     -38.056  47.829 -23.910  0.00  0.00    +0.000 C 
ATOM     19  C   UNL     1     -38.317  44.998 -19.071  0.00  0.00    +0.000 C 
ATOM     20  C   UNL     1     -35.650  49.839 -24.505  0.00  0.00    +0.000 C 
ATOM     21  C   UNL     1     -38.146  48.949 -24.945  0.00  0.00    +0.000 C 
ATOM     22  C   UNL     1     -38.406  49.457 -16.912  0.00  0.00    +0.000 C 
ATOM     23  C   UNL     1     -36.991  49.899 -25.240  0.00  0.00    +0.000 C 
ATOM     24  C   UNL     1     -39.536  45.222 -18.179  0.00  0.00    +0.000 C 
ATOM     25  C   UNL     1     -39.579  48.566 -16.512  0.00  0.00    +0.000 C 
ATOM     26  C   UNL     1     -40.293  47.235 -16.677  0.00  0.00    +0.000 C 
ATOM     27  C   UNL     1     -40.150  45.922 -17.426  0.00  0.00    +0.000 C 
ENDROOT
BRANCH  11  30
ATOM     28  N   UNL     1     -31.630  45.295 -18.053  0.00  0.00    +0.000 NA
ATOM     29  N   UNL     1     -34.445  46.030 -15.767  0.00  0.00    +0.000 N 
ATOM     30  C   UNL     1     -32.855  45.749 -17.706  0.00  0.00    +0.000 A 
ATOM     31  C   UNL     1     -33.276  45.643 -16.382  0.00  0.00    +0.000 A 
ATOM     32  C   UNL     1     -32.465  45.077 -15.398  0.00  0.00    +0.000 A 
ATOM     33  C   UNL     1     -30.851  44.748 -17.095  0.00  0.00    +0.000 A 
ATOM     34  C   UNL     1     -31.194  44.602 -15.758  0.00  0.00    +0.000 A 
ATOM     35  C   UNL     1     -33.187  45.125 -14.165  0.00  0.00    +0.000 A 
ATOM     36  C   UNL     1     -34.417  45.724 -14.427  0.00  0.00    +0.000 A 
ATOM     37  C   UNL     1     -32.900  44.714 -12.850  0.00  0.00    +0.000 A 
ATOM     38  C   UNL     1     -35.384  45.939 -13.440  0.00  0.00    +0.000 A 
ATOM     39  C   UNL     1     -33.854  44.919 -11.851  0.00  0.00    +0.000 A 
ATOM     40  C   UNL     1     -35.072  45.522 -12.145  0.00  0.00    +0.000 A 
ATOM     41  H   UNL     1     -35.218  46.487 -16.231  0.00  0.00    +0.000 HD
ENDBRANCH  11  30
BRANCH   7  42
ATOM     42  O   UNL     1     -35.330  44.655 -21.338  0.00  0.00    +0.000 OA
ATOM     43  H   UNL     1     -35.836  44.915 -22.127  0.00  0.00    +0.000 HD
ENDBRANCH   7  42
TORSDOF 2
ENDMDL
MODEL 6
REMARK VINA RESULT:      -7.7     25.184     28.277
REMARK  Name = 6509753_ManzamineA.pdbqt.pdb
REMARK  2 active torsions:
REMARK  status: ('A' for Active; 'I' for Inactive)
REMARK    1  A    between atoms: C_7  and  O_42
REMARK    2  A    between atoms: C_11  and  C_30
REMARK                            x       y       z     vdW  Elec       q    Type
REMARK                         _______ _______ _______ _____ _____    ______ ____
ROOT
ATOM      1  N   UNL     1     -18.040  54.945 -29.528  0.00  0.00    +0.000 N 
ATOM      2  N   UNL     1     -15.040  51.138 -28.363  0.00  0.00    +0.000 N 
ATOM      3  C   UNL     1     -16.835  53.352 -27.972  0.00  0.00    +0.000 C 
ATOM      4  C   UNL     1     -16.849  54.755 -28.661  0.00  0.00    +0.000 C 
ATOM      5  C   UNL     1     -16.647  53.267 -26.401  0.00  0.00    +0.000 C 
ATOM      6  C   UNL     1     -18.190  52.968 -28.355  0.00  0.00    +0.000 C 
ATOM      7  C   UNL     1     -16.334  55.969 -27.883  0.00  0.00    +0.000 C 
ATOM      8  C   UNL     1     -15.851  52.383 -28.571  0.00  0.00    +0.000 C 
ATOM      9  C   UNL     1     -18.826  53.701 -29.375  0.00  0.00    +0.000 C 
ATOM     10  C   UNL     1     -15.969  52.069 -25.976  0.00  0.00    +0.000 C 
ATOM     11  C   UNL     1     -16.406  54.514 -25.688  0.00  0.00    +0.000 C 
ATOM     12  C   UNL     1     -16.284  55.510 -26.509  0.00  0.00    +0.000 C 
ATOM     13  C   UNL     1     -15.197  51.124 -26.901  0.00  0.00    +0.000 C 
ATOM     14  C   UNL     1     -17.670  55.223 -30.918  0.00  0.00    +0.000 C 
ATOM     15  C   UNL     1     -15.052  56.413 -28.419  0.00  0.00    +0.000 C 
ATOM     16  C   UNL     1     -19.561  53.143 -30.463  0.00  0.00    +0.000 C 
ATOM     17  C   UNL     1     -13.656  51.454 -28.671  0.00  0.00    +0.000 C 
ATOM     18  C   UNL     1     -17.728  55.152 -32.456  0.00  0.00    +0.000 C 
ATOM     19  C   UNL     1     -13.643  56.712 -28.937  0.00  0.00    +0.000 C 
ATOM     20  C   UNL     1     -19.866  52.940 -31.607  0.00  0.00    +0.000 C 
ATOM     21  C   UNL     1     -18.546  54.355 -33.471  0.00  0.00    +0.000 C 
ATOM     22  C   UNL     1     -12.259  51.956 -29.047  0.00  0.00    +0.000 C 
ATOM     23  C   UNL     1     -19.578  53.310 -33.064  0.00  0.00    +0.000 C 
ATOM     24  C   UNL     1     -12.198  56.505 -29.385  0.00  0.00    +0.000 C 
ATOM     25  C   UNL     1     -11.138  52.922 -29.421  0.00  0.00    +0.000 C 
ATOM     26  C   UNL     1     -10.711  54.361 -29.658  0.00  0.00    +0.000 C 
ATOM     27  C   UNL     1     -11.281  55.768 -29.606  0.00  0.00    +0.000 C 
ENDROOT
BRANCH  11  30
ATOM     28  N   UNL     1     -15.685  53.593 -23.564  0.00  0.00    +0.000 NA
ATOM     29  N   UNL     1     -16.777  57.090 -24.081  0.00  0.00    +0.000 N 
ATOM     30  C   UNL     1     -16.135  54.657 -24.265  0.00  0.00    +0.000 A 
ATOM     31  C   UNL     1     -16.345  55.870 -23.613  0.00  0.00    +0.000 A 
ATOM     32  C   UNL     1     -16.104  56.019 -22.246  0.00  0.00    +0.000 A 
ATOM     33  C   UNL     1     -15.454  53.744 -22.241  0.00  0.00    +0.000 A 
ATOM     34  C   UNL     1     -15.640  54.913 -21.516  0.00  0.00    +0.000 A 
ATOM     35  C   UNL     1     -16.415  57.370 -21.900  0.00  0.00    +0.000 A 
ATOM     36  C   UNL     1     -16.831  58.013 -23.064  0.00  0.00    +0.000 A 
ATOM     37  C   UNL     1     -16.375  58.103 -20.699  0.00  0.00    +0.000 A 
ATOM     38  C   UNL     1     -17.211  59.358 -23.095  0.00  0.00    +0.000 A 
ATOM     39  C   UNL     1     -16.752  59.448 -20.710  0.00  0.00    +0.000 A 
ATOM     40  C   UNL     1     -17.161  60.060 -21.890  0.00  0.00    +0.000 A 
ATOM     41  H   UNL     1     -17.014  57.288 -25.043  0.00  0.00    +0.000 HD
ENDBRANCH  11  30
BRANCH   7  42
ATOM     42  O   UNL     1     -17.261  57.042 -27.948  0.00  0.00    +0.000 OA
ATOM     43  H   UNL     1     -17.832  56.858 -28.713  0.00  0.00    +0.000 HD
ENDBRANCH   7  42
TORSDOF 2
ENDMDL
MODEL 7
REMARK VINA RESULT:      -7.7      6.166      9.644
REMARK  Name = 6509753_ManzamineA.pdbqt.pdb
REMARK  2 active torsions:
REMARK  status: ('A' for Active; 'I' for Inactive)
REMARK    1  A    between atoms: C_7  and  O_42
REMARK    2  A    between atoms: C_11  and  C_30
REMARK                            x       y       z     vdW  Elec       q    Type
REMARK                         _______ _______ _______ _____ _____    ______ ____
ROOT
ATOM      1  N   UNL     1     -35.520  49.068 -16.528  0.00  0.00    +0.000 N 
ATOM      2  N   UNL     1     -37.158  44.363 -16.357  0.00  0.00    +0.000 N 
ATOM      3  C   UNL     1     -35.329  46.572 -16.143  0.00  0.00    +0.000 C 
ATOM      4  C   UNL     1     -35.098  47.772 -17.119  0.00  0.00    +0.000 C 
ATOM      5  C   UNL     1     -34.126  45.588 -15.836  0.00  0.00    +0.000 C 
ATOM      6  C   UNL     1     -35.654  47.377 -14.969  0.00  0.00    +0.000 C 
ATOM      7  C   UNL     1     -33.859  47.769 -18.019  0.00  0.00    +0.000 C 
ATOM      8  C   UNL     1     -36.506  45.706 -16.500  0.00  0.00    +0.000 C 
ATOM      9  C   UNL     1     -35.978  48.733 -15.161  0.00  0.00    +0.000 C 
ATOM     10  C   UNL     1     -34.554  44.239 -15.561  0.00  0.00    +0.000 C 
ATOM     11  C   UNL     1     -32.881  45.807 -16.559  0.00  0.00    +0.000 C 
ATOM     12  C   UNL     1     -33.007  46.750 -17.439  0.00  0.00    +0.000 C 
ATOM     13  C   UNL     1     -35.953  43.688 -15.851  0.00  0.00    +0.000 C 
ATOM     14  C   UNL     1     -36.550  49.730 -17.332  0.00  0.00    +0.000 C 
ATOM     15  C   UNL     1     -34.237  47.524 -19.407  0.00  0.00    +0.000 C 
ATOM     16  C   UNL     1     -37.067  49.421 -14.549  0.00  0.00    +0.000 C 
ATOM     17  C   UNL     1     -37.437  43.860 -17.692  0.00  0.00    +0.000 C 
ATOM     18  C   UNL     1     -37.832  50.525 -17.642  0.00  0.00    +0.000 C 
ATOM     19  C   UNL     1     -34.700  47.106 -20.804  0.00  0.00    +0.000 C 
ATOM     20  C   UNL     1     -38.067  50.085 -14.490  0.00  0.00    +0.000 C 
ATOM     21  C   UNL     1     -38.984  51.085 -16.809  0.00  0.00    +0.000 C 
ATOM     22  C   UNL     1     -37.668  43.495 -19.161  0.00  0.00    +0.000 C 
ATOM     23  C   UNL     1     -39.087  50.887 -15.301  0.00  0.00    +0.000 C 
ATOM     24  C   UNL     1     -35.395  46.331 -21.920  0.00  0.00    +0.000 C 
ATOM     25  C   UNL     1     -37.596  43.575 -20.683  0.00  0.00    +0.000 C 
ATOM     26  C   UNL     1     -37.044  44.289 -21.905  0.00  0.00    +0.000 C 
ATOM     27  C   UNL     1     -36.125  45.445 -22.262  0.00  0.00    +0.000 C 
ENDROOT
BRANCH  11  30
ATOM     28  N   UNL     1     -30.968  44.949 -15.339  0.00  0.00    +0.000 NA
ATOM     29  N   UNL     1     -31.792  44.087 -18.842  0.00  0.00    +0.000 N 
ATOM     30  C   UNL     1     -31.683  44.983 -16.486  0.00  0.00    +0.000 A 
ATOM     31  C   UNL     1     -31.255  44.240 -17.584  0.00  0.00    +0.000 A 
ATOM     32  C   UNL     1     -30.100  43.457 -17.535  0.00  0.00    +0.000 A 
ATOM     33  C   UNL     1     -29.851  44.190 -15.299  0.00  0.00    +0.000 A 
ATOM     34  C   UNL     1     -29.355  43.424 -16.345  0.00  0.00    +0.000 A 
ATOM     35  C   UNL     1     -29.950  42.831 -18.810  0.00  0.00    +0.000 A 
ATOM     36  C   UNL     1     -31.019  43.243 -19.604  0.00  0.00    +0.000 A 
ATOM     37  C   UNL     1     -29.001  41.949 -19.359  0.00  0.00    +0.000 A 
ATOM     38  C   UNL     1     -31.195  42.817 -20.924  0.00  0.00    +0.000 A 
ATOM     39  C   UNL     1     -29.159  41.513 -20.677  0.00  0.00    +0.000 A 
ATOM     40  C   UNL     1     -30.238  41.942 -21.441  0.00  0.00    +0.000 A 
ATOM     41  H   UNL     1     -32.644  44.526 -19.163  0.00  0.00    +0.000 HD
ENDBRANCH  11  30
BRANCH   7  42
ATOM     42  O   UNL     1     -33.171  49.008 -17.936  0.00  0.00    +0.000 OA
ATOM     43  H   UNL     1     -32.726  49.011 -17.072  0.00  0.00    +0.000 HD
ENDBRANCH   7  42
TORSDOF 2
ENDMDL
MODEL 8
REMARK VINA RESULT:      -7.6     23.814     27.157
REMARK  Name = 6509753_ManzamineA.pdbqt.pdb
REMARK  2 active torsions:
REMARK  status: ('A' for Active; 'I' for Inactive)
REMARK    1  A    between atoms: C_7  and  O_42
REMARK    2  A    between atoms: C_11  and  C_30
REMARK                            x       y       z     vdW  Elec       q    Type
REMARK                         _______ _______ _______ _____ _____    ______ ____
ROOT
ATOM      1  N   UNL     1     -16.858  55.427   3.452  0.00  0.00    +0.000 N 
ATOM      2  N   UNL     1     -13.115  53.417   6.059  0.00  0.00    +0.000 N 
ATOM      3  C   UNL     1     -15.219  53.612   4.107  0.00  0.00    +0.000 C 
ATOM      4  C   UNL     1     -16.663  54.192   4.255  0.00  0.00    +0.000 C 
ATOM      5  C   UNL     1     -15.038  52.087   3.715  0.00  0.00    +0.000 C 
ATOM      6  C   UNL     1     -14.803  54.483   3.012  0.00  0.00    +0.000 C 
ATOM      7  C   UNL     1     -17.843  53.224   4.371  0.00  0.00    +0.000 C 
ATOM      8  C   UNL     1     -14.335  53.850   5.302  0.00  0.00    +0.000 C 
ATOM      9  C   UNL     1     -15.574  55.630   2.746  0.00  0.00    +0.000 C 
ATOM     10  C   UNL     1     -13.845  51.498   4.266  0.00  0.00    +0.000 C 
ATOM     11  C   UNL     1     -16.244  51.279   3.598  0.00  0.00    +0.000 C 
ATOM     12  C   UNL     1     -17.296  51.951   3.946  0.00  0.00    +0.000 C 
ATOM     13  C   UNL     1     -12.996  52.117   5.381  0.00  0.00    +0.000 C 
ATOM     14  C   UNL     1     -17.243  56.569   4.284  0.00  0.00    +0.000 C 
ATOM     15  C   UNL     1     -18.377  53.230   5.730  0.00  0.00    +0.000 C 
ATOM     16  C   UNL     1     -15.058  56.937   2.496  0.00  0.00    +0.000 C 
ATOM     17  C   UNL     1     -13.509  53.179   7.437  0.00  0.00    +0.000 C 
ATOM     18  C   UNL     1     -17.272  58.022   4.796  0.00  0.00    +0.000 C 
ATOM     19  C   UNL     1     -18.769  53.180   7.208  0.00  0.00    +0.000 C 
ATOM     20  C   UNL     1     -14.919  58.121   2.643  0.00  0.00    +0.000 C 
ATOM     21  C   UNL     1     -16.510  59.302   4.458  0.00  0.00    +0.000 C 
ATOM     22  C   UNL     1     -14.095  52.991   8.840  0.00  0.00    +0.000 C 
ATOM     23  C   UNL     1     -15.397  59.351   3.417  0.00  0.00    +0.000 C 
ATOM     24  C   UNL     1     -18.655  53.074   8.726  0.00  0.00    +0.000 C 
ATOM     25  C   UNL     1     -15.131  52.883   9.955  0.00  0.00    +0.000 C 
ATOM     26  C   UNL     1     -16.599  52.880  10.346  0.00  0.00    +0.000 C 
ATOM     27  C   UNL     1     -17.974  52.976   9.706  0.00  0.00    +0.000 C 
ENDROOT
BRANCH  11  30
ATOM     28  N   UNL     1     -16.293  49.420   2.040  0.00  0.00    +0.000 NA
ATOM     29  N   UNL     1     -16.401  49.086   5.724  0.00  0.00    +0.000 N 
ATOM     30  C   UNL     1     -16.304  49.851   3.322  0.00  0.00    +0.000 A 
ATOM     31  C   UNL     1     -16.386  48.923   4.357  0.00  0.00    +0.000 A 
ATOM     32  C   UNL     1     -16.459  47.552   4.108  0.00  0.00    +0.000 A 
ATOM     33  C   UNL     1     -16.364  48.092   1.807  0.00  0.00    +0.000 A 
ATOM     34  C   UNL     1     -16.452  47.104   2.778  0.00  0.00    +0.000 A 
ATOM     35  C   UNL     1     -16.529  46.889   5.372  0.00  0.00    +0.000 A 
ATOM     36  C   UNL     1     -16.491  47.871   6.360  0.00  0.00    +0.000 A 
ATOM     37  C   UNL     1     -16.619  45.540   5.763  0.00  0.00    +0.000 A 
ATOM     38  C   UNL     1     -16.536  47.578   7.726  0.00  0.00    +0.000 A 
ATOM     39  C   UNL     1     -16.666  45.227   7.124  0.00  0.00    +0.000 A 
ATOM     40  C   UNL     1     -16.624  46.231   8.084  0.00  0.00    +0.000 A 
ATOM     41  H   UNL     1     -16.344  49.976   6.200  0.00  0.00    +0.000 HD
ENDBRANCH  11  30
BRANCH   7  42
ATOM     42  O   UNL     1     -18.878  53.576   3.465  0.00  0.00    +0.000 OA
ATOM     43  H   UNL     1     -19.664  53.081   3.749  0.00  0.00    +0.000 HD
ENDBRANCH   7  42
TORSDOF 2
ENDMDL
MODEL 9
REMARK VINA RESULT:      -7.3     25.174     27.340
REMARK  Name = 6509753_ManzamineA.pdbqt.pdb
REMARK  2 active torsions:
REMARK  status: ('A' for Active; 'I' for Inactive)
REMARK    1  A    between atoms: C_7  and  O_42
REMARK    2  A    between atoms: C_11  and  C_30
REMARK                            x       y       z     vdW  Elec       q    Type
REMARK                         _______ _______ _______ _____ _____    ______ ____
ROOT
ATOM      1  N   UNL     1     -17.276  51.569   5.579  0.00  0.00    +0.000 N 
ATOM      2  N   UNL     1     -13.103  54.025   6.762  0.00  0.00    +0.000 N 
ATOM      3  C   UNL     1     -15.833  53.615   5.957  0.00  0.00    +0.000 C 
ATOM      4  C   UNL     1     -16.425  52.598   4.928  0.00  0.00    +0.000 C 
ATOM      5  C   UNL     1     -16.024  55.167   5.701  0.00  0.00    +0.000 C 
ATOM      6  C   UNL     1     -16.629  53.175   7.099  0.00  0.00    +0.000 C 
ATOM      7  C   UNL     1     -16.851  53.103   3.546  0.00  0.00    +0.000 C 
ATOM      8  C   UNL     1     -14.372  53.410   6.253  0.00  0.00    +0.000 C 
ATOM      9  C   UNL     1     -17.283  51.932   7.014  0.00  0.00    +0.000 C 
ATOM     10  C   UNL     1     -14.940  55.964   6.218  0.00  0.00    +0.000 C 
ATOM     11  C   UNL     1     -16.673  55.566   4.460  0.00  0.00    +0.000 C 
ATOM     12  C   UNL     1     -16.904  54.542   3.699  0.00  0.00    +0.000 C 
ATOM     13  C   UNL     1     -13.582  55.412   6.663  0.00  0.00    +0.000 C 
ATOM     14  C   UNL     1     -16.783  50.211   5.333  0.00  0.00    +0.000 C 
ATOM     15  C   UNL     1     -15.920  52.636   2.523  0.00  0.00    +0.000 C 
ATOM     16  C   UNL     1     -17.310  50.937   8.036  0.00  0.00    +0.000 C 
ATOM     17  C   UNL     1     -12.077  53.824   5.753  0.00  0.00    +0.000 C 
ATOM     18  C   UNL     1     -16.411  48.747   5.634  0.00  0.00    +0.000 C 
ATOM     19  C   UNL     1     -14.813  52.241   1.543  0.00  0.00    +0.000 C 
ATOM     20  C   UNL     1     -17.165  49.852   8.532  0.00  0.00    +0.000 C 
ATOM     21  C   UNL     1     -16.396  47.872   6.887  0.00  0.00    +0.000 C 
ATOM     22  C   UNL     1     -11.124  53.512   4.595  0.00  0.00    +0.000 C 
ATOM     23  C   UNL     1     -16.771  48.397   8.267  0.00  0.00    +0.000 C 
ATOM     24  C   UNL     1     -13.425  52.045   0.940  0.00  0.00    +0.000 C 
ATOM     25  C   UNL     1     -10.643  53.049   3.223  0.00  0.00    +0.000 C 
ATOM     26  C   UNL     1     -11.009  52.512   1.850  0.00  0.00    +0.000 C 
ATOM     27  C   UNL     1     -12.235  52.135   1.036  0.00  0.00    +0.000 C 
ENDROOT
BRANCH  11  30
ATOM     28  N   UNL     1     -16.168  57.388   2.940  0.00  0.00    +0.000 NA
ATOM     29  N   UNL     1     -18.642  57.560   5.686  0.00  0.00    +0.000 N 
ATOM     30  C   UNL     1     -16.881  56.929   3.993  0.00  0.00    +0.000 A 
ATOM     31  C   UNL     1     -17.794  57.772   4.623  0.00  0.00    +0.000 A 
ATOM     32  C   UNL     1     -17.994  59.086   4.197  0.00  0.00    +0.000 A 
ATOM     33  C   UNL     1     -16.367  58.661   2.534  0.00  0.00    +0.000 A 
ATOM     34  C   UNL     1     -17.251  59.565   3.106  0.00  0.00    +0.000 A 
ATOM     35  C   UNL     1     -18.987  59.666   5.045  0.00  0.00    +0.000 A 
ATOM     36  C   UNL     1     -19.372  58.691   5.963  0.00  0.00    +0.000 A 
ATOM     37  C   UNL     1     -19.594  60.934   5.111  0.00  0.00    +0.000 A 
ATOM     38  C   UNL     1     -20.338  58.913   6.949  0.00  0.00    +0.000 A 
ATOM     39  C   UNL     1     -20.560  61.176   6.090  0.00  0.00    +0.000 A 
ATOM     40  C   UNL     1     -20.923  60.180   6.990  0.00  0.00    +0.000 A 
ATOM     41  H   UNL     1     -18.728  56.688   6.191  0.00  0.00    +0.000 HD
ENDBRANCH  11  30
BRANCH   7  42
ATOM     42  O   UNL     1     -18.158  52.652   3.223  0.00  0.00    +0.000 OA
ATOM     43  H   UNL     1     -18.749  53.408   3.379  0.00  0.00    +0.000 HD
ENDBRANCH   7  42
TORSDOF 2
ENDMDL
