MODEL 1
REMARK VINA RESULT:      -3.6      0.000      0.000
REMARK  Name = 67499_Pyrazolo.pdbqt.pdb
REMARK  0 active torsions:
REMARK  status: ('A' for Active; 'I' for Inactive)
REMARK                            x       y       z     vdW  Elec       q    Type
REMARK                         _______ _______ _______ _____ _____    ______ ____
ROOT
ATOM      1  N   UNL     1     -32.722  44.580  -3.746  0.00  0.00    +0.000 N 
ATOM      2  N   UNL     1     -33.157  43.443  -3.161  0.00  0.00    +0.000 NA
ATOM      3  N   UNL     1     -32.640  45.621  -5.932  0.00  0.00    +0.000 NA
ATOM      4  N   UNL     1     -33.643  44.220  -7.633  0.00  0.00    +0.000 NA
ATOM      5  C   UNL     1     -33.589  43.442  -5.405  0.00  0.00    +0.000 A 
ATOM      6  C   UNL     1     -32.957  44.627  -5.090  0.00  0.00    +0.000 A 
ATOM      7  C   UNL     1     -33.685  42.754  -4.182  0.00  0.00    +0.000 A 
ATOM      8  C   UNL     1     -33.938  43.249  -6.734  0.00  0.00    +0.000 A 
ATOM      9  C   UNL     1     -33.022  45.333  -7.191  0.00  0.00    +0.000 A 
ATOM     10  H   UNL     1     -32.271  45.287  -3.178  0.00  0.00    +0.000 HD
ENDROOT
TORSDOF 0
ENDMDL
MODEL 2
REMARK VINA RESULT:      -3.5     14.962     15.273
REMARK  Name = 67499_Pyrazolo.pdbqt.pdb
REMARK  0 active torsions:
REMARK  status: ('A' for Active; 'I' for Inactive)
REMARK                            x       y       z     vdW  Elec       q    Type
REMARK                         _______ _______ _______ _____ _____    ______ ____
ROOT
ATOM      1  N   UNL     1     -28.744  52.276   6.757  0.00  0.00    +0.000 N 
ATOM      2  N   UNL     1     -29.798  53.120   6.715  0.00  0.00    +0.000 NA
ATOM      3  N   UNL     1     -28.220  50.004   7.413  0.00  0.00    +0.000 NA
ATOM      4  N   UNL     1     -30.166  48.845   8.271  0.00  0.00    +0.000 NA
ATOM      5  C   UNL     1     -30.398  51.083   7.557  0.00  0.00    +0.000 A 
ATOM      6  C   UNL     1     -29.053  51.043   7.253  0.00  0.00    +0.000 A 
ATOM      7  C   UNL     1     -30.803  52.383   7.206  0.00  0.00    +0.000 A 
ATOM      8  C   UNL     1     -30.958  49.929   8.086  0.00  0.00    +0.000 A 
ATOM      9  C   UNL     1     -28.863  48.940   7.931  0.00  0.00    +0.000 A 
ATOM     10  H   UNL     1     -27.840  52.597   6.433  0.00  0.00    +0.000 HD
ENDROOT
TORSDOF 0
ENDMDL
MODEL 3
REMARK VINA RESULT:      -3.5      9.973     11.130
REMARK  Name = 67499_Pyrazolo.pdbqt.pdb
REMARK  0 active torsions:
REMARK  status: ('A' for Active; 'I' for Inactive)
REMARK                            x       y       z     vdW  Elec       q    Type
REMARK                         _______ _______ _______ _____ _____    ______ ____
ROOT
ATOM      1  N   UNL     1     -33.632  46.472 -14.316  0.00  0.00    +0.000 N 
ATOM      2  N   UNL     1     -34.512  47.496 -14.280  0.00  0.00    +0.000 NA
ATOM      3  N   UNL     1     -32.259  45.268 -15.907  0.00  0.00    +0.000 NA
ATOM      4  N   UNL     1     -32.512  46.139 -18.153  0.00  0.00    +0.000 NA
ATOM      5  C   UNL     1     -33.742  47.134 -16.400  0.00  0.00    +0.000 A 
ATOM      6  C   UNL     1     -33.142  46.217 -15.564  0.00  0.00    +0.000 A 
ATOM      7  C   UNL     1     -34.573  47.894 -15.558  0.00  0.00    +0.000 A 
ATOM      8  C   UNL     1     -33.402  47.078 -17.744  0.00  0.00    +0.000 A 
ATOM      9  C   UNL     1     -31.999  45.301 -17.229  0.00  0.00    +0.000 A 
ATOM     10  H   UNL     1     -33.404  45.985 -13.457  0.00  0.00    +0.000 HD
ENDROOT
TORSDOF 0
ENDMDL
MODEL 4
REMARK VINA RESULT:      -3.5     19.372     20.453
REMARK  Name = 67499_Pyrazolo.pdbqt.pdb
REMARK  0 active torsions:
REMARK  status: ('A' for Active; 'I' for Inactive)
REMARK                            x       y       z     vdW  Elec       q    Type
REMARK                         _______ _______ _______ _____ _____    ______ ____
ROOT
ATOM      1  N   UNL     1     -30.924  62.430  -2.231  0.00  0.00    +0.000 N 
ATOM      2  N   UNL     1     -31.518  62.845  -3.371  0.00  0.00    +0.000 NA
ATOM      3  N   UNL     1     -29.109  63.058  -0.756  0.00  0.00    +0.000 NA
ATOM      4  N   UNL     1     -27.971  65.051  -1.528  0.00  0.00    +0.000 NA
ATOM      5  C   UNL     1     -29.787  64.217  -2.786  0.00  0.00    +0.000 A 
ATOM      6  C   UNL     1     -29.882  63.219  -1.839  0.00  0.00    +0.000 A 
ATOM      7  C   UNL     1     -30.816  63.938  -3.702  0.00  0.00    +0.000 A 
ATOM      8  C   UNL     1     -28.786  65.161  -2.607  0.00  0.00    +0.000 A 
ATOM      9  C   UNL     1     -28.173  64.024  -0.677  0.00  0.00    +0.000 A 
ATOM     10  H   UNL     1     -31.274  61.601  -1.765  0.00  0.00    +0.000 HD
ENDROOT
TORSDOF 0
ENDMDL
MODEL 5
REMARK VINA RESULT:      -3.5     27.516     28.646
REMARK  Name = 67499_Pyrazolo.pdbqt.pdb
REMARK  0 active torsions:
REMARK  status: ('A' for Active; 'I' for Inactive)
REMARK                            x       y       z     vdW  Elec       q    Type
REMARK                         _______ _______ _______ _____ _____    ______ ____
ROOT
ATOM      1  N   UNL     1     -26.299  60.847 -27.040  0.00  0.00    +0.000 N 
ATOM      2  N   UNL     1     -27.053  61.232 -25.988  0.00  0.00    +0.000 NA
ATOM      3  N   UNL     1     -26.561  60.136 -29.341  0.00  0.00    +0.000 NA
ATOM      4  N   UNL     1     -28.889  60.084 -30.007  0.00  0.00    +0.000 NA
ATOM      5  C   UNL     1     -28.349  60.744 -27.805  0.00  0.00    +0.000 A 
ATOM      6  C   UNL     1     -27.029  60.544 -28.153  0.00  0.00    +0.000 A 
ATOM      7  C   UNL     1     -28.304  61.166 -26.465  0.00  0.00    +0.000 A 
ATOM      8  C   UNL     1     -29.302  60.499 -28.784  0.00  0.00    +0.000 A 
ATOM      9  C   UNL     1     -27.565  59.928 -30.215  0.00  0.00    +0.000 A 
ATOM     10  H   UNL     1     -25.292  60.810 -26.940  0.00  0.00    +0.000 HD
ENDROOT
TORSDOF 0
ENDMDL
MODEL 6
REMARK VINA RESULT:      -3.5      2.178      3.991
REMARK  Name = 67499_Pyrazolo.pdbqt.pdb
REMARK  0 active torsions:
REMARK  status: ('A' for Active; 'I' for Inactive)
REMARK                            x       y       z     vdW  Elec       q    Type
REMARK                         _______ _______ _______ _____ _____    ______ ____
ROOT
ATOM      1  N   UNL     1     -32.460  44.174  -8.792  0.00  0.00    +0.000 N 
ATOM      2  N   UNL     1     -33.205  44.382  -9.899  0.00  0.00    +0.000 NA
ATOM      3  N   UNL     1     -32.459  44.722  -6.433  0.00  0.00    +0.000 NA
ATOM      4  N   UNL     1     -34.380  46.064  -5.821  0.00  0.00    +0.000 NA
ATOM      5  C   UNL     1     -34.133  45.388  -8.070  0.00  0.00    +0.000 A 
ATOM      6  C   UNL     1     -32.974  44.756  -7.670  0.00  0.00    +0.000 A 
ATOM      7  C   UNL     1     -34.225  45.124  -9.448  0.00  0.00    +0.000 A 
ATOM      8  C   UNL     1     -34.851  46.063  -7.093  0.00  0.00    +0.000 A 
ATOM      9  C   UNL     1     -33.230  45.406  -5.565  0.00  0.00    +0.000 A 
ATOM     10  H   UNL     1     -31.610  43.626  -8.864  0.00  0.00    +0.000 HD
ENDROOT
TORSDOF 0
ENDMDL
MODEL 7
REMARK VINA RESULT:      -3.4     11.365     13.416
REMARK  Name = 67499_Pyrazolo.pdbqt.pdb
REMARK  0 active torsions:
REMARK  status: ('A' for Active; 'I' for Inactive)
REMARK                            x       y       z     vdW  Elec       q    Type
REMARK                         _______ _______ _______ _____ _____    ______ ____
ROOT
ATOM      1  N   UNL     1     -34.113  49.039 -19.444  0.00  0.00    +0.000 N 
ATOM      2  N   UNL     1     -34.857  50.119 -19.123  0.00  0.00    +0.000 NA
ATOM      3  N   UNL     1     -33.158  47.074 -18.398  0.00  0.00    +0.000 NA
ATOM      4  N   UNL     1     -33.674  46.974 -16.034  0.00  0.00    +0.000 NA
ATOM      5  C   UNL     1     -34.486  48.794 -17.300  0.00  0.00    +0.000 A 
ATOM      6  C   UNL     1     -33.863  48.214 -18.386  0.00  0.00    +0.000 A 
ATOM      7  C   UNL     1     -35.080  49.961 -17.812  0.00  0.00    +0.000 A 
ATOM      8  C   UNL     1     -34.376  48.133 -16.084  0.00  0.00    +0.000 A 
ATOM      9  C   UNL     1     -33.114  46.516 -17.172  0.00  0.00    +0.000 A 
ATOM     10  H   UNL     1     -33.804  48.917 -20.401  0.00  0.00    +0.000 HD
ENDROOT
TORSDOF 0
ENDMDL
MODEL 8
REMARK VINA RESULT:      -3.4     25.750     26.476
REMARK  Name = 67499_Pyrazolo.pdbqt.pdb
REMARK  0 active torsions:
REMARK  status: ('A' for Active; 'I' for Inactive)
REMARK                            x       y       z     vdW  Elec       q    Type
REMARK                         _______ _______ _______ _____ _____    ______ ____
ROOT
ATOM      1  N   UNL     1     -30.387  61.073 -23.994  0.00  0.00    +0.000 N 
ATOM      2  N   UNL     1     -30.941  60.208 -24.871  0.00  0.00    +0.000 NA
ATOM      3  N   UNL     1     -28.374  62.391 -23.718  0.00  0.00    +0.000 NA
ATOM      4  N   UNL     1     -26.845  62.096 -25.572  0.00  0.00    +0.000 NA
ATOM      5  C   UNL     1     -28.893  60.922 -25.588  0.00  0.00    +0.000 A 
ATOM      6  C   UNL     1     -29.160  61.529 -24.379  0.00  0.00    +0.000 A 
ATOM      7  C   UNL     1     -30.021  60.121 -25.841  0.00  0.00    +0.000 A 
ATOM      8  C   UNL     1     -27.683  61.229 -26.194  0.00  0.00    +0.000 A 
ATOM      9  C   UNL     1     -27.229  62.620 -24.390  0.00  0.00    +0.000 A 
ATOM     10  H   UNL     1     -30.894  61.315 -23.151  0.00  0.00    +0.000 HD
ENDROOT
TORSDOF 0
ENDMDL
MODEL 9
REMARK VINA RESULT:      -3.4     10.018     10.566
REMARK  Name = 67499_Pyrazolo.pdbqt.pdb
REMARK  0 active torsions:
REMARK  status: ('A' for Active; 'I' for Inactive)
REMARK                            x       y       z     vdW  Elec       q    Type
REMARK                         _______ _______ _______ _____ _____    ______ ____
ROOT
ATOM      1  N   UNL     1     -23.838  39.058  -9.312  0.00  0.00    +0.000 N 
ATOM      2  N   UNL     1     -23.741  40.404  -9.372  0.00  0.00    +0.000 NA
ATOM      3  N   UNL     1     -25.465  37.303  -9.687  0.00  0.00    +0.000 NA
ATOM      4  N   UNL     1     -27.602  38.195 -10.394  0.00  0.00    +0.000 NA
ATOM      5  C   UNL     1     -25.832  39.694  -9.958  0.00  0.00    +0.000 A 
ATOM      6  C   UNL     1     -25.071  38.585  -9.654  0.00  0.00    +0.000 A 
ATOM      7  C   UNL     1     -24.963  40.784  -9.767  0.00  0.00    +0.000 A 
ATOM      8  C   UNL     1     -27.147  39.471 -10.341  0.00  0.00    +0.000 A 
ATOM      9  C   UNL     1     -26.752  37.199 -10.070  0.00  0.00    +0.000 A 
ATOM     10  H   UNL     1     -23.030  38.516  -9.031  0.00  0.00    +0.000 HD
ENDROOT
TORSDOF 0
ENDMDL
