MODEL 1
REMARK VINA RESULT:      -4.8      0.000      0.000
REMARK  Name = 71369791_5FluoroDione.pdbqt.pdb
REMARK  1 active torsions:
REMARK  status: ('A' for Active; 'I' for Inactive)
REMARK    1  A    between atoms: N_4  and  C_12
REMARK                            x       y       z     vdW  Elec       q    Type
REMARK                         _______ _______ _______ _____ _____    ______ ____
ROOT
ATOM      1  F   UNL     1     -36.453  49.764 -14.998  0.00  0.00    +0.000 F 
ATOM      2  O   UNL     1     -32.843  47.273 -18.225  0.00  0.00    +0.000 OA
ATOM      3  O   UNL     1     -34.784  47.663 -14.089  0.00  0.00    +0.000 OA
ATOM      4  N   UNL     1     -34.698  48.728 -18.059  0.00  0.00    +0.000 N 
ATOM      5  N   UNL     1     -33.928  47.462 -16.219  0.00  0.00    +0.000 N 
ATOM      6  C   UNL     1     -35.619  49.186 -17.188  0.00  0.00    +0.000 C 
ATOM      7  C   UNL     1     -35.851  48.905 -15.836  0.00  0.00    +0.000 C 
ATOM      8  C   UNL     1     -33.753  47.789 -17.585  0.00  0.00    +0.000 C 
ATOM      9  C   UNL     1     -34.837  47.963 -15.275  0.00  0.00    +0.000 C 
ATOM     10  H   UNL     1     -33.237  46.824 -15.850  0.00  0.00    +0.000 HD
ENDROOT
BRANCH   4  12
ATOM     11  O   UNL     1     -34.926  50.542 -19.656  0.00  0.00    +0.000 OA
ATOM     12  C   UNL     1     -34.722  49.193 -19.343  0.00  0.00    +0.000 C 
ATOM     13  C   UNL     1     -34.561  48.475 -20.558  0.00  0.00    +0.000 C 
ATOM     14  C   UNL     1     -34.619  49.161 -21.925  0.00  0.00    +0.000 C 
ATOM     15  C   UNL     1     -34.843  50.337 -20.976  0.00  0.00    +0.000 C 
ENDBRANCH   4  12
TORSDOF 1
ENDMDL
MODEL 2
REMARK VINA RESULT:      -4.8      3.502      4.641
REMARK  Name = 71369791_5FluoroDione.pdbqt.pdb
REMARK  1 active torsions:
REMARK  status: ('A' for Active; 'I' for Inactive)
REMARK    1  A    between atoms: N_4  and  C_12
REMARK                            x       y       z     vdW  Elec       q    Type
REMARK                         _______ _______ _______ _____ _____    ______ ____
ROOT
ATOM      1  F   UNL     1     -34.441  48.581 -17.243  0.00  0.00    +0.000 F 
ATOM      2  O   UNL     1     -31.349  44.520 -15.343  0.00  0.00    +0.000 OA
ATOM      3  O   UNL     1     -34.373  47.864 -14.502  0.00  0.00    +0.000 OA
ATOM      4  N   UNL     1     -32.274  45.609 -17.226  0.00  0.00    +0.000 N 
ATOM      5  N   UNL     1     -32.932  46.142 -15.020  0.00  0.00    +0.000 N 
ATOM      6  C   UNL     1     -33.159  46.562 -17.577  0.00  0.00    +0.000 C 
ATOM      7  C   UNL     1     -34.002  47.384 -16.819  0.00  0.00    +0.000 C 
ATOM      8  C   UNL     1     -32.110  45.339 -15.848  0.00  0.00    +0.000 C 
ATOM      9  C   UNL     1     -33.817  47.178 -15.352  0.00  0.00    +0.000 C 
ATOM     10  H   UNL     1     -32.799  45.993 -14.030  0.00  0.00    +0.000 HD
ENDROOT
BRANCH   4  12
ATOM     11  O   UNL     1     -30.194  45.053 -18.348  0.00  0.00    +0.000 OA
ATOM     12  C   UNL     1     -31.584  44.960 -18.210  0.00  0.00    +0.000 C 
ATOM     13  C   UNL     1     -32.076  44.112 -19.237  0.00  0.00    +0.000 C 
ATOM     14  C   UNL     1     -31.153  43.461 -20.270  0.00  0.00    +0.000 C 
ATOM     15  C   UNL     1     -30.161  44.249 -19.417  0.00  0.00    +0.000 C 
ENDBRANCH   4  12
TORSDOF 1
ENDMDL
MODEL 3
REMARK VINA RESULT:      -4.7      1.581      4.723
REMARK  Name = 71369791_5FluoroDione.pdbqt.pdb
REMARK  1 active torsions:
REMARK  status: ('A' for Active; 'I' for Inactive)
REMARK    1  A    between atoms: N_4  and  C_12
REMARK                            x       y       z     vdW  Elec       q    Type
REMARK                         _______ _______ _______ _____ _____    ______ ____
ROOT
ATOM      1  F   UNL     1     -37.039  50.701 -18.433  0.00  0.00    +0.000 F 
ATOM      2  O   UNL     1     -32.921  47.153 -18.088  0.00  0.00    +0.000 OA
ATOM      3  O   UNL     1     -34.991  50.541 -20.384  0.00  0.00    +0.000 OA
ATOM      4  N   UNL     1     -34.743  48.205 -17.010  0.00  0.00    +0.000 N 
ATOM      5  N   UNL     1     -33.958  48.912 -19.123  0.00  0.00    +0.000 N 
ATOM      6  C   UNL     1     -35.644  49.195 -17.162  0.00  0.00    +0.000 C 
ATOM      7  C   UNL     1     -35.850  50.125 -18.188  0.00  0.00    +0.000 C 
ATOM      8  C   UNL     1     -33.802  48.005 -18.047  0.00  0.00    +0.000 C 
ATOM      9  C   UNL     1     -34.918  49.912 -19.335  0.00  0.00    +0.000 C 
ATOM     10  H   UNL     1     -33.322  48.759 -19.893  0.00  0.00    +0.000 HD
ENDROOT
BRANCH   4  12
ATOM     11  O   UNL     1     -34.065  47.774 -14.718  0.00  0.00    +0.000 OA
ATOM     12  C   UNL     1     -34.786  47.448 -15.874  0.00  0.00    +0.000 C 
ATOM     13  C   UNL     1     -35.511  46.252 -15.622  0.00  0.00    +0.000 C 
ATOM     14  C   UNL     1     -35.442  45.524 -14.278  0.00  0.00    +0.000 C 
ATOM     15  C   UNL     1     -34.513  46.712 -14.037  0.00  0.00    +0.000 C 
ENDBRANCH   4  12
TORSDOF 1
ENDMDL
MODEL 4
REMARK VINA RESULT:      -4.4      9.656     12.651
REMARK  Name = 71369791_5FluoroDione.pdbqt.pdb
REMARK  1 active torsions:
REMARK  status: ('A' for Active; 'I' for Inactive)
REMARK    1  A    between atoms: N_4  and  C_12
REMARK                            x       y       z     vdW  Elec       q    Type
REMARK                         _______ _______ _______ _____ _____    ______ ____
ROOT
ATOM      1  F   UNL     1     -37.350  46.055  -7.507  0.00  0.00    +0.000 F 
ATOM      2  O   UNL     1     -32.333  44.064  -8.231  0.00  0.00    +0.000 OA
ATOM      3  O   UNL     1     -35.887  46.431  -9.904  0.00  0.00    +0.000 OA
ATOM      4  N   UNL     1     -34.090  44.542  -6.725  0.00  0.00    +0.000 N 
ATOM      5  N   UNL     1     -34.107  45.316  -8.957  0.00  0.00    +0.000 N 
ATOM      6  C   UNL     1     -35.276  45.175  -6.638  0.00  0.00    +0.000 C 
ATOM      7  C   UNL     1     -36.015  45.913  -7.569  0.00  0.00    +0.000 C 
ATOM      8  C   UNL     1     -33.410  44.586  -7.964  0.00  0.00    +0.000 C 
ATOM      9  C   UNL     1     -35.365  45.935  -8.913  0.00  0.00    +0.000 C 
ATOM     10  H   UNL     1     -33.657  45.324  -9.861  0.00  0.00    +0.000 HD
ENDROOT
BRANCH   4  12
ATOM     11  O   UNL     1     -34.210  42.739  -5.103  0.00  0.00    +0.000 OA
ATOM     12  C   UNL     1     -33.610  43.893  -5.623  0.00  0.00    +0.000 C 
ATOM     13  C   UNL     1     -32.487  44.211  -4.815  0.00  0.00    +0.000 C 
ATOM     14  C   UNL     1     -32.088  43.367  -3.602  0.00  0.00    +0.000 C 
ATOM     15  C   UNL     1     -33.322  42.623  -4.108  0.00  0.00    +0.000 C 
ENDBRANCH   4  12
TORSDOF 1
ENDMDL
MODEL 5
REMARK VINA RESULT:      -4.4     23.923     25.329
REMARK  Name = 71369791_5FluoroDione.pdbqt.pdb
REMARK  1 active torsions:
REMARK  status: ('A' for Active; 'I' for Inactive)
REMARK    1  A    between atoms: N_4  and  C_12
REMARK                            x       y       z     vdW  Elec       q    Type
REMARK                         _______ _______ _______ _____ _____    ______ ____
ROOT
ATOM      1  F   UNL     1     -28.276  64.271   1.061  0.00  0.00    +0.000 F 
ATOM      2  O   UNL     1     -30.196  59.402   2.570  0.00  0.00    +0.000 OA
ATOM      3  O   UNL     1     -27.212  61.836   0.078  0.00  0.00    +0.000 OA
ATOM      4  N   UNL     1     -30.144  61.733   2.958  0.00  0.00    +0.000 N 
ATOM      5  N   UNL     1     -28.676  60.683   1.434  0.00  0.00    +0.000 N 
ATOM      6  C   UNL     1     -29.510  62.862   2.585  0.00  0.00    +0.000 C 
ATOM      7  C   UNL     1     -28.464  63.095   1.684  0.00  0.00    +0.000 C 
ATOM      8  C   UNL     1     -29.732  60.519   2.363  0.00  0.00    +0.000 C 
ATOM      9  C   UNL     1     -28.037  61.848   0.984  0.00  0.00    +0.000 C 
ATOM     10  H   UNL     1     -28.395  59.833   0.967  0.00  0.00    +0.000 HD
ENDROOT
BRANCH   4  12
ATOM     11  O   UNL     1     -32.377  62.431   3.608  0.00  0.00    +0.000 OA
ATOM     12  C   UNL     1     -31.148  61.819   3.881  0.00  0.00    +0.000 C 
ATOM     13  C   UNL     1     -31.175  61.348   5.221  0.00  0.00    +0.000 C 
ATOM     14  C   UNL     1     -32.393  61.533   6.127  0.00  0.00    +0.000 C 
ATOM     15  C   UNL     1     -32.864  62.194   4.833  0.00  0.00    +0.000 C 
ENDBRANCH   4  12
TORSDOF 1
ENDMDL
MODEL 6
REMARK VINA RESULT:      -4.3      9.338     12.711
REMARK  Name = 71369791_5FluoroDione.pdbqt.pdb
REMARK  1 active torsions:
REMARK  status: ('A' for Active; 'I' for Inactive)
REMARK    1  A    between atoms: N_4  and  C_12
REMARK                            x       y       z     vdW  Elec       q    Type
REMARK                         _______ _______ _______ _____ _____    ______ ____
ROOT
ATOM      1  F   UNL     1     -34.535  42.547 -10.165  0.00  0.00    +0.000 F 
ATOM      2  O   UNL     1     -32.422  46.261  -6.788  0.00  0.00    +0.000 OA
ATOM      3  O   UNL     1     -33.849  45.165 -11.006  0.00  0.00    +0.000 OA
ATOM      4  N   UNL     1     -33.499  44.171  -7.032  0.00  0.00    +0.000 N 
ATOM      5  N   UNL     1     -33.245  45.670  -8.841  0.00  0.00    +0.000 N 
ATOM      6  C   UNL     1     -34.109  43.387  -7.942  0.00  0.00    +0.000 C 
ATOM      7  C   UNL     1     -34.379  43.566  -9.304  0.00  0.00    +0.000 C 
ATOM      8  C   UNL     1     -33.009  45.424  -7.467  0.00  0.00    +0.000 C 
ATOM      9  C   UNL     1     -33.824  44.851  -9.822  0.00  0.00    +0.000 C 
ATOM     10  H   UNL     1     -32.865  46.542  -9.180  0.00  0.00    +0.000 HD
ENDROOT
BRANCH   4  12
ATOM     11  O   UNL     1     -34.236  42.749  -5.207  0.00  0.00    +0.000 OA
ATOM     12  C   UNL     1     -33.382  43.719  -5.749  0.00  0.00    +0.000 C 
ATOM     13  C   UNL     1     -32.448  44.096  -4.748  0.00  0.00    +0.000 C 
ATOM     14  C   UNL     1     -32.461  43.483  -3.346  0.00  0.00    +0.000 C 
ATOM     15  C   UNL     1     -33.630  42.760  -4.014  0.00  0.00    +0.000 C 
ENDBRANCH   4  12
TORSDOF 1
ENDMDL
MODEL 7
REMARK VINA RESULT:      -4.3     14.356     15.932
REMARK  Name = 71369791_5FluoroDione.pdbqt.pdb
REMARK  1 active torsions:
REMARK  status: ('A' for Active; 'I' for Inactive)
REMARK    1  A    between atoms: N_4  and  C_12
REMARK                            x       y       z     vdW  Elec       q    Type
REMARK                         _______ _______ _______ _____ _____    ______ ____
ROOT
ATOM      1  F   UNL     1     -28.830  63.463 -22.925  0.00  0.00    +0.000 F 
ATOM      2  O   UNL     1     -27.414  60.385 -27.190  0.00  0.00    +0.000 OA
ATOM      3  O   UNL     1     -26.161  63.276 -23.858  0.00  0.00    +0.000 OA
ATOM      4  N   UNL     1     -29.067  60.946 -25.596  0.00  0.00    +0.000 N 
ATOM      5  N   UNL     1     -26.853  61.753 -25.442  0.00  0.00    +0.000 N 
ATOM      6  C   UNL     1     -29.264  61.659 -24.470  0.00  0.00    +0.000 C 
ATOM      7  C   UNL     1     -28.404  62.452 -23.702  0.00  0.00    +0.000 C 
ATOM      8  C   UNL     1     -27.775  60.962 -26.169  0.00  0.00    +0.000 C 
ATOM      9  C   UNL     1     -27.041  62.550 -24.303  0.00  0.00    +0.000 C 
ATOM     10  H   UNL     1     -25.934  61.811 -25.858  0.00  0.00    +0.000 HD
ENDROOT
BRANCH   4  12
ATOM     11  O   UNL     1     -30.690  59.142 -25.492  0.00  0.00    +0.000 OA
ATOM     12  C   UNL     1     -30.119  60.253 -26.126  0.00  0.00    +0.000 C 
ATOM     13  C   UNL     1     -30.819  60.478 -27.341  0.00  0.00    +0.000 C 
ATOM     14  C   UNL     1     -31.985  59.594 -27.787  0.00  0.00    +0.000 C 
ATOM     15  C   UNL     1     -31.596  58.949 -26.458  0.00  0.00    +0.000 C 
ENDBRANCH   4  12
TORSDOF 1
ENDMDL
MODEL 8
REMARK VINA RESULT:      -4.3      5.087      6.722
REMARK  Name = 71369791_5FluoroDione.pdbqt.pdb
REMARK  1 active torsions:
REMARK  status: ('A' for Active; 'I' for Inactive)
REMARK    1  A    between atoms: N_4  and  C_12
REMARK                            x       y       z     vdW  Elec       q    Type
REMARK                         _______ _______ _______ _____ _____    ______ ____
ROOT
ATOM      1  F   UNL     1     -31.361  43.799 -20.564  0.00  0.00    +0.000 F 
ATOM      2  O   UNL     1     -30.275  44.789 -15.319  0.00  0.00    +0.000 OA
ATOM      3  O   UNL     1     -28.740  43.676 -19.495  0.00  0.00    +0.000 OA
ATOM      4  N   UNL     1     -31.839  44.904 -17.088  0.00  0.00    +0.000 N 
ATOM      5  N   UNL     1     -29.575  44.335 -17.451  0.00  0.00    +0.000 N 
ATOM      6  C   UNL     1     -31.954  44.739 -18.420  0.00  0.00    +0.000 C 
ATOM      7  C   UNL     1     -31.023  44.392 -19.406  0.00  0.00    +0.000 C 
ATOM      8  C   UNL     1     -30.567  44.696 -16.507  0.00  0.00    +0.000 C 
ATOM      9  C   UNL     1     -29.677  44.101 -18.830  0.00  0.00    +0.000 C 
ATOM     10  H   UNL     1     -28.668  44.142 -17.050  0.00  0.00    +0.000 HD
ENDROOT
BRANCH   4  12
ATOM     11  O   UNL     1     -33.905  44.324 -15.952  0.00  0.00    +0.000 OA
ATOM     12  C   UNL     1     -32.947  45.256 -16.372  0.00  0.00    +0.000 C 
ATOM     13  C   UNL     1     -33.353  46.541 -15.925  0.00  0.00    +0.000 C 
ATOM     14  C   UNL     1     -34.640  46.759 -15.127  0.00  0.00    +0.000 C 
ATOM     15  C   UNL     1     -34.666  45.249 -15.353  0.00  0.00    +0.000 C 
ENDBRANCH   4  12
TORSDOF 1
ENDMDL
MODEL 9
REMARK VINA RESULT:      -4.3      5.877      7.401
REMARK  Name = 71369791_5FluoroDione.pdbqt.pdb
REMARK  1 active torsions:
REMARK  status: ('A' for Active; 'I' for Inactive)
REMARK    1  A    between atoms: N_4  and  C_12
REMARK                            x       y       z     vdW  Elec       q    Type
REMARK                         _______ _______ _______ _____ _____    ______ ____
ROOT
ATOM      1  F   UNL     1     -30.711  40.405 -16.613  0.00  0.00    +0.000 F 
ATOM      2  O   UNL     1     -29.277  45.144 -18.881  0.00  0.00    +0.000 OA
ATOM      3  O   UNL     1     -28.469  40.664 -18.326  0.00  0.00    +0.000 OA
ATOM      4  N   UNL     1     -30.918  43.908 -17.711  0.00  0.00    +0.000 N 
ATOM      5  N   UNL     1     -28.998  42.885 -18.633  0.00  0.00    +0.000 N 
ATOM      6  C   UNL     1     -31.222  42.661 -17.302  0.00  0.00    +0.000 C 
ATOM      7  C   UNL     1     -30.564  41.436 -17.461  0.00  0.00    +0.000 C 
ATOM      8  C   UNL     1     -29.719  44.088 -18.439  0.00  0.00    +0.000 C 
ATOM      9  C   UNL     1     -29.259  41.587 -18.171  0.00  0.00    +0.000 C 
ATOM     10  H   UNL     1     -28.118  42.999 -19.115  0.00  0.00    +0.000 HD
ENDROOT
BRANCH   4  12
ATOM     11  O   UNL     1     -32.294  45.799 -18.366  0.00  0.00    +0.000 OA
ATOM     12  C   UNL     1     -31.773  44.928 -17.402  0.00  0.00    +0.000 C 
ATOM     13  C   UNL     1     -32.289  45.309 -16.135  0.00  0.00    +0.000 C 
ATOM     14  C   UNL     1     -33.246  46.491 -15.966  0.00  0.00    +0.000 C 
ATOM     15  C   UNL     1     -32.999  46.503 -17.473  0.00  0.00    +0.000 C 
ENDBRANCH   4  12
TORSDOF 1
ENDMDL
