MODEL 1
REMARK VINA RESULT:      -2.9      0.000      0.000
REMARK  Name = 7288_3Pentanone.pdbqt.pdb
REMARK  2 active torsions:
REMARK  status: ('A' for Active; 'I' for Inactive)
REMARK    1  A    between atoms: C_2  and  C_3
REMARK    2  A    between atoms: C_2  and  C_5
REMARK                            x       y       z     vdW  Elec       q    Type
REMARK                         _______ _______ _______ _____ _____    ______ ____
ROOT
ATOM      1  O   UNL     1     -15.735  50.351  -5.758  0.00  0.00    +0.000 OA
ATOM      2  C   UNL     1     -14.706  49.687  -5.784  0.00  0.00    +0.000 C 
ENDROOT
BRANCH   2   3
ATOM      3  C   UNL     1     -14.640  48.398  -5.137  0.00  0.00    +0.000 C 
ATOM      4  C   UNL     1     -14.551  47.031  -4.431  0.00  0.00    +0.000 C 
ENDBRANCH   2   3
BRANCH   2   5
ATOM      5  C   UNL     1     -13.528  50.173  -6.462  0.00  0.00    +0.000 C 
ATOM      6  C   UNL     1     -12.273  50.675  -7.203  0.00  0.00    +0.000 C 
ENDBRANCH   2   5
TORSDOF 2
ENDMDL
MODEL 2
REMARK VINA RESULT:      -2.9     19.356     19.971
REMARK  Name = 7288_3Pentanone.pdbqt.pdb
REMARK  2 active torsions:
REMARK  status: ('A' for Active; 'I' for Inactive)
REMARK    1  A    between atoms: C_2  and  C_3
REMARK    2  A    between atoms: C_2  and  C_5
REMARK                            x       y       z     vdW  Elec       q    Type
REMARK                         _______ _______ _______ _____ _____    ______ ____
ROOT
ATOM      1  O   UNL     1     -34.713  46.230  -4.821  0.00  0.00    +0.000 OA
ATOM      2  C   UNL     1     -33.907  45.563  -5.458  0.00  0.00    +0.000 C 
ENDROOT
BRANCH   2   3
ATOM      3  C   UNL     1     -33.727  45.772  -6.875  0.00  0.00    +0.000 C 
ATOM      4  C   UNL     1     -33.533  45.970  -8.391  0.00  0.00    +0.000 C 
ENDBRANCH   2   3
BRANCH   2   5
ATOM      5  C   UNL     1     -33.110  44.548  -4.811  0.00  0.00    +0.000 C 
ATOM      6  C   UNL     1     -32.240  43.477  -4.121  0.00  0.00    +0.000 C 
ENDBRANCH   2   5
TORSDOF 2
ENDMDL
MODEL 3
REMARK VINA RESULT:      -2.9     19.373     19.813
REMARK  Name = 7288_3Pentanone.pdbqt.pdb
REMARK  2 active torsions:
REMARK  status: ('A' for Active; 'I' for Inactive)
REMARK    1  A    between atoms: C_2  and  C_3
REMARK    2  A    between atoms: C_2  and  C_5
REMARK                            x       y       z     vdW  Elec       q    Type
REMARK                         _______ _______ _______ _____ _____    ______ ____
ROOT
ATOM      1  O   UNL     1     -34.744  46.228  -4.833  0.00  0.00    +0.000 OA
ATOM      2  C   UNL     1     -33.935  45.570  -5.475  0.00  0.00    +0.000 C 
ENDROOT
BRANCH   2   3
ATOM      3  C   UNL     1     -33.117  44.569  -4.832  0.00  0.00    +0.000 C 
ATOM      4  C   UNL     1     -32.260  43.483  -4.152  0.00  0.00    +0.000 C 
ENDBRANCH   2   3
BRANCH   2   5
ATOM      5  C   UNL     1     -33.774  45.774  -6.895  0.00  0.00    +0.000 C 
ATOM      6  C   UNL     1     -33.580  45.982  -8.411  0.00  0.00    +0.000 C 
ENDBRANCH   2   5
TORSDOF 2
ENDMDL
MODEL 4
REMARK VINA RESULT:      -2.6     23.865     24.655
REMARK  Name = 7288_3Pentanone.pdbqt.pdb
REMARK  2 active torsions:
REMARK  status: ('A' for Active; 'I' for Inactive)
REMARK    1  A    between atoms: C_2  and  C_3
REMARK    2  A    between atoms: C_2  and  C_5
REMARK                            x       y       z     vdW  Elec       q    Type
REMARK                         _______ _______ _______ _____ _____    ______ ____
ROOT
ATOM      1  O   UNL     1     -35.847  57.567  -6.378  0.00  0.00    +0.000 OA
ATOM      2  C   UNL     1     -36.382  58.573  -5.929  0.00  0.00    +0.000 C 
ENDROOT
BRANCH   2   3
ATOM      3  C   UNL     1     -35.771  59.871  -6.089  0.00  0.00    +0.000 C 
ATOM      4  C   UNL     1     -35.119  61.254  -6.283  0.00  0.00    +0.000 C 
ENDBRANCH   2   3
BRANCH   2   5
ATOM      5  C   UNL     1     -37.641  58.493  -5.227  0.00  0.00    +0.000 C 
ATOM      6  C   UNL     1     -38.994  58.424  -4.491  0.00  0.00    +0.000 C 
ENDBRANCH   2   5
TORSDOF 2
ENDMDL
MODEL 5
REMARK VINA RESULT:      -2.5     17.173     17.666
REMARK  Name = 7288_3Pentanone.pdbqt.pdb
REMARK  2 active torsions:
REMARK  status: ('A' for Active; 'I' for Inactive)
REMARK    1  A    between atoms: C_2  and  C_3
REMARK    2  A    between atoms: C_2  and  C_5
REMARK                            x       y       z     vdW  Elec       q    Type
REMARK                         _______ _______ _______ _____ _____    ______ ____
ROOT
ATOM      1  O   UNL     1     -23.673  40.043   4.357  0.00  0.00    +0.000 OA
ATOM      2  C   UNL     1     -24.838  40.150   3.996  0.00  0.00    +0.000 C 
ENDROOT
BRANCH   2   3
ATOM      3  C   UNL     1     -25.575  41.371   4.223  0.00  0.00    +0.000 C 
ATOM      4  C   UNL     1     -26.364  42.668   4.488  0.00  0.00    +0.000 C 
ENDBRANCH   2   3
BRANCH   2   5
ATOM      5  C   UNL     1     -25.512  39.059   3.333  0.00  0.00    +0.000 C 
ATOM      6  C   UNL     1     -26.222  37.901   2.603  0.00  0.00    +0.000 C 
ENDBRANCH   2   5
TORSDOF 2
ENDMDL
MODEL 6
REMARK VINA RESULT:      -2.4      2.478      3.005
REMARK  Name = 7288_3Pentanone.pdbqt.pdb
REMARK  2 active torsions:
REMARK  status: ('A' for Active; 'I' for Inactive)
REMARK    1  A    between atoms: C_2  and  C_3
REMARK    2  A    between atoms: C_2  and  C_5
REMARK                            x       y       z     vdW  Elec       q    Type
REMARK                         _______ _______ _______ _____ _____    ______ ____
ROOT
ATOM      1  O   UNL     1     -12.843  47.029  -5.461  0.00  0.00    +0.000 OA
ATOM      2  C   UNL     1     -13.919  47.313  -4.949  0.00  0.00    +0.000 C 
ENDROOT
BRANCH   2   3
ATOM      3  C   UNL     1     -14.526  46.443  -3.969  0.00  0.00    +0.000 C 
ATOM      4  C   UNL     1     -15.158  45.496  -2.931  0.00  0.00    +0.000 C 
ENDBRANCH   2   3
BRANCH   2   5
ATOM      5  C   UNL     1     -14.614  48.526  -5.308  0.00  0.00    +0.000 C 
ATOM      6  C   UNL     1     -15.335  49.833  -5.696  0.00  0.00    +0.000 C 
ENDBRANCH   2   5
TORSDOF 2
ENDMDL
MODEL 7
REMARK VINA RESULT:      -2.4     20.219     20.929
REMARK  Name = 7288_3Pentanone.pdbqt.pdb
REMARK  2 active torsions:
REMARK  status: ('A' for Active; 'I' for Inactive)
REMARK    1  A    between atoms: C_2  and  C_3
REMARK    2  A    between atoms: C_2  and  C_5
REMARK                            x       y       z     vdW  Elec       q    Type
REMARK                         _______ _______ _______ _____ _____    ______ ____
ROOT
ATOM      1  O   UNL     1     -34.054  45.304  -9.634  0.00  0.00    +0.000 OA
ATOM      2  C   UNL     1     -34.405  45.895  -8.620  0.00  0.00    +0.000 C 
ENDROOT
BRANCH   2   3
ATOM      3  C   UNL     1     -35.604  46.698  -8.608  0.00  0.00    +0.000 C 
ATOM      4  C   UNL     1     -36.881  47.560  -8.619  0.00  0.00    +0.000 C 
ENDBRANCH   2   3
BRANCH   2   5
ATOM      5  C   UNL     1     -33.630  45.806  -7.405  0.00  0.00    +0.000 C 
ATOM      6  C   UNL     1     -32.793  45.732  -6.112  0.00  0.00    +0.000 C 
ENDBRANCH   2   5
TORSDOF 2
ENDMDL
MODEL 8
REMARK VINA RESULT:      -2.4      8.563     10.763
REMARK  Name = 7288_3Pentanone.pdbqt.pdb
REMARK  2 active torsions:
REMARK  status: ('A' for Active; 'I' for Inactive)
REMARK    1  A    between atoms: C_2  and  C_3
REMARK    2  A    between atoms: C_2  and  C_5
REMARK                            x       y       z     vdW  Elec       q    Type
REMARK                         _______ _______ _______ _____ _____    ______ ____
ROOT
ATOM      1  O   UNL     1     -17.718  39.542  -1.920  0.00  0.00    +0.000 OA
ATOM      2  C   UNL     1     -18.383  40.375  -2.522  0.00  0.00    +0.000 C 
ENDROOT
BRANCH   2   3
ATOM      3  C   UNL     1     -17.915  41.733  -2.668  0.00  0.00    +0.000 C 
ATOM      4  C   UNL     1     -17.433  43.190  -2.808  0.00  0.00    +0.000 C 
ENDBRANCH   2   3
BRANCH   2   5
ATOM      5  C   UNL     1     -19.657  40.026  -3.106  0.00  0.00    +0.000 C 
ATOM      6  C   UNL     1     -21.005  39.638  -3.745  0.00  0.00    +0.000 C 
ENDBRANCH   2   5
TORSDOF 2
ENDMDL
MODEL 9
REMARK VINA RESULT:      -2.4     20.929     21.582
REMARK  Name = 7288_3Pentanone.pdbqt.pdb
REMARK  2 active torsions:
REMARK  status: ('A' for Active; 'I' for Inactive)
REMARK    1  A    between atoms: C_2  and  C_3
REMARK    2  A    between atoms: C_2  and  C_5
REMARK                            x       y       z     vdW  Elec       q    Type
REMARK                         _______ _______ _______ _____ _____    ______ ____
ROOT
ATOM      1  O   UNL     1     -34.626  46.603  -7.031  0.00  0.00    +0.000 OA
ATOM      2  C   UNL     1     -35.056  46.473  -8.171  0.00  0.00    +0.000 C 
ENDROOT
BRANCH   2   3
ATOM      3  C   UNL     1     -36.277  47.124  -8.581  0.00  0.00    +0.000 C 
ATOM      4  C   UNL     1     -37.573  47.841  -9.009  0.00  0.00    +0.000 C 
ENDBRANCH   2   3
BRANCH   2   5
ATOM      5  C   UNL     1     -34.355  45.663  -9.139  0.00  0.00    +0.000 C 
ATOM      6  C   UNL     1     -33.589  44.815 -10.174  0.00  0.00    +0.000 C 
ENDBRANCH   2   5
TORSDOF 2
ENDMDL
