MODEL 1
REMARK VINA RESULT:      -6.5      0.000      0.000
REMARK  Name = 73299_Hederagenin.pdbqt.pdb
REMARK  5 active torsions:
REMARK  status: ('A' for Active; 'I' for Inactive)
REMARK    1  A    between atoms: C_9  and  C_35
REMARK    2  A    between atoms: C_14  and  C_32
REMARK    3  A    between atoms: C_17  and  O_29
REMARK    4  A    between atoms: C_32  and  O_33
REMARK    5  A    between atoms: C_35  and  O_36
REMARK                            x       y       z     vdW  Elec       q    Type
REMARK                         _______ _______ _______ _____ _____    ______ ____
ROOT
ATOM      1  C   UNL     1     -36.433  44.651  -8.948  0.00  0.00    +0.000 C 
ATOM      2  C   UNL     1     -35.145  45.256  -8.248  0.00  0.00    +0.000 C 
ATOM      3  C   UNL     1     -34.060  44.396  -7.591  0.00  0.00    +0.000 C 
ATOM      4  C   UNL     1     -37.795  45.537  -8.623  0.00  0.00    +0.000 C 
ATOM      5  C   UNL     1     -34.520  43.074  -6.910  0.00  0.00    +0.000 C 
ATOM      6  C   UNL     1     -36.553  43.285  -8.428  0.00  0.00    +0.000 C 
ATOM      7  C   UNL     1     -35.695  42.513  -7.482  0.00  0.00    +0.000 C 
ATOM      8  C   UNL     1     -37.563  47.127  -8.859  0.00  0.00    +0.000 C 
ATOM      9  C   UNL     1     -33.935  42.565  -5.582  0.00  0.00    +0.000 C 
ATOM     10  C   UNL     1     -38.538  48.037  -9.500  0.00  0.00    +0.000 C 
ATOM     11  C   UNL     1     -35.160  46.686  -8.229  0.00  0.00    +0.000 C 
ATOM     12  C   UNL     1     -33.399  45.157  -6.535  0.00  0.00    +0.000 C 
ATOM     13  C   UNL     1     -38.929  45.218  -9.510  0.00  0.00    +0.000 C 
ATOM     14  C   UNL     1     -39.603  47.543 -10.659  0.00  0.00    +0.000 C 
ATOM     15  C   UNL     1     -36.131  44.613 -10.502  0.00  0.00    +0.000 C 
ATOM     16  C   UNL     1     -39.762  46.112 -10.399  0.00  0.00    +0.000 C 
ATOM     17  C   UNL     1     -32.891  43.452  -4.853  0.00  0.00    +0.000 C 
ATOM     18  C   UNL     1     -36.361  47.527  -8.559  0.00  0.00    +0.000 C 
ATOM     19  C   UNL     1     -33.034  44.016  -8.690  0.00  0.00    +0.000 C 
ATOM     20  C   UNL     1     -32.797  44.807  -5.215  0.00  0.00    +0.000 C 
ATOM     21  C   UNL     1     -38.250  45.404  -7.106  0.00  0.00    +0.000 C 
ATOM     22  C   UNL     1     -38.953  49.230  -8.761  0.00  0.00    +0.000 C 
ATOM     23  C   UNL     1     -40.809  48.381 -10.422  0.00  0.00    +0.000 C 
ATOM     24  C   UNL     1     -40.091  50.192  -8.510  0.00  0.00    +0.000 C 
ATOM     25  C   UNL     1     -33.287  41.162  -5.823  0.00  0.00    +0.000 C 
ATOM     26  C   UNL     1     -41.059  49.590  -9.483  0.00  0.00    +0.000 C 
ATOM     27  C   UNL     1     -40.597  50.089  -7.060  0.00  0.00    +0.000 C 
ATOM     28  C   UNL     1     -39.708  51.631  -8.897  0.00  0.00    +0.000 C 
ENDROOT
BRANCH  17  29
ATOM     29  O   UNL     1     -31.874  42.889  -4.099  0.00  0.00    +0.000 OA
ATOM     30  H   UNL     1     -31.982  43.107  -3.150  0.00  0.00    +0.000 HD
ENDBRANCH  17  29
BRANCH  14  32
ATOM     31  O   UNL     1     -38.090  47.214 -12.574  0.00  0.00    +0.000 OA
ATOM     32  C   UNL     1     -38.978  47.852 -12.025  0.00  0.00    +0.000 C 
BRANCH  32  33
ATOM     33  O   UNL     1     -39.436  48.984 -12.604  0.00  0.00    +0.000 OA
ATOM     34  H   UNL     1     -40.150  48.690 -13.209  0.00  0.00    +0.000 HD
ENDBRANCH  32  33
ENDBRANCH  14  32
BRANCH   9  35
ATOM     35  C   UNL     1     -35.069  42.424  -4.614  0.00  0.00    +0.000 C 
BRANCH  35  36
ATOM     36  O   UNL     1     -36.074  42.308  -3.741  0.00  0.00    +0.000 OA
ATOM     37  H   UNL     1     -35.957  41.522  -3.175  0.00  0.00    +0.000 HD
ENDBRANCH  35  36
ENDBRANCH   9  35
TORSDOF 5
ENDMDL
MODEL 2
REMARK VINA RESULT:      -6.3      2.742      3.706
REMARK  Name = 73299_Hederagenin.pdbqt.pdb
REMARK  5 active torsions:
REMARK  status: ('A' for Active; 'I' for Inactive)
REMARK    1  A    between atoms: C_9  and  C_35
REMARK    2  A    between atoms: C_14  and  C_32
REMARK    3  A    between atoms: C_17  and  O_29
REMARK    4  A    between atoms: C_32  and  O_33
REMARK    5  A    between atoms: C_35  and  O_36
REMARK                            x       y       z     vdW  Elec       q    Type
REMARK                         _______ _______ _______ _____ _____    ______ ____
ROOT
ATOM      1  C   UNL     1     -34.607  44.268 -10.277  0.00  0.00    +0.000 C 
ATOM      2  C   UNL     1     -34.811  44.913  -8.843  0.00  0.00    +0.000 C 
ATOM      3  C   UNL     1     -34.358  44.240  -7.543  0.00  0.00    +0.000 C 
ATOM      4  C   UNL     1     -35.921  44.495 -11.258  0.00  0.00    +0.000 C 
ATOM      5  C   UNL     1     -34.419  42.686  -7.490  0.00  0.00    +0.000 C 
ATOM      6  C   UNL     1     -34.368  42.841 -10.032  0.00  0.00    +0.000 C 
ATOM      7  C   UNL     1     -34.276  42.063  -8.762  0.00  0.00    +0.000 C 
ATOM      8  C   UNL     1     -36.426  46.039 -11.261  0.00  0.00    +0.000 C 
ATOM      9  C   UNL     1     -34.864  41.904  -6.244  0.00  0.00    +0.000 C 
ATOM     10  C   UNL     1     -36.865  46.782 -12.463  0.00  0.00    +0.000 C 
ATOM     11  C   UNL     1     -35.540  46.143  -8.901  0.00  0.00    +0.000 C 
ATOM     12  C   UNL     1     -35.195  44.691  -6.435  0.00  0.00    +0.000 C 
ATOM     13  C   UNL     1     -35.649  44.218 -12.681  0.00  0.00    +0.000 C 
ATOM     14  C   UNL     1     -36.274  46.480 -13.974  0.00  0.00    +0.000 C 
ATOM     15  C   UNL     1     -33.309  44.934 -10.894  0.00  0.00    +0.000 C 
ATOM     16  C   UNL     1     -35.832  45.087 -13.903  0.00  0.00    +0.000 C 
ATOM     17  C   UNL     1     -35.345  42.708  -5.006  0.00  0.00    +0.000 C 
ATOM     18  C   UNL     1     -36.278  46.635 -10.113  0.00  0.00    +0.000 C 
ATOM     19  C   UNL     1     -32.884  44.652  -7.292  0.00  0.00    +0.000 C 
ATOM     20  C   UNL     1     -35.705  44.055  -5.185  0.00  0.00    +0.000 C 
ATOM     21  C   UNL     1     -37.180  43.647 -10.782  0.00  0.00    +0.000 C 
ATOM     22  C   UNL     1     -38.189  47.403 -12.441  0.00  0.00    +0.000 C 
ATOM     23  C   UNL     1     -37.428  46.748 -14.873  0.00  0.00    +0.000 C 
ATOM     24  C   UNL     1     -39.383  47.793 -13.282  0.00  0.00    +0.000 C 
ATOM     25  C   UNL     1     -33.690  40.977  -5.786  0.00  0.00    +0.000 C 
ATOM     26  C   UNL     1     -38.829  47.354 -14.603  0.00  0.00    +0.000 C 
ATOM     27  C   UNL     1     -40.631  46.982 -12.886  0.00  0.00    +0.000 C 
ATOM     28  C   UNL     1     -39.631  49.311 -13.238  0.00  0.00    +0.000 C 
ENDROOT
BRANCH  17  29
ATOM     29  O   UNL     1     -35.140  42.235  -3.721  0.00  0.00    +0.000 OA
ATOM     30  H   UNL     1     -35.875  41.650  -3.443  0.00  0.00    +0.000 HD
ENDBRANCH  17  29
BRANCH  14  32
ATOM     31  O   UNL     1     -35.251  48.611 -14.666  0.00  0.00    +0.000 OA
ATOM     32  C   UNL     1     -35.134  47.473 -14.231  0.00  0.00    +0.000 C 
BRANCH  32  33
ATOM     33  O   UNL     1     -33.898  46.974 -14.005  0.00  0.00    +0.000 OA
ATOM     34  H   UNL     1     -33.536  46.775 -14.895  0.00  0.00    +0.000 HD
ENDBRANCH  32  33
ENDBRANCH  14  32
BRANCH   9  35
ATOM     35  C   UNL     1     -36.036  41.057  -6.636  0.00  0.00    +0.000 C 
BRANCH  35  36
ATOM     36  O   UNL     1     -37.073  40.290  -6.982  0.00  0.00    +0.000 OA
ATOM     37  H   UNL     1     -37.066  39.448  -6.490  0.00  0.00    +0.000 HD
ENDBRANCH  35  36
ENDBRANCH   9  35
TORSDOF 5
ENDMDL
MODEL 3
REMARK VINA RESULT:      -6.2      2.068      3.161
REMARK  Name = 73299_Hederagenin.pdbqt.pdb
REMARK  5 active torsions:
REMARK  status: ('A' for Active; 'I' for Inactive)
REMARK    1  A    between atoms: C_9  and  C_35
REMARK    2  A    between atoms: C_14  and  C_32
REMARK    3  A    between atoms: C_17  and  O_29
REMARK    4  A    between atoms: C_32  and  O_33
REMARK    5  A    between atoms: C_35  and  O_36
REMARK                            x       y       z     vdW  Elec       q    Type
REMARK                         _______ _______ _______ _____ _____    ______ ____
ROOT
ATOM      1  C   UNL     1     -38.392  45.865  -8.431  0.00  0.00    +0.000 C 
ATOM      2  C   UNL     1     -36.980  46.543  -8.679  0.00  0.00    +0.000 C 
ATOM      3  C   UNL     1     -35.689  45.747  -8.903  0.00  0.00    +0.000 C 
ATOM      4  C   UNL     1     -39.271  46.658  -7.273  0.00  0.00    +0.000 C 
ATOM      5  C   UNL     1     -35.554  44.391  -8.152  0.00  0.00    +0.000 C 
ATOM      6  C   UNL     1     -38.095  44.488  -8.021  0.00  0.00    +0.000 C 
ATOM      7  C   UNL     1     -36.800  43.762  -7.874  0.00  0.00    +0.000 C 
ATOM      8  C   UNL     1     -39.310  48.262  -7.523  0.00  0.00    +0.000 C 
ATOM      9  C   UNL     1     -34.237  43.906  -7.523  0.00  0.00    +0.000 C 
ATOM     10  C   UNL     1     -40.507  49.114  -7.354  0.00  0.00    +0.000 C 
ATOM     11  C   UNL     1     -37.040  47.969  -8.584  0.00  0.00    +0.000 C 
ATOM     12  C   UNL     1     -34.540  46.537  -8.472  0.00  0.00    +0.000 C 
ATOM     13  C   UNL     1     -40.696  46.277  -7.253  0.00  0.00    +0.000 C 
ATOM     14  C   UNL     1     -42.045  48.566  -7.596  0.00  0.00    +0.000 C 
ATOM     15  C   UNL     1     -39.146  45.864  -9.823  0.00  0.00    +0.000 C 
ATOM     16  C   UNL     1     -41.941  47.125  -7.366  0.00  0.00    +0.000 C 
ATOM     17  C   UNL     1     -33.006  44.850  -7.580  0.00  0.00    +0.000 C 
ATOM     18  C   UNL     1     -38.210  48.735  -8.035  0.00  0.00    +0.000 C 
ATOM     19  C   UNL     1     -35.582  45.446 -10.420  0.00  0.00    +0.000 C 
ATOM     20  C   UNL     1     -33.222  46.212  -7.852  0.00  0.00    +0.000 C 
ATOM     21  C   UNL     1     -38.651  46.479  -5.820  0.00  0.00    +0.000 C 
ATOM     22  C   UNL     1     -40.408  50.270  -6.463  0.00  0.00    +0.000 C 
ATOM     23  C   UNL     1     -42.858  49.323  -6.607  0.00  0.00    +0.000 C 
ATOM     24  C   UNL     1     -41.165  51.155  -5.499  0.00  0.00    +0.000 C 
ATOM     25  C   UNL     1     -33.832  42.550  -8.190  0.00  0.00    +0.000 C 
ATOM     26  C   UNL     1     -42.504  50.502  -5.665  0.00  0.00    +0.000 C 
ATOM     27  C   UNL     1     -40.627  51.003  -4.064  0.00  0.00    +0.000 C 
ATOM     28  C   UNL     1     -41.177  52.620  -5.970  0.00  0.00    +0.000 C 
ENDROOT
BRANCH  17  29
ATOM     29  O   UNL     1     -31.720  44.345  -7.672  0.00  0.00    +0.000 OA
ATOM     30  H   UNL     1     -31.595  43.862  -8.515  0.00  0.00    +0.000 HD
ENDBRANCH  17  29
BRANCH  14  32
ATOM     31  O   UNL     1     -42.094  48.348 -10.049  0.00  0.00    +0.000 OA
ATOM     32  C   UNL     1     -42.445  48.930  -9.031  0.00  0.00    +0.000 C 
BRANCH  32  33
ATOM     33  O   UNL     1     -43.203  50.044  -9.133  0.00  0.00    +0.000 OA
ATOM     34  H   UNL     1     -42.857  50.517  -9.920  0.00  0.00    +0.000 HD
ENDBRANCH  32  33
ENDBRANCH  14  32
BRANCH   9  35
ATOM     35  C   UNL     1     -34.488  43.682  -6.064  0.00  0.00    +0.000 C 
BRANCH  35  36
ATOM     36  O   UNL     1     -34.727  43.484  -4.765  0.00  0.00    +0.000 OA
ATOM     37  H   UNL     1     -34.034  42.929  -4.361  0.00  0.00    +0.000 HD
ENDBRANCH  35  36
ENDBRANCH   9  35
TORSDOF 5
ENDMDL
MODEL 4
REMARK VINA RESULT:      -6.2      8.213     10.700
REMARK  Name = 73299_Hederagenin.pdbqt.pdb
REMARK  5 active torsions:
REMARK  status: ('A' for Active; 'I' for Inactive)
REMARK    1  A    between atoms: C_9  and  C_35
REMARK    2  A    between atoms: C_14  and  C_32
REMARK    3  A    between atoms: C_17  and  O_29
REMARK    4  A    between atoms: C_32  and  O_33
REMARK    5  A    between atoms: C_35  and  O_36
REMARK                            x       y       z     vdW  Elec       q    Type
REMARK                         _______ _______ _______ _____ _____    ______ ____
ROOT
ATOM      1  C   UNL     1     -32.558  44.328 -17.668  0.00  0.00    +0.000 C 
ATOM      2  C   UNL     1     -31.033  44.013 -17.370  0.00  0.00    +0.000 C 
ATOM      3  C   UNL     1     -30.088  43.371 -18.392  0.00  0.00    +0.000 C 
ATOM      4  C   UNL     1     -33.532  43.987 -16.373  0.00  0.00    +0.000 C 
ATOM      5  C   UNL     1     -30.708  42.339 -19.378  0.00  0.00    +0.000 C 
ATOM      6  C   UNL     1     -32.907  43.497 -18.826  0.00  0.00    +0.000 C 
ATOM      7  C   UNL     1     -32.087  42.559 -19.648  0.00  0.00    +0.000 C 
ATOM      8  C   UNL     1     -32.955  44.614 -14.990  0.00  0.00    +0.000 C 
ATOM      9  C   UNL     1     -29.989  41.048 -19.806  0.00  0.00    +0.000 C 
ATOM     10  C   UNL     1     -33.779  45.271 -13.952  0.00  0.00    +0.000 C 
ATOM     11  C   UNL     1     -30.671  44.317 -16.020  0.00  0.00    +0.000 C 
ATOM     12  C   UNL     1     -29.029  42.644 -17.697  0.00  0.00    +0.000 C 
ATOM     13  C   UNL     1     -34.881  44.572 -16.481  0.00  0.00    +0.000 C 
ATOM     14  C   UNL     1     -35.172  46.089 -14.292  0.00  0.00    +0.000 C 
ATOM     15  C   UNL     1     -32.638  45.860 -18.059  0.00  0.00    +0.000 C 
ATOM     16  C   UNL     1     -35.633  45.487 -15.543  0.00  0.00    +0.000 C 
ATOM     17  C   UNL     1     -28.612  40.728 -19.164  0.00  0.00    +0.000 C 
ATOM     18  C   UNL     1     -31.655  44.622 -14.926  0.00  0.00    +0.000 C 
ATOM     19  C   UNL     1     -29.474  44.511 -19.244  0.00  0.00    +0.000 C 
ATOM     20  C   UNL     1     -28.255  41.400 -17.982  0.00  0.00    +0.000 C 
ATOM     21  C   UNL     1     -33.648  42.424 -16.103  0.00  0.00    +0.000 C 
ATOM     22  C   UNL     1     -33.691  44.765 -12.582  0.00  0.00    +0.000 C 
ATOM     23  C   UNL     1     -36.032  45.849 -13.102  0.00  0.00    +0.000 C 
ATOM     24  C   UNL     1     -34.452  44.550 -11.294  0.00  0.00    +0.000 C 
ATOM     25  C   UNL     1     -29.800  41.070 -21.358  0.00  0.00    +0.000 C 
ATOM     26  C   UNL     1     -35.738  45.181 -11.733  0.00  0.00    +0.000 C 
ATOM     27  C   UNL     1     -34.624  43.050 -10.992  0.00  0.00    +0.000 C 
ATOM     28  C   UNL     1     -33.807  45.315 -10.125  0.00  0.00    +0.000 C 
ENDROOT
BRANCH  17  29
ATOM     29  O   UNL     1     -27.633  40.050 -19.870  0.00  0.00    +0.000 OA
ATOM     30  H   UNL     1     -27.362  39.236 -19.396  0.00  0.00    +0.000 HD
ENDBRANCH  17  29
BRANCH  14  32
ATOM     31  O   UNL     1     -35.553  48.520 -14.174  0.00  0.00    +0.000 OA
ATOM     32  C   UNL     1     -34.815  47.575 -14.422  0.00  0.00    +0.000 C 
BRANCH  32  33
ATOM     33  O   UNL     1     -33.583  47.811 -14.924  0.00  0.00    +0.000 OA
ATOM     34  H   UNL     1     -32.975  47.270 -14.375  0.00  0.00    +0.000 HD
ENDBRANCH  32  33
ENDBRANCH  14  32
BRANCH   9  35
ATOM     35  C   UNL     1     -30.869  39.895 -19.432  0.00  0.00    +0.000 C 
BRANCH  35  36
ATOM     36  O   UNL     1     -31.663  38.876 -19.091  0.00  0.00    +0.000 OA
ATOM     37  H   UNL     1     -31.446  38.547 -18.199  0.00  0.00    +0.000 HD
ENDBRANCH  35  36
ENDBRANCH   9  35
TORSDOF 5
ENDMDL
MODEL 5
REMARK VINA RESULT:      -6.1      6.985      9.699
REMARK  Name = 73299_Hederagenin.pdbqt.pdb
REMARK  5 active torsions:
REMARK  status: ('A' for Active; 'I' for Inactive)
REMARK    1  A    between atoms: C_9  and  C_35
REMARK    2  A    between atoms: C_14  and  C_32
REMARK    3  A    between atoms: C_17  and  O_29
REMARK    4  A    between atoms: C_32  and  O_33
REMARK    5  A    between atoms: C_35  and  O_36
REMARK                            x       y       z     vdW  Elec       q    Type
REMARK                         _______ _______ _______ _____ _____    ______ ____
ROOT
ATOM      1  C   UNL     1     -33.381  45.097 -15.211  0.00  0.00    +0.000 C 
ATOM      2  C   UNL     1     -33.524  43.771 -16.069  0.00  0.00    +0.000 C 
ATOM      3  C   UNL     1     -32.378  42.777 -16.283  0.00  0.00    +0.000 C 
ATOM      4  C   UNL     1     -34.165  46.379 -15.907  0.00  0.00    +0.000 C 
ATOM      5  C   UNL     1     -30.938  43.362 -16.361  0.00  0.00    +0.000 C 
ATOM      6  C   UNL     1     -31.938  45.345 -15.117  0.00  0.00    +0.000 C 
ATOM      7  C   UNL     1     -30.771  44.574 -15.634  0.00  0.00    +0.000 C 
ATOM      8  C   UNL     1     -35.682  46.004 -16.352  0.00  0.00    +0.000 C 
ATOM      9  C   UNL     1     -29.872  42.845 -17.342  0.00  0.00    +0.000 C 
ATOM     10  C   UNL     1     -36.856  46.885 -16.171  0.00  0.00    +0.000 C 
ATOM     11  C   UNL     1     -34.811  43.660 -16.684  0.00  0.00    +0.000 C 
ATOM     12  C   UNL     1     -32.568  42.067 -17.544  0.00  0.00    +0.000 C 
ATOM     13  C   UNL     1     -34.345  47.524 -14.995  0.00  0.00    +0.000 C 
ATOM     14  C   UNL     1     -36.986  47.972 -14.936  0.00  0.00    +0.000 C 
ATOM     15  C   UNL     1     -33.969  44.775 -13.777  0.00  0.00    +0.000 C 
ATOM     16  C   UNL     1     -35.597  48.261 -14.579  0.00  0.00    +0.000 C 
ATOM     17  C   UNL     1     -30.279  41.738 -18.350  0.00  0.00    +0.000 C 
ATOM     18  C   UNL     1     -35.813  44.776 -16.763  0.00  0.00    +0.000 C 
ATOM     19  C   UNL     1     -32.404  41.772 -15.103  0.00  0.00    +0.000 C 
ATOM     20  C   UNL     1     -31.648  41.519 -18.584  0.00  0.00    +0.000 C 
ATOM     21  C   UNL     1     -33.450  46.868 -17.241  0.00  0.00    +0.000 C 
ATOM     22  C   UNL     1     -37.663  47.204 -17.349  0.00  0.00    +0.000 C 
ATOM     23  C   UNL     1     -37.750  49.103 -15.529  0.00  0.00    +0.000 C 
ATOM     24  C   UNL     1     -38.527  48.257 -18.005  0.00  0.00    +0.000 C 
ATOM     25  C   UNL     1     -28.648  42.320 -16.522  0.00  0.00    +0.000 C 
ATOM     26  C   UNL     1     -38.473  49.259 -16.892  0.00  0.00    +0.000 C 
ATOM     27  C   UNL     1     -37.872  48.792 -19.291  0.00  0.00    +0.000 C 
ATOM     28  C   UNL     1     -39.958  47.742 -18.245  0.00  0.00    +0.000 C 
ENDROOT
BRANCH  17  29
ATOM     29  O   UNL     1     -29.368  40.786 -18.776  0.00  0.00    +0.000 OA
ATOM     30  H   UNL     1     -28.856  40.431 -18.020  0.00  0.00    +0.000 HD
ENDBRANCH  17  29
BRANCH  14  32
ATOM     31  O   UNL     1     -38.982  47.421 -13.602  0.00  0.00    +0.000 OA
ATOM     32  C   UNL     1     -37.782  47.301 -13.810  0.00  0.00    +0.000 C 
BRANCH  32  33
ATOM     33  O   UNL     1     -37.031  46.572 -12.955  0.00  0.00    +0.000 OA
ATOM     34  H   UNL     1     -36.650  45.851 -13.500  0.00  0.00    +0.000 HD
ENDBRANCH  32  33
ENDBRANCH  14  32
BRANCH   9  35
ATOM     35  C   UNL     1     -29.439  44.002 -18.189  0.00  0.00    +0.000 C 
BRANCH  35  36
ATOM     36  O   UNL     1     -29.062  45.042 -18.937  0.00  0.00    +0.000 OA
ATOM     37  H   UNL     1     -29.425  44.976 -19.839  0.00  0.00    +0.000 HD
ENDBRANCH  35  36
ENDBRANCH   9  35
TORSDOF 5
ENDMDL
MODEL 6
REMARK VINA RESULT:      -6.0     22.492     25.941
REMARK  Name = 73299_Hederagenin.pdbqt.pdb
REMARK  5 active torsions:
REMARK  status: ('A' for Active; 'I' for Inactive)
REMARK    1  A    between atoms: C_9  and  C_35
REMARK    2  A    between atoms: C_14  and  C_32
REMARK    3  A    between atoms: C_17  and  O_29
REMARK    4  A    between atoms: C_32  and  O_33
REMARK    5  A    between atoms: C_35  and  O_36
REMARK                            x       y       z     vdW  Elec       q    Type
REMARK                         _______ _______ _______ _____ _____    ______ ____
ROOT
ATOM      1  C   UNL     1     -16.109  50.897   2.804  0.00  0.00    +0.000 C 
ATOM      2  C   UNL     1     -16.640  51.723   4.049  0.00  0.00    +0.000 C 
ATOM      3  C   UNL     1     -16.720  53.253   4.075  0.00  0.00    +0.000 C 
ATOM      4  C   UNL     1     -15.165  49.615   3.260  0.00  0.00    +0.000 C 
ATOM      5  C   UNL     1     -15.624  54.033   3.291  0.00  0.00    +0.000 C 
ATOM      6  C   UNL     1     -15.345  51.857   1.998  0.00  0.00    +0.000 C 
ATOM      7  C   UNL     1     -15.090  53.315   2.184  0.00  0.00    +0.000 C 
ATOM      8  C   UNL     1     -15.859  48.729   4.432  0.00  0.00    +0.000 C 
ATOM      9  C   UNL     1     -14.979  55.328   3.811  0.00  0.00    +0.000 C 
ATOM     10  C   UNL     1     -15.856  47.251   4.486  0.00  0.00    +0.000 C 
ATOM     11  C   UNL     1     -16.952  50.882   5.163  0.00  0.00    +0.000 C 
ATOM     12  C   UNL     1     -16.614  53.730   5.450  0.00  0.00    +0.000 C 
ATOM     13  C   UNL     1     -14.935  48.639   2.179  0.00  0.00    +0.000 C 
ATOM     14  C   UNL     1     -15.820  46.299   3.138  0.00  0.00    +0.000 C 
ATOM     15  C   UNL     1     -17.384  50.413   2.001  0.00  0.00    +0.000 C 
ATOM     16  C   UNL     1     -15.196  47.152   2.126  0.00  0.00    +0.000 C 
ATOM     17  C   UNL     1     -15.390  55.838   5.218  0.00  0.00    +0.000 C 
ATOM     18  C   UNL     1     -16.562  49.435   5.270  0.00  0.00    +0.000 C 
ATOM     19  C   UNL     1     -18.091  53.661   3.478  0.00  0.00    +0.000 C 
ATOM     20  C   UNL     1     -16.024  54.940   6.095  0.00  0.00    +0.000 C 
ATOM     21  C   UNL     1     -13.770  50.081   3.864  0.00  0.00    +0.000 C 
ATOM     22  C   UNL     1     -15.340  46.609   5.696  0.00  0.00    +0.000 C 
ATOM     23  C   UNL     1     -15.033  45.109   3.557  0.00  0.00    +0.000 C 
ATOM     24  C   UNL     1     -14.618  45.398   6.239  0.00  0.00    +0.000 C 
ATOM     25  C   UNL     1     -15.258  56.475   2.785  0.00  0.00    +0.000 C 
ATOM     26  C   UNL     1     -14.494  44.661   4.940  0.00  0.00    +0.000 C 
ATOM     27  C   UNL     1     -13.242  45.781   6.813  0.00  0.00    +0.000 C 
ATOM     28  C   UNL     1     -15.485  44.632   7.254  0.00  0.00    +0.000 C 
ENDROOT
BRANCH  17  29
ATOM     29  O   UNL     1     -15.426  57.192   5.507  0.00  0.00    +0.000 OA
ATOM     30  H   UNL     1     -15.804  57.699   4.758  0.00  0.00    +0.000 HD
ENDBRANCH  17  29
BRANCH  14  32
ATOM     31  O   UNL     1     -17.863  46.167   1.768  0.00  0.00    +0.000 OA
ATOM     32  C   UNL     1     -17.267  45.913   2.807  0.00  0.00    +0.000 C 
BRANCH  32  33
ATOM     33  O   UNL     1     -17.923  45.295   3.813  0.00  0.00    +0.000 OA
ATOM     34  H   UNL     1     -17.439  45.549   4.628  0.00  0.00    +0.000 HD
ENDBRANCH  32  33
ENDBRANCH  14  32
BRANCH   9  35
ATOM     35  C   UNL     1     -13.502  55.094   3.899  0.00  0.00    +0.000 C 
BRANCH  35  36
ATOM     36  O   UNL     1     -12.183  54.895   3.967  0.00  0.00    +0.000 OA
ATOM     37  H   UNL     1     -11.882  54.846   4.893  0.00  0.00    +0.000 HD
ENDBRANCH  35  36
ENDBRANCH   9  35
TORSDOF 5
ENDMDL
MODEL 7
REMARK VINA RESULT:      -6.0      4.609      8.687
REMARK  Name = 73299_Hederagenin.pdbqt.pdb
REMARK  5 active torsions:
REMARK  status: ('A' for Active; 'I' for Inactive)
REMARK    1  A    between atoms: C_9  and  C_35
REMARK    2  A    between atoms: C_14  and  C_32
REMARK    3  A    between atoms: C_17  and  O_29
REMARK    4  A    between atoms: C_32  and  O_33
REMARK    5  A    between atoms: C_35  and  O_36
REMARK                            x       y       z     vdW  Elec       q    Type
REMARK                         _______ _______ _______ _____ _____    ______ ____
ROOT
ATOM      1  C   UNL     1     -35.814  44.220 -13.643  0.00  0.00    +0.000 C 
ATOM      2  C   UNL     1     -35.732  45.766 -13.989  0.00  0.00    +0.000 C 
ATOM      3  C   UNL     1     -35.575  46.305 -15.415  0.00  0.00    +0.000 C 
ATOM      4  C   UNL     1     -34.965  43.840 -12.274  0.00  0.00    +0.000 C 
ATOM      5  C   UNL     1     -34.738  45.447 -16.408  0.00  0.00    +0.000 C 
ATOM      6  C   UNL     1     -35.265  43.531 -14.816  0.00  0.00    +0.000 C 
ATOM      7  C   UNL     1     -34.752  44.055 -16.116  0.00  0.00    +0.000 C 
ATOM      8  C   UNL     1     -35.307  44.842 -11.041  0.00  0.00    +0.000 C 
ATOM      9  C   UNL     1     -33.768  46.056 -17.434  0.00  0.00    +0.000 C 
ATOM     10  C   UNL     1     -35.497  44.418  -9.637  0.00  0.00    +0.000 C 
ATOM     11  C   UNL     1     -35.736  46.584 -12.815  0.00  0.00    +0.000 C 
ATOM     12  C   UNL     1     -34.910  47.604 -15.381  0.00  0.00    +0.000 C 
ATOM     13  C   UNL     1     -35.286  42.506 -11.733  0.00  0.00    +0.000 C 
ATOM     14  C   UNL     1     -36.091  42.937  -9.215  0.00  0.00    +0.000 C 
ATOM     15  C   UNL     1     -37.350  43.872 -13.482  0.00  0.00    +0.000 C 
ATOM     16  C   UNL     1     -35.761  42.090 -10.360  0.00  0.00    +0.000 C 
ATOM     17  C   UNL     1     -33.563  47.595 -17.426  0.00  0.00    +0.000 C 
ATOM     18  C   UNL     1     -35.548  46.065 -11.418  0.00  0.00    +0.000 C 
ATOM     19  C   UNL     1     -36.995  46.455 -16.018  0.00  0.00    +0.000 C 
ATOM     20  C   UNL     1     -33.958  48.315 -16.284  0.00  0.00    +0.000 C 
ATOM     21  C   UNL     1     -33.394  43.965 -12.486  0.00  0.00    +0.000 C 
ATOM     22  C   UNL     1     -34.676  45.059  -8.609  0.00  0.00    +0.000 C 
ATOM     23  C   UNL     1     -35.386  42.614  -7.945  0.00  0.00    +0.000 C 
ATOM     24  C   UNL     1     -33.989  44.861  -7.278  0.00  0.00    +0.000 C 
ATOM     25  C   UNL     1     -34.233  45.643 -18.870  0.00  0.00    +0.000 C 
ATOM     26  C   UNL     1     -34.452  43.457  -7.038  0.00  0.00    +0.000 C 
ATOM     27  C   UNL     1     -32.458  44.942  -7.424  0.00  0.00    +0.000 C 
ATOM     28  C   UNL     1     -34.529  45.834  -6.215  0.00  0.00    +0.000 C 
ENDROOT
BRANCH  17  29
ATOM     29  O   UNL     1     -33.296  48.288 -18.595  0.00  0.00    +0.000 OA
ATOM     30  H   UNL     1     -32.575  47.857 -19.099  0.00  0.00    +0.000 HD
ENDBRANCH  17  29
BRANCH  14  32
ATOM     31  O   UNL     1     -38.476  42.989  -9.830  0.00  0.00    +0.000 OA
ATOM     32  C   UNL     1     -37.599  43.094  -8.982  0.00  0.00    +0.000 C 
BRANCH  32  33
ATOM     33  O   UNL     1     -37.934  43.446  -7.721  0.00  0.00    +0.000 OA
ATOM     34  H   UNL     1     -38.890  43.663  -7.763  0.00  0.00    +0.000 HD
ENDBRANCH  32  33
ENDBRANCH  14  32
BRANCH   9  35
ATOM     35  C   UNL     1     -32.411  45.482 -17.170  0.00  0.00    +0.000 C 
BRANCH  35  36
ATOM     36  O   UNL     1     -31.204  44.956 -16.942  0.00  0.00    +0.000 OA
ATOM     37  H   UNL     1     -31.271  44.013 -16.706  0.00  0.00    +0.000 HD
ENDBRANCH  35  36
ENDBRANCH   9  35
TORSDOF 5
ENDMDL
MODEL 8
REMARK VINA RESULT:      -6.0      8.592     13.634
REMARK  Name = 73299_Hederagenin.pdbqt.pdb
REMARK  5 active torsions:
REMARK  status: ('A' for Active; 'I' for Inactive)
REMARK    1  A    between atoms: C_9  and  C_35
REMARK    2  A    between atoms: C_14  and  C_32
REMARK    3  A    between atoms: C_17  and  O_29
REMARK    4  A    between atoms: C_32  and  O_33
REMARK    5  A    between atoms: C_35  and  O_36
REMARK                            x       y       z     vdW  Elec       q    Type
REMARK                         _______ _______ _______ _____ _____    ______ ____
ROOT
ATOM      1  C   UNL     1     -36.294  47.847 -18.661  0.00  0.00    +0.000 C 
ATOM      2  C   UNL     1     -35.349  48.742 -19.567  0.00  0.00    +0.000 C 
ATOM      3  C   UNL     1     -35.852  49.555 -20.765  0.00  0.00    +0.000 C 
ATOM      4  C   UNL     1     -35.582  46.411 -18.244  0.00  0.00    +0.000 C 
ATOM      5  C   UNL     1     -37.035  48.957 -21.580  0.00  0.00    +0.000 C 
ATOM      6  C   UNL     1     -37.504  47.626 -19.461  0.00  0.00    +0.000 C 
ATOM      7  C   UNL     1     -37.891  48.116 -20.816  0.00  0.00    +0.000 C 
ATOM      8  C   UNL     1     -34.073  46.615 -17.678  0.00  0.00    +0.000 C 
ATOM      9  C   UNL     1     -37.124  49.035 -23.114  0.00  0.00    +0.000 C 
ATOM     10  C   UNL     1     -33.502  45.896 -16.519  0.00  0.00    +0.000 C 
ATOM     11  C   UNL     1     -33.973  48.633 -19.189  0.00  0.00    +0.000 C 
ATOM     12  C   UNL     1     -34.773  49.728 -21.733  0.00  0.00    +0.000 C 
ATOM     13  C   UNL     1     -36.271  45.710 -17.145  0.00  0.00    +0.000 C 
ATOM     14  C   UNL     1     -34.412  45.371 -15.246  0.00  0.00    +0.000 C 
ATOM     15  C   UNL     1     -36.643  48.708 -17.379  0.00  0.00    +0.000 C 
ATOM     16  C   UNL     1     -35.750  45.215 -15.816  0.00  0.00    +0.000 C 
ATOM     17  C   UNL     1     -35.940  49.676 -23.885  0.00  0.00    +0.000 C 
ATOM     18  C   UNL     1     -33.431  47.593 -18.251  0.00  0.00    +0.000 C 
ATOM     19  C   UNL     1     -36.310  50.938 -20.234  0.00  0.00    +0.000 C 
ATOM     20  C   UNL     1     -34.708  49.815 -23.221  0.00  0.00    +0.000 C 
ATOM     21  C   UNL     1     -35.429  45.432 -19.488  0.00  0.00    +0.000 C 
ATOM     22  C   UNL     1     -32.250  45.163 -16.714  0.00  0.00    +0.000 C 
ATOM     23  C   UNL     1     -33.741  44.115 -14.816  0.00  0.00    +0.000 C 
ATOM     24  C   UNL     1     -31.447  43.956 -16.286  0.00  0.00    +0.000 C 
ATOM     25  C   UNL     1     -38.425  49.812 -23.502  0.00  0.00    +0.000 C 
ATOM     26  C   UNL     1     -32.403  43.459 -15.245  0.00  0.00    +0.000 C 
ATOM     27  C   UNL     1     -31.290  42.954 -17.444  0.00  0.00    +0.000 C 
ATOM     28  C   UNL     1     -30.095  44.367 -15.677  0.00  0.00    +0.000 C 
ENDROOT
BRANCH  17  29
ATOM     29  O   UNL     1     -36.146  50.372 -25.065  0.00  0.00    +0.000 OA
ATOM     30  H   UNL     1     -35.492  50.107 -25.745  0.00  0.00    +0.000 HD
ENDBRANCH  17  29
BRANCH  14  32
ATOM     31  O   UNL     1     -34.765  47.583 -14.221  0.00  0.00    +0.000 OA
ATOM     32  C   UNL     1     -34.333  46.440 -14.149  0.00  0.00    +0.000 C 
BRANCH  32  33
ATOM     33  O   UNL     1     -33.655  46.056 -13.045  0.00  0.00    +0.000 OA
ATOM     34  H   UNL     1     -32.757  46.439 -13.150  0.00  0.00    +0.000 HD
ENDBRANCH  32  33
ENDBRANCH  14  32
BRANCH   9  35
ATOM     35  C   UNL     1     -37.213  47.633 -23.633  0.00  0.00    +0.000 C 
BRANCH  35  36
ATOM     36  O   UNL     1     -37.304  46.387 -24.105  0.00  0.00    +0.000 OA
ATOM     37  H   UNL     1     -37.523  46.386 -25.055  0.00  0.00    +0.000 HD
ENDBRANCH  35  36
ENDBRANCH   9  35
TORSDOF 5
ENDMDL
MODEL 9
REMARK VINA RESULT:      -5.9      4.295      7.061
REMARK  Name = 73299_Hederagenin.pdbqt.pdb
REMARK  5 active torsions:
REMARK  status: ('A' for Active; 'I' for Inactive)
REMARK    1  A    between atoms: C_9  and  C_35
REMARK    2  A    between atoms: C_14  and  C_32
REMARK    3  A    between atoms: C_17  and  O_29
REMARK    4  A    between atoms: C_32  and  O_33
REMARK    5  A    between atoms: C_35  and  O_36
REMARK                            x       y       z     vdW  Elec       q    Type
REMARK                         _______ _______ _______ _____ _____    ______ ____
ROOT
ATOM      1  C   UNL     1     -35.468  44.693 -11.325  0.00  0.00    +0.000 C 
ATOM      2  C   UNL     1     -35.375  43.180 -10.859  0.00  0.00    +0.000 C 
ATOM      3  C   UNL     1     -35.649  42.721  -9.423  0.00  0.00    +0.000 C 
ATOM      4  C   UNL     1     -34.252  45.101 -12.372  0.00  0.00    +0.000 C 
ATOM      5  C   UNL     1     -35.261  43.702  -8.279  0.00  0.00    +0.000 C 
ATOM      6  C   UNL     1     -35.395  45.485 -10.092  0.00  0.00    +0.000 C 
ATOM      7  C   UNL     1     -35.295  45.072  -8.662  0.00  0.00    +0.000 C 
ATOM      8  C   UNL     1     -34.084  44.018 -13.571  0.00  0.00    +0.000 C 
ATOM      9  C   UNL     1     -34.634  43.240  -6.953  0.00  0.00    +0.000 C 
ATOM     10  C   UNL     1     -33.838  44.360 -14.989  0.00  0.00    +0.000 C 
ATOM     11  C   UNL     1     -34.924  42.317 -11.908  0.00  0.00    +0.000 C 
ATOM     12  C   UNL     1     -34.903  41.497  -9.144  0.00  0.00    +0.000 C 
ATOM     13  C   UNL     1     -34.489  46.371 -13.084  0.00  0.00    +0.000 C 
ATOM     14  C   UNL     1     -34.383  45.752 -15.688  0.00  0.00    +0.000 C 
ATOM     15  C   UNL     1     -36.889  44.873 -11.999  0.00  0.00    +0.000 C 
ATOM     16  C   UNL     1     -34.519  46.677 -14.563  0.00  0.00    +0.000 C 
ATOM     17  C   UNL     1     -34.309  41.732  -6.781  0.00  0.00    +0.000 C 
ATOM     18  C   UNL     1     -34.332  42.794 -13.203  0.00  0.00    +0.000 C 
ATOM     19  C   UNL     1     -37.171  42.450  -9.301  0.00  0.00    +0.000 C 
ATOM     20  C   UNL     1     -34.245  40.928  -7.932  0.00  0.00    +0.000 C 
ATOM     21  C   UNL     1     -32.833  45.149 -11.655  0.00  0.00    +0.000 C 
ATOM     22  C   UNL     1     -32.674  43.765 -15.646  0.00  0.00    +0.000 C 
ATOM     23  C   UNL     1     -33.330  46.093 -16.682  0.00  0.00    +0.000 C 
ATOM     24  C   UNL     1     -31.607  43.977 -16.696  0.00  0.00    +0.000 C 
ATOM     25  C   UNL     1     -35.577  43.663  -5.778  0.00  0.00    +0.000 C 
ATOM     26  C   UNL     1     -32.083  45.315 -17.175  0.00  0.00    +0.000 C 
ATOM     27  C   UNL     1     -30.208  44.062 -16.058  0.00  0.00    +0.000 C 
ATOM     28  C   UNL     1     -31.684  42.909 -17.801  0.00  0.00    +0.000 C 
ENDROOT
BRANCH  17  29
ATOM     29  O   UNL     1     -34.382  41.120  -5.541  0.00  0.00    +0.000 OA
ATOM     30  H   UNL     1     -33.816  40.321  -5.512  0.00  0.00    +0.000 HD
ENDBRANCH  17  29
BRANCH  14  32
ATOM     31  O   UNL     1     -36.759  45.120 -15.831  0.00  0.00    +0.000 OA
ATOM     32  C   UNL     1     -35.712  45.431 -16.383  0.00  0.00    +0.000 C 
BRANCH  32  33
ATOM     33  O   UNL     1     -35.651  45.441 -17.733  0.00  0.00    +0.000 OA
ATOM     34  H   UNL     1     -34.965  46.106 -17.953  0.00  0.00    +0.000 HD
ENDBRANCH  32  33
ENDBRANCH  14  32
BRANCH   9  35
ATOM     35  C   UNL     1     -33.319  43.941  -6.806  0.00  0.00    +0.000 C 
BRANCH  35  36
ATOM     36  O   UNL     1     -32.143  44.564  -6.690  0.00  0.00    +0.000 OA
ATOM     37  H   UNL     1     -32.222  45.508  -6.924  0.00  0.00    +0.000 HD
ENDBRANCH  35  36
ENDBRANCH   9  35
TORSDOF 5
ENDMDL
