MODEL 1
REMARK VINA RESULT:      -7.0      0.000      0.000
REMARK  Name = 73659_MaslinicAcid.pdbqt.pdb
REMARK  4 active torsions:
REMARK  status: ('A' for Active; 'I' for Inactive)
REMARK    1  A    between atoms: C_14  and  C_35
REMARK    2  A    between atoms: C_17  and  O_30
REMARK    3  A    between atoms: C_19  and  O_32
REMARK    4  A    between atoms: C_35  and  O_36
REMARK                            x       y       z     vdW  Elec       q    Type
REMARK                         _______ _______ _______ _____ _____    ______ ____
ROOT
ATOM      1  C   UNL     1     -35.821  44.511 -12.797  0.00  0.00    +0.000 C 
ATOM      2  C   UNL     1     -36.476  45.952 -12.927  0.00  0.00    +0.000 C 
ATOM      3  C   UNL     1     -36.758  46.633 -14.270  0.00  0.00    +0.000 C 
ATOM      4  C   UNL     1     -34.732  44.428 -11.554  0.00  0.00    +0.000 C 
ATOM      5  C   UNL     1     -35.797  46.334 -15.427  0.00  0.00    +0.000 C 
ATOM      6  C   UNL     1     -35.176  44.265 -14.092  0.00  0.00    +0.000 C 
ATOM      7  C   UNL     1     -35.135  45.079 -15.343  0.00  0.00    +0.000 C 
ATOM      8  C   UNL     1     -35.331  45.039 -10.173  0.00  0.00    +0.000 C 
ATOM      9  C   UNL     1     -35.502  47.404 -16.467  0.00  0.00    +0.000 C 
ATOM     10  C   UNL     1     -35.161  44.431  -8.836  0.00  0.00    +0.000 C 
ATOM     11  C   UNL     1     -36.696  46.563 -11.652  0.00  0.00    +0.000 C 
ATOM     12  C   UNL     1     -36.684  48.077 -14.118  0.00  0.00    +0.000 C 
ATOM     13  C   UNL     1     -34.360  43.048 -11.191  0.00  0.00    +0.000 C 
ATOM     14  C   UNL     1     -34.992  42.805  -8.599  0.00  0.00    +0.000 C 
ATOM     15  C   UNL     1     -37.013  43.491 -12.590  0.00  0.00    +0.000 C 
ATOM     16  C   UNL     1     -34.444  42.323  -9.867  0.00  0.00    +0.000 C 
ATOM     17  C   UNL     1     -35.829  48.880 -16.128  0.00  0.00    +0.000 C 
ATOM     18  C   UNL     1     -38.178  46.214 -14.718  0.00  0.00    +0.000 C 
ATOM     19  C   UNL     1     -36.309  49.212 -14.829  0.00  0.00    +0.000 C 
ATOM     20  C   UNL     1     -36.130  46.052 -10.359  0.00  0.00    +0.000 C 
ATOM     21  C   UNL     1     -33.422  45.277 -11.850  0.00  0.00    +0.000 C 
ATOM     22  C   UNL     1     -34.606  45.261  -7.768  0.00  0.00    +0.000 C 
ATOM     23  C   UNL     1     -34.089  42.705  -7.422  0.00  0.00    +0.000 C 
ATOM     24  C   UNL     1     -33.769  45.256  -6.508  0.00  0.00    +0.000 C 
ATOM     25  C   UNL     1     -33.959  47.409 -16.751  0.00  0.00    +0.000 C 
ATOM     26  C   UNL     1     -36.243  47.054 -17.789  0.00  0.00    +0.000 C 
ATOM     27  C   UNL     1     -33.536  43.777  -6.448  0.00  0.00    +0.000 C 
ATOM     28  C   UNL     1     -34.572  45.761  -5.296  0.00  0.00    +0.000 C 
ATOM     29  C   UNL     1     -32.456  46.034  -6.710  0.00  0.00    +0.000 C 
ENDROOT
BRANCH  17  30
ATOM     30  O   UNL     1     -35.705  49.927 -17.039  0.00  0.00    +0.000 OA
ATOM     31  H   UNL     1     -35.135  50.640 -16.682  0.00  0.00    +0.000 HD
ENDBRANCH  17  30
BRANCH  19  32
ATOM     32  O   UNL     1     -36.779  50.461 -14.557  0.00  0.00    +0.000 OA
ATOM     33  H   UNL     1     -37.604  50.420 -14.035  0.00  0.00    +0.000 HD
ENDBRANCH  19  32
BRANCH  14  35
ATOM     34  O   UNL     1     -37.403  42.416  -8.927  0.00  0.00    +0.000 OA
ATOM     35  C   UNL     1     -36.380  42.236  -8.280  0.00  0.00    +0.000 C 
BRANCH  35  36
ATOM     36  O   UNL     1     -36.439  41.531  -7.128  0.00  0.00    +0.000 OA
ATOM     37  H   UNL     1     -37.396  41.371  -6.975  0.00  0.00    +0.000 HD
ENDBRANCH  35  36
ENDBRANCH  14  35
TORSDOF 4
ENDMDL
MODEL 2
REMARK VINA RESULT:      -6.7      4.680      6.984
REMARK  Name = 73659_MaslinicAcid.pdbqt.pdb
REMARK  4 active torsions:
REMARK  status: ('A' for Active; 'I' for Inactive)
REMARK    1  A    between atoms: C_14  and  C_35
REMARK    2  A    between atoms: C_17  and  O_30
REMARK    3  A    between atoms: C_19  and  O_32
REMARK    4  A    between atoms: C_35  and  O_36
REMARK                            x       y       z     vdW  Elec       q    Type
REMARK                         _______ _______ _______ _____ _____    ______ ____
ROOT
ATOM      1  C   UNL     1     -35.776  46.032 -17.268  0.00  0.00    +0.000 C 
ATOM      2  C   UNL     1     -35.129  47.419 -17.694  0.00  0.00    +0.000 C 
ATOM      3  C   UNL     1     -35.906  48.527 -18.412  0.00  0.00    +0.000 C 
ATOM      4  C   UNL     1     -34.747  44.760 -17.515  0.00  0.00    +0.000 C 
ATOM      5  C   UNL     1     -37.023  48.098 -19.370  0.00  0.00    +0.000 C 
ATOM      6  C   UNL     1     -36.987  45.907 -18.087  0.00  0.00    +0.000 C 
ATOM      7  C   UNL     1     -37.609  46.837 -19.076  0.00  0.00    +0.000 C 
ATOM      8  C   UNL     1     -33.266  45.044 -16.909  0.00  0.00    +0.000 C 
ATOM      9  C   UNL     1     -37.324  48.927 -20.609  0.00  0.00    +0.000 C 
ATOM     10  C   UNL     1     -32.457  44.060 -16.157  0.00  0.00    +0.000 C 
ATOM     11  C   UNL     1     -33.730  47.476 -17.400  0.00  0.00    +0.000 C 
ATOM     12  C   UNL     1     -35.004  49.301 -19.250  0.00  0.00    +0.000 C 
ATOM     13  C   UNL     1     -35.169  43.523 -16.832  0.00  0.00    +0.000 C 
ATOM     14  C   UNL     1     -33.122  42.862 -15.236  0.00  0.00    +0.000 C 
ATOM     15  C   UNL     1     -36.171  46.168 -15.742  0.00  0.00    +0.000 C 
ATOM     16  C   UNL     1     -34.439  42.651 -15.836  0.00  0.00    +0.000 C 
ATOM     17  C   UNL     1     -36.255  49.933 -21.108  0.00  0.00    +0.000 C 
ATOM     18  C   UNL     1     -36.538  49.432 -17.328  0.00  0.00    +0.000 C 
ATOM     19  C   UNL     1     -34.990  49.993 -20.456  0.00  0.00    +0.000 C 
ATOM     20  C   UNL     1     -32.898  46.290 -17.004  0.00  0.00    +0.000 C 
ATOM     21  C   UNL     1     -34.515  44.469 -19.060  0.00  0.00    +0.000 C 
ATOM     22  C   UNL     1     -31.100  43.784 -16.624  0.00  0.00    +0.000 C 
ATOM     23  C   UNL     1     -32.162  41.734 -15.364  0.00  0.00    +0.000 C 
ATOM     24  C   UNL     1     -30.020  42.730 -16.730  0.00  0.00    +0.000 C 
ATOM     25  C   UNL     1     -37.529  47.953 -21.822  0.00  0.00    +0.000 C 
ATOM     26  C   UNL     1     -38.643  49.721 -20.388  0.00  0.00    +0.000 C 
ATOM     27  C   UNL     1     -30.755  41.642 -16.008  0.00  0.00    +0.000 C 
ATOM     28  C   UNL     1     -28.743  43.155 -15.983  0.00  0.00    +0.000 C 
ATOM     29  C   UNL     1     -29.747  42.359 -18.199  0.00  0.00    +0.000 C 
ENDROOT
BRANCH  17  30
ATOM     30  O   UNL     1     -36.463  50.820 -22.161  0.00  0.00    +0.000 OA
ATOM     31  H   UNL     1     -37.418  51.006 -22.284  0.00  0.00    +0.000 HD
ENDBRANCH  17  30
BRANCH  19  32
ATOM     32  O   UNL     1     -34.103  50.985 -20.746  0.00  0.00    +0.000 OA
ATOM     33  H   UNL     1     -34.307  51.398 -21.607  0.00  0.00    +0.000 HD
ENDBRANCH  19  32
BRANCH  14  35
ATOM     34  O   UNL     1     -32.830  44.471 -13.392  0.00  0.00    +0.000 OA
ATOM     35  C   UNL     1     -33.186  43.370 -13.790  0.00  0.00    +0.000 C 
BRANCH  35  36
ATOM     36  O   UNL     1     -33.621  42.452 -12.898  0.00  0.00    +0.000 OA
ATOM     37  H   UNL     1     -34.497  42.162 -13.237  0.00  0.00    +0.000 HD
ENDBRANCH  35  36
ENDBRANCH  14  35
TORSDOF 4
ENDMDL
MODEL 3
REMARK VINA RESULT:      -6.6      3.156      4.426
REMARK  Name = 73659_MaslinicAcid.pdbqt.pdb
REMARK  4 active torsions:
REMARK  status: ('A' for Active; 'I' for Inactive)
REMARK    1  A    between atoms: C_14  and  C_35
REMARK    2  A    between atoms: C_17  and  O_30
REMARK    3  A    between atoms: C_19  and  O_32
REMARK    4  A    between atoms: C_35  and  O_36
REMARK                            x       y       z     vdW  Elec       q    Type
REMARK                         _______ _______ _______ _____ _____    ______ ____
ROOT
ATOM      1  C   UNL     1     -35.272  45.184 -12.929  0.00  0.00    +0.000 C 
ATOM      2  C   UNL     1     -33.765  45.090 -13.424  0.00  0.00    +0.000 C 
ATOM      3  C   UNL     1     -33.369  44.921 -14.894  0.00  0.00    +0.000 C 
ATOM      4  C   UNL     1     -35.520  44.355 -11.519  0.00  0.00    +0.000 C 
ATOM      5  C   UNL     1     -34.318  44.119 -15.792  0.00  0.00    +0.000 C 
ATOM      6  C   UNL     1     -36.071  44.625 -14.026  0.00  0.00    +0.000 C 
ATOM      7  C   UNL     1     -35.676  44.117 -15.373  0.00  0.00    +0.000 C 
ATOM      8  C   UNL     1     -34.403  44.713 -10.395  0.00  0.00    +0.000 C 
ATOM      9  C   UNL     1     -33.761  43.284 -16.935  0.00  0.00    +0.000 C 
ATOM     10  C   UNL     1     -34.689  44.946  -8.962  0.00  0.00    +0.000 C 
ATOM     11  C   UNL     1     -32.837  45.103 -12.336  0.00  0.00    +0.000 C 
ATOM     12  C   UNL     1     -32.108  44.203 -14.988  0.00  0.00    +0.000 C 
ATOM     13  C   UNL     1     -36.795  44.690 -10.858  0.00  0.00    +0.000 C 
ATOM     14  C   UNL     1     -36.120  45.563  -8.418  0.00  0.00    +0.000 C 
ATOM     15  C   UNL     1     -35.596  46.723 -12.760  0.00  0.00    +0.000 C 
ATOM     16  C   UNL     1     -37.077  45.201  -9.464  0.00  0.00    +0.000 C 
ATOM     17  C   UNL     1     -32.254  42.921 -16.924  0.00  0.00    +0.000 C 
ATOM     18  C   UNL     1     -33.227  46.336 -15.505  0.00  0.00    +0.000 C 
ATOM     19  C   UNL     1     -31.450  43.294 -15.809  0.00  0.00    +0.000 C 
ATOM     20  C   UNL     1     -33.220  44.939 -10.893  0.00  0.00    +0.000 C 
ATOM     21  C   UNL     1     -35.417  42.783 -11.723  0.00  0.00    +0.000 C 
ATOM     22  C   UNL     1     -33.954  44.156  -7.976  0.00  0.00    +0.000 C 
ATOM     23  C   UNL     1     -36.319  44.902  -7.100  0.00  0.00    +0.000 C 
ATOM     24  C   UNL     1     -34.021  43.517  -6.607  0.00  0.00    +0.000 C 
ATOM     25  C   UNL     1     -34.490  41.895 -16.938  0.00  0.00    +0.000 C 
ATOM     26  C   UNL     1     -34.058  43.998 -18.285  0.00  0.00    +0.000 C 
ATOM     27  C   UNL     1     -35.395  43.995  -6.248  0.00  0.00    +0.000 C 
ATOM     28  C   UNL     1     -32.948  44.090  -5.664  0.00  0.00    +0.000 C 
ATOM     29  C   UNL     1     -33.958  41.982  -6.707  0.00  0.00    +0.000 C 
ENDROOT
BRANCH  17  30
ATOM     30  O   UNL     1     -31.612  42.259 -17.968  0.00  0.00    +0.000 OA
ATOM     31  H   UNL     1     -30.650  42.182 -17.799  0.00  0.00    +0.000 HD
ENDBRANCH  17  30
BRANCH  19  32
ATOM     32  O   UNL     1     -30.096  43.157 -15.848  0.00  0.00    +0.000 OA
ATOM     33  H   UNL     1     -29.718  43.142 -14.947  0.00  0.00    +0.000 HD
ENDBRANCH  19  32
BRANCH  14  35
ATOM     34  O   UNL     1     -36.759  47.939  -8.547  0.00  0.00    +0.000 OA
ATOM     35  C   UNL     1     -35.941  47.077  -8.254  0.00  0.00    +0.000 C 
BRANCH  35  36
ATOM     36  O   UNL     1     -34.722  47.445  -7.800  0.00  0.00    +0.000 OA
ATOM     37  H   UNL     1     -34.116  47.310  -8.560  0.00  0.00    +0.000 HD
ENDBRANCH  35  36
ENDBRANCH  14  35
TORSDOF 4
ENDMDL
MODEL 4
REMARK VINA RESULT:      -6.6     21.092     23.781
REMARK  Name = 73659_MaslinicAcid.pdbqt.pdb
REMARK  4 active torsions:
REMARK  status: ('A' for Active; 'I' for Inactive)
REMARK    1  A    between atoms: C_14  and  C_35
REMARK    2  A    between atoms: C_17  and  O_30
REMARK    3  A    between atoms: C_19  and  O_32
REMARK    4  A    between atoms: C_35  and  O_36
REMARK                            x       y       z     vdW  Elec       q    Type
REMARK                         _______ _______ _______ _____ _____    ______ ____
ROOT
ATOM      1  C   UNL     1     -30.022  66.558 -19.682  0.00  0.00    +0.000 C 
ATOM      2  C   UNL     1     -29.454  65.394 -18.762  0.00  0.00    +0.000 C 
ATOM      3  C   UNL     1     -28.633  65.646 -17.494  0.00  0.00    +0.000 C 
ATOM      4  C   UNL     1     -29.899  66.200 -21.293  0.00  0.00    +0.000 C 
ATOM      5  C   UNL     1     -27.730  66.884 -17.474  0.00  0.00    +0.000 C 
ATOM      6  C   UNL     1     -29.227  67.742 -19.336  0.00  0.00    +0.000 C 
ATOM      7  C   UNL     1     -28.153  67.945 -18.319  0.00  0.00    +0.000 C 
ATOM      8  C   UNL     1     -30.464  64.715 -21.634  0.00  0.00    +0.000 C 
ATOM      9  C   UNL     1     -26.415  66.855 -16.709  0.00  0.00    +0.000 C 
ATOM     10  C   UNL     1     -31.307  64.379 -22.802  0.00  0.00    +0.000 C 
ATOM     11  C   UNL     1     -29.733  64.097 -19.298  0.00  0.00    +0.000 C 
ATOM     12  C   UNL     1     -27.716  64.540 -17.271  0.00  0.00    +0.000 C 
ATOM     13  C   UNL     1     -30.705  67.084 -22.154  0.00  0.00    +0.000 C 
ATOM     14  C   UNL     1     -32.349  65.453 -23.501  0.00  0.00    +0.000 C 
ATOM     15  C   UNL     1     -31.529  66.779 -19.253  0.00  0.00    +0.000 C 
ATOM     16  C   UNL     1     -31.781  66.758 -23.166  0.00  0.00    +0.000 C 
ATOM     17  C   UNL     1     -25.811  65.481 -16.321  0.00  0.00    +0.000 C 
ATOM     18  C   UNL     1     -29.624  65.767 -16.312  0.00  0.00    +0.000 C 
ATOM     19  C   UNL     1     -26.446  64.286 -16.765  0.00  0.00    +0.000 C 
ATOM     20  C   UNL     1     -30.242  63.846 -20.689  0.00  0.00    +0.000 C 
ATOM     21  C   UNL     1     -28.390  66.195 -21.791  0.00  0.00    +0.000 C 
ATOM     22  C   UNL     1     -30.862  63.302 -23.685  0.00  0.00    +0.000 C 
ATOM     23  C   UNL     1     -32.329  65.087 -24.943  0.00  0.00    +0.000 C 
ATOM     24  C   UNL     1     -30.857  62.796 -25.110  0.00  0.00    +0.000 C 
ATOM     25  C   UNL     1     -25.308  67.523 -17.598  0.00  0.00    +0.000 C 
ATOM     26  C   UNL     1     -26.562  67.684 -15.402  0.00  0.00    +0.000 C 
ATOM     27  C   UNL     1     -31.689  63.894 -25.699  0.00  0.00    +0.000 C 
ATOM     28  C   UNL     1     -31.550  61.426 -25.224  0.00  0.00    +0.000 C 
ATOM     29  C   UNL     1     -29.431  62.784 -25.691  0.00  0.00    +0.000 C 
ENDROOT
BRANCH  17  30
ATOM     30  O   UNL     1     -24.675  65.334 -15.529  0.00  0.00    +0.000 OA
ATOM     31  H   UNL     1     -24.897  65.397 -14.577  0.00  0.00    +0.000 HD
ENDBRANCH  17  30
BRANCH  19  32
ATOM     32  O   UNL     1     -26.052  63.071 -16.292  0.00  0.00    +0.000 OA
ATOM     33  H   UNL     1     -26.756  62.403 -16.409  0.00  0.00    +0.000 HD
ENDBRANCH  19  32
BRANCH  14  35
ATOM     34  O   UNL     1     -34.486  64.282 -23.136  0.00  0.00    +0.000 OA
ATOM     35  C   UNL     1     -33.736  65.218 -22.892  0.00  0.00    +0.000 C 
BRANCH  35  36
ATOM     36  O   UNL     1     -34.152  66.201 -22.062  0.00  0.00    +0.000 OA
ATOM     37  H   UNL     1     -35.100  66.334 -22.280  0.00  0.00    +0.000 HD
ENDBRANCH  35  36
ENDBRANCH  14  35
TORSDOF 4
ENDMDL
MODEL 5
REMARK VINA RESULT:      -6.6      5.210      8.646
REMARK  Name = 73659_MaslinicAcid.pdbqt.pdb
REMARK  4 active torsions:
REMARK  status: ('A' for Active; 'I' for Inactive)
REMARK    1  A    between atoms: C_14  and  C_35
REMARK    2  A    between atoms: C_17  and  O_30
REMARK    3  A    between atoms: C_19  and  O_32
REMARK    4  A    between atoms: C_35  and  O_36
REMARK                            x       y       z     vdW  Elec       q    Type
REMARK                         _______ _______ _______ _____ _____    ______ ____
ROOT
ATOM      1  C   UNL     1     -36.516  48.135 -19.369  0.00  0.00    +0.000 C 
ATOM      2  C   UNL     1     -35.509  48.856 -20.364  0.00  0.00    +0.000 C 
ATOM      3  C   UNL     1     -35.955  49.589 -21.632  0.00  0.00    +0.000 C 
ATOM      4  C   UNL     1     -35.920  46.697 -18.808  0.00  0.00    +0.000 C 
ATOM      5  C   UNL     1     -37.191  49.048 -22.360  0.00  0.00    +0.000 C 
ATOM      6  C   UNL     1     -37.746  47.939 -20.145  0.00  0.00    +0.000 C 
ATOM      7  C   UNL     1     -38.109  48.344 -21.535  0.00  0.00    +0.000 C 
ATOM      8  C   UNL     1     -34.396  46.836 -18.263  0.00  0.00    +0.000 C 
ATOM      9  C   UNL     1     -37.289  49.153 -23.875  0.00  0.00    +0.000 C 
ATOM     10  C   UNL     1     -33.880  46.213 -17.024  0.00  0.00    +0.000 C 
ATOM     11  C   UNL     1     -34.143  48.672 -19.978  0.00  0.00    +0.000 C 
ATOM     12  C   UNL     1     -34.904  49.529 -22.635  0.00  0.00    +0.000 C 
ATOM     13  C   UNL     1     -36.658  46.170 -17.645  0.00  0.00    +0.000 C 
ATOM     14  C   UNL     1     -34.827  45.909 -15.707  0.00  0.00    +0.000 C 
ATOM     15  C   UNL     1     -36.784  49.150 -18.185  0.00  0.00    +0.000 C 
ATOM     16  C   UNL     1     -36.174  45.786 -16.265  0.00  0.00    +0.000 C 
ATOM     17  C   UNL     1     -35.995  49.413 -24.687  0.00  0.00    +0.000 C 
ATOM     18  C   UNL     1     -36.243  51.059 -21.245  0.00  0.00    +0.000 C 
ATOM     19  C   UNL     1     -34.740  49.454 -24.014  0.00  0.00    +0.000 C 
ATOM     20  C   UNL     1     -33.681  47.693 -18.937  0.00  0.00    +0.000 C 
ATOM     21  C   UNL     1     -35.855  45.592 -19.948  0.00  0.00    +0.000 C 
ATOM     22  C   UNL     1     -32.687  45.373 -17.122  0.00  0.00    +0.000 C 
ATOM     23  C   UNL     1     -34.250  44.667 -15.127  0.00  0.00    +0.000 C 
ATOM     24  C   UNL     1     -31.973  44.171 -16.546  0.00  0.00    +0.000 C 
ATOM     25  C   UNL     1     -37.826  47.790 -24.434  0.00  0.00    +0.000 C 
ATOM     26  C   UNL     1     -38.304  50.272 -24.247  0.00  0.00    +0.000 C 
ATOM     27  C   UNL     1     -32.963  43.870 -15.463  0.00  0.00    +0.000 C 
ATOM     28  C   UNL     1     -30.595  44.554 -15.976  0.00  0.00    +0.000 C 
ATOM     29  C   UNL     1     -31.887  43.030 -17.576  0.00  0.00    +0.000 C 
ENDROOT
BRANCH  17  30
ATOM     30  O   UNL     1     -35.979  49.636 -26.062  0.00  0.00    +0.000 OA
ATOM     31  H   UNL     1     -36.382  50.501 -26.284  0.00  0.00    +0.000 HD
ENDBRANCH  17  30
BRANCH  19  32
ATOM     32  O   UNL     1     -33.614  49.861 -24.662  0.00  0.00    +0.000 OA
ATOM     33  H   UNL     1     -33.360  50.765 -24.393  0.00  0.00    +0.000 HD
ENDBRANCH  19  32
BRANCH  14  35
ATOM     34  O   UNL     1     -35.068  48.234 -14.928  0.00  0.00    +0.000 OA
ATOM     35  C   UNL     1     -34.674  47.091 -14.742  0.00  0.00    +0.000 C 
BRANCH  35  36
ATOM     36  O   UNL     1     -33.969  46.806 -13.623  0.00  0.00    +0.000 OA
ATOM     37  H   UNL     1     -34.602  46.937 -12.884  0.00  0.00    +0.000 HD
ENDBRANCH  35  36
ENDBRANCH  14  35
TORSDOF 4
ENDMDL
MODEL 6
REMARK VINA RESULT:      -6.6     24.025     25.941
REMARK  Name = 73659_MaslinicAcid.pdbqt.pdb
REMARK  4 active torsions:
REMARK  status: ('A' for Active; 'I' for Inactive)
REMARK    1  A    between atoms: C_14  and  C_35
REMARK    2  A    between atoms: C_17  and  O_30
REMARK    3  A    between atoms: C_19  and  O_32
REMARK    4  A    between atoms: C_35  and  O_36
REMARK                            x       y       z     vdW  Elec       q    Type
REMARK                         _______ _______ _______ _____ _____    ______ ____
ROOT
ATOM      1  C   UNL     1     -14.560  46.140   4.361  0.00  0.00    +0.000 C 
ATOM      2  C   UNL     1     -15.630  46.883   3.451  0.00  0.00    +0.000 C 
ATOM      3  C   UNL     1     -15.269  47.992   2.459  0.00  0.00    +0.000 C 
ATOM      4  C   UNL     1     -15.126  45.861   5.891  0.00  0.00    +0.000 C 
ATOM      5  C   UNL     1     -14.092  48.906   2.821  0.00  0.00    +0.000 C 
ATOM      6  C   UNL     1     -13.390  47.025   4.377  0.00  0.00    +0.000 C 
ATOM      7  C   UNL     1     -13.124  48.319   3.680  0.00  0.00    +0.000 C 
ATOM      8  C   UNL     1     -16.606  45.191   5.883  0.00  0.00    +0.000 C 
ATOM      9  C   UNL     1     -14.101  50.365   2.392  0.00  0.00    +0.000 C 
ATOM     10  C   UNL     1     -17.038  44.082   6.762  0.00  0.00    +0.000 C 
ATOM     11  C   UNL     1     -16.966  46.449   3.724  0.00  0.00    +0.000 C 
ATOM     12  C   UNL     1     -16.389  48.907   2.310  0.00  0.00    +0.000 C 
ATOM     13  C   UNL     1     -14.312  44.894   6.650  0.00  0.00    +0.000 C 
ATOM     14  C   UNL     1     -16.002  42.932   7.336  0.00  0.00    +0.000 C 
ATOM     15  C   UNL     1     -14.200  44.788   3.622  0.00  0.00    +0.000 C 
ATOM     16  C   UNL     1     -14.700  43.598   7.325  0.00  0.00    +0.000 C 
ATOM     17  C   UNL     1     -15.448  51.008   1.974  0.00  0.00    +0.000 C 
ATOM     18  C   UNL     1     -14.942  47.320   1.105  0.00  0.00    +0.000 C 
ATOM     19  C   UNL     1     -16.651  50.255   2.088  0.00  0.00    +0.000 C 
ATOM     20  C   UNL     1     -17.360  45.613   4.907  0.00  0.00    +0.000 C 
ATOM     21  C   UNL     1     -15.281  47.204   6.726  0.00  0.00    +0.000 C 
ATOM     22  C   UNL     1     -18.242  44.273   7.570  0.00  0.00    +0.000 C 
ATOM     23  C   UNL     1     -16.547  42.593   8.677  0.00  0.00    +0.000 C 
ATOM     24  C   UNL     1     -18.923  43.920   8.873  0.00  0.00    +0.000 C 
ATOM     25  C   UNL     1     -13.616  51.241   3.600  0.00  0.00    +0.000 C 
ATOM     26  C   UNL     1     -13.106  50.560   1.213  0.00  0.00    +0.000 C 
ATOM     27  C   UNL     1     -17.861  42.999   9.393  0.00  0.00    +0.000 C 
ATOM     28  C   UNL     1     -20.254  43.185   8.632  0.00  0.00    +0.000 C 
ATOM     29  C   UNL     1     -19.091  45.162   9.767  0.00  0.00    +0.000 C 
ENDROOT
BRANCH  17  30
ATOM     30  O   UNL     1     -15.560  52.298   1.460  0.00  0.00    +0.000 OA
ATOM     31  H   UNL     1     -15.251  52.336   0.531  0.00  0.00    +0.000 HD
ENDBRANCH  17  30
BRANCH  19  32
ATOM     32  O   UNL     1     -17.817  50.719   1.560  0.00  0.00    +0.000 OA
ATOM     33  H   UNL     1     -17.778  51.684   1.417  0.00  0.00    +0.000 HD
ENDBRANCH  19  32
BRANCH  14  35
ATOM     34  O   UNL     1     -16.265  40.562   6.714  0.00  0.00    +0.000 OA
ATOM     35  C   UNL     1     -16.078  41.727   6.390  0.00  0.00    +0.000 C 
BRANCH  35  36
ATOM     36  O   UNL     1     -15.842  42.024   5.092  0.00  0.00    +0.000 OA
ATOM     37  H   UNL     1     -16.641  42.512   4.794  0.00  0.00    +0.000 HD
ENDBRANCH  35  36
ENDBRANCH  14  35
TORSDOF 4
ENDMDL
MODEL 7
REMARK VINA RESULT:      -6.5      3.889      8.385
REMARK  Name = 73659_MaslinicAcid.pdbqt.pdb
REMARK  4 active torsions:
REMARK  status: ('A' for Active; 'I' for Inactive)
REMARK    1  A    between atoms: C_14  and  C_35
REMARK    2  A    between atoms: C_17  and  O_30
REMARK    3  A    between atoms: C_19  and  O_32
REMARK    4  A    between atoms: C_35  and  O_36
REMARK                            x       y       z     vdW  Elec       q    Type
REMARK                         _______ _______ _______ _____ _____    ______ ____
ROOT
ATOM      1  C   UNL     1     -37.243  45.662  -9.889  0.00  0.00    +0.000 C 
ATOM      2  C   UNL     1     -36.017  46.034  -8.949  0.00  0.00    +0.000 C 
ATOM      3  C   UNL     1     -34.927  45.036  -8.549  0.00  0.00    +0.000 C 
ATOM      4  C   UNL     1     -38.655  46.359  -9.381  0.00  0.00    +0.000 C 
ATOM      5  C   UNL     1     -35.339  43.567  -8.399  0.00  0.00    +0.000 C 
ATOM      6  C   UNL     1     -37.324  44.198  -9.850  0.00  0.00    +0.000 C 
ATOM      7  C   UNL     1     -36.465  43.181  -9.174  0.00  0.00    +0.000 C 
ATOM      8  C   UNL     1     -38.480  47.945  -9.074  0.00  0.00    +0.000 C 
ATOM      9  C   UNL     1     -34.652  42.685  -7.366  0.00  0.00    +0.000 C 
ATOM     10  C   UNL     1     -39.447  48.994  -9.465  0.00  0.00    +0.000 C 
ATOM     11  C   UNL     1     -36.096  47.378  -8.464  0.00  0.00    +0.000 C 
ATOM     12  C   UNL     1     -34.392  45.384  -7.242  0.00  0.00    +0.000 C 
ATOM     13  C   UNL     1     -39.726  46.318 -10.393  0.00  0.00    +0.000 C 
ATOM     14  C   UNL     1     -40.417  48.875 -10.795  0.00  0.00    +0.000 C 
ATOM     15  C   UNL     1     -36.854  46.140 -11.347  0.00  0.00    +0.000 C 
ATOM     16  C   UNL     1     -40.541  47.433 -11.009  0.00  0.00    +0.000 C 
ATOM     17  C   UNL     1     -33.864  43.363  -6.217  0.00  0.00    +0.000 C 
ATOM     18  C   UNL     1     -33.813  45.105  -9.620  0.00  0.00    +0.000 C 
ATOM     19  C   UNL     1     -33.876  44.783  -6.100  0.00  0.00    +0.000 C 
ATOM     20  C   UNL     1     -37.313  48.251  -8.581  0.00  0.00    +0.000 C 
ATOM     21  C   UNL     1     -39.178  45.727  -8.020  0.00  0.00    +0.000 C 
ATOM     22  C   UNL     1     -39.951  49.888  -8.423  0.00  0.00    +0.000 C 
ATOM     23  C   UNL     1     -41.664  49.581 -10.396  0.00  0.00    +0.000 C 
ATOM     24  C   UNL     1     -41.136  50.710  -7.968  0.00  0.00    +0.000 C 
ATOM     25  C   UNL     1     -35.747  41.836  -6.631  0.00  0.00    +0.000 C 
ATOM     26  C   UNL     1     -33.677  41.712  -8.088  0.00  0.00    +0.000 C 
ATOM     27  C   UNL     1     -42.017  50.430  -9.147  0.00  0.00    +0.000 C 
ATOM     28  C   UNL     1     -40.778  52.203  -7.860  0.00  0.00    +0.000 C 
ATOM     29  C   UNL     1     -41.732  50.151  -6.663  0.00  0.00    +0.000 C 
ENDROOT
BRANCH  17  30
ATOM     30  O   UNL     1     -33.107  42.661  -5.282  0.00  0.00    +0.000 OA
ATOM     31  H   UNL     1     -32.474  43.253  -4.823  0.00  0.00    +0.000 HD
ENDBRANCH  17  30
BRANCH  19  32
ATOM     32  O   UNL     1     -33.050  45.417  -5.221  0.00  0.00    +0.000 OA
ATOM     33  H   UNL     1     -32.156  45.529  -5.598  0.00  0.00    +0.000 HD
ENDBRANCH  19  32
BRANCH  14  35
ATOM     34  O   UNL     1     -38.929  49.111 -12.745  0.00  0.00    +0.000 OA
ATOM     35  C   UNL     1     -39.716  49.604 -11.948  0.00  0.00    +0.000 C 
BRANCH  35  36
ATOM     36  O   UNL     1     -39.975  50.930 -12.005  0.00  0.00    +0.000 OA
ATOM     37  H   UNL     1     -40.947  50.994 -12.134  0.00  0.00    +0.000 HD
ENDBRANCH  35  36
ENDBRANCH  14  35
TORSDOF 4
ENDMDL
MODEL 8
REMARK VINA RESULT:      -6.5      5.312      8.187
REMARK  Name = 73659_MaslinicAcid.pdbqt.pdb
REMARK  4 active torsions:
REMARK  status: ('A' for Active; 'I' for Inactive)
REMARK    1  A    between atoms: C_14  and  C_35
REMARK    2  A    between atoms: C_17  and  O_30
REMARK    3  A    between atoms: C_19  and  O_32
REMARK    4  A    between atoms: C_35  and  O_36
REMARK                            x       y       z     vdW  Elec       q    Type
REMARK                         _______ _______ _______ _____ _____    ______ ____
ROOT
ATOM      1  C   UNL     1     -38.377  45.857  -8.528  0.00  0.00    +0.000 C 
ATOM      2  C   UNL     1     -36.955  46.531  -8.752  0.00  0.00    +0.000 C 
ATOM      3  C   UNL     1     -35.679  45.733  -9.039  0.00  0.00    +0.000 C 
ATOM      4  C   UNL     1     -39.237  46.595  -7.322  0.00  0.00    +0.000 C 
ATOM      5  C   UNL     1     -35.561  44.342  -8.407  0.00  0.00    +0.000 C 
ATOM      6  C   UNL     1     -38.089  44.456  -8.200  0.00  0.00    +0.000 C 
ATOM      7  C   UNL     1     -36.801  43.705  -8.131  0.00  0.00    +0.000 C 
ATOM      8  C   UNL     1     -39.259  48.211  -7.488  0.00  0.00    +0.000 C 
ATOM      9  C   UNL     1     -34.199  43.810  -7.987  0.00  0.00    +0.000 C 
ATOM     10  C   UNL     1     -40.450  49.065  -7.286  0.00  0.00    +0.000 C 
ATOM     11  C   UNL     1     -36.996  47.950  -8.576  0.00  0.00    +0.000 C 
ATOM     12  C   UNL     1     -34.522  46.450  -8.528  0.00  0.00    +0.000 C 
ATOM     13  C   UNL     1     -40.665  46.228  -7.311  0.00  0.00    +0.000 C 
ATOM     14  C   UNL     1     -41.992  48.541  -7.557  0.00  0.00    +0.000 C 
ATOM     15  C   UNL     1     -39.137  45.939  -9.914  0.00  0.00    +0.000 C 
ATOM     16  C   UNL     1     -41.903  47.091  -7.385  0.00  0.00    +0.000 C 
ATOM     17  C   UNL     1     -33.030  44.812  -7.815  0.00  0.00    +0.000 C 
ATOM     18  C   UNL     1     -35.570  45.564 -10.573  0.00  0.00    +0.000 C 
ATOM     19  C   UNL     1     -33.275  46.208  -7.961  0.00  0.00    +0.000 C 
ATOM     20  C   UNL     1     -38.155  48.697  -7.979  0.00  0.00    +0.000 C 
ATOM     21  C   UNL     1     -38.603  46.332  -5.889  0.00  0.00    +0.000 C 
ATOM     22  C   UNL     1     -40.344  50.183  -6.349  0.00  0.00    +0.000 C 
ATOM     23  C   UNL     1     -42.803  49.267  -6.543  0.00  0.00    +0.000 C 
ATOM     24  C   UNL     1     -41.100  51.038  -5.356  0.00  0.00    +0.000 C 
ATOM     25  C   UNL     1     -34.340  43.139  -6.576  0.00  0.00    +0.000 C 
ATOM     26  C   UNL     1     -33.737  42.726  -9.003  0.00  0.00    +0.000 C 
ATOM     27  C   UNL     1     -42.443  50.405  -5.553  0.00  0.00    +0.000 C 
ATOM     28  C   UNL     1     -41.096  52.520  -5.772  0.00  0.00    +0.000 C 
ATOM     29  C   UNL     1     -40.572  50.826  -3.925  0.00  0.00    +0.000 C 
ENDROOT
BRANCH  17  30
ATOM     30  O   UNL     1     -31.719  44.430  -7.544  0.00  0.00    +0.000 OA
ATOM     31  H   UNL     1     -31.446  44.715  -6.647  0.00  0.00    +0.000 HD
ENDBRANCH  17  30
BRANCH  19  32
ATOM     32  O   UNL     1     -32.245  47.097  -8.000  0.00  0.00    +0.000 OA
ATOM     33  H   UNL     1     -32.119  47.450  -8.903  0.00  0.00    +0.000 HD
ENDBRANCH  19  32
BRANCH  14  35
ATOM     34  O   UNL     1     -41.942  48.495 -10.020  0.00  0.00    +0.000 OA
ATOM     35  C   UNL     1     -42.382  48.963  -8.979  0.00  0.00    +0.000 C 
BRANCH  35  36
ATOM     36  O   UNL     1     -43.249  49.999  -9.032  0.00  0.00    +0.000 OA
ATOM     37  H   UNL     1     -43.909  49.745  -9.713  0.00  0.00    +0.000 HD
ENDBRANCH  35  36
ENDBRANCH  14  35
TORSDOF 4
ENDMDL
MODEL 9
REMARK VINA RESULT:      -6.4      5.508      8.003
REMARK  Name = 73659_MaslinicAcid.pdbqt.pdb
REMARK  4 active torsions:
REMARK  status: ('A' for Active; 'I' for Inactive)
REMARK    1  A    between atoms: C_14  and  C_35
REMARK    2  A    between atoms: C_17  and  O_30
REMARK    3  A    between atoms: C_19  and  O_32
REMARK    4  A    between atoms: C_35  and  O_36
REMARK                            x       y       z     vdW  Elec       q    Type
REMARK                         _______ _______ _______ _____ _____    ______ ____
ROOT
ATOM      1  C   UNL     1     -32.690  44.146 -17.754  0.00  0.00    +0.000 C 
ATOM      2  C   UNL     1     -31.163  43.778 -17.518  0.00  0.00    +0.000 C 
ATOM      3  C   UNL     1     -30.272  43.146 -18.592  0.00  0.00    +0.000 C 
ATOM      4  C   UNL     1     -33.628  43.800 -16.436  0.00  0.00    +0.000 C 
ATOM      5  C   UNL     1     -30.942  42.199 -19.595  0.00  0.00    +0.000 C 
ATOM      6  C   UNL     1     -33.098  43.359 -18.923  0.00  0.00    +0.000 C 
ATOM      7  C   UNL     1     -32.325  42.441 -19.811  0.00  0.00    +0.000 C 
ATOM      8  C   UNL     1     -32.986  44.376 -15.059  0.00  0.00    +0.000 C 
ATOM      9  C   UNL     1     -30.169  41.017 -20.159  0.00  0.00    +0.000 C 
ATOM     10  C   UNL     1     -33.750  45.049 -13.986  0.00  0.00    +0.000 C 
ATOM     11  C   UNL     1     -30.747  44.033 -16.173  0.00  0.00    +0.000 C 
ATOM     12  C   UNL     1     -29.249  42.325 -17.965  0.00  0.00    +0.000 C 
ATOM     13  C   UNL     1     -34.962  44.426 -16.484  0.00  0.00    +0.000 C 
ATOM     14  C   UNL     1     -35.122  45.923 -14.268  0.00  0.00    +0.000 C 
ATOM     15  C   UNL     1     -32.733  45.689 -18.105  0.00  0.00    +0.000 C 
ATOM     16  C   UNL     1     -35.651  45.352 -15.507  0.00  0.00    +0.000 C 
ATOM     17  C   UNL     1     -28.892  40.543 -19.419  0.00  0.00    +0.000 C 
ATOM     18  C   UNL     1     -29.619  44.296 -19.394  0.00  0.00    +0.000 C 
ATOM     19  C   UNL     1     -28.525  41.158 -18.188  0.00  0.00    +0.000 C 
ATOM     20  C   UNL     1     -31.683  44.339 -15.040  0.00  0.00    +0.000 C 
ATOM     21  C   UNL     1     -33.777  42.235 -16.202  0.00  0.00    +0.000 C 
ATOM     22  C   UNL     1     -33.632  44.527 -12.625  0.00  0.00    +0.000 C 
ATOM     23  C   UNL     1     -35.946  45.704 -13.049  0.00  0.00    +0.000 C 
ATOM     24  C   UNL     1     -34.352  44.332 -11.310  0.00  0.00    +0.000 C 
ATOM     25  C   UNL     1     -31.106  39.759 -20.150  0.00  0.00    +0.000 C 
ATOM     26  C   UNL     1     -29.767  41.320 -21.631  0.00  0.00    +0.000 C 
ATOM     27  C   UNL     1     -35.629  45.014 -11.697  0.00  0.00    +0.000 C 
ATOM     28  C   UNL     1     -33.635  45.063 -10.161  0.00  0.00    +0.000 C 
ATOM     29  C   UNL     1     -34.570  42.837 -11.012  0.00  0.00    +0.000 C 
ENDROOT
BRANCH  17  30
ATOM     30  O   UNL     1     -28.046  39.546 -19.900  0.00  0.00    +0.000 OA
ATOM     31  H   UNL     1     -27.156  39.612 -19.494  0.00  0.00    +0.000 HD
ENDBRANCH  17  30
BRANCH  19  32
ATOM     32  O   UNL     1     -27.320  40.897 -17.609  0.00  0.00    +0.000 OA
ATOM     33  H   UNL     1     -27.405  40.221 -16.910  0.00  0.00    +0.000 HD
ENDBRANCH  19  32
BRANCH  14  35
ATOM     34  O   UNL     1     -35.426  48.366 -14.179  0.00  0.00    +0.000 OA
ATOM     35  C   UNL     1     -34.716  47.395 -14.402  0.00  0.00    +0.000 C 
BRANCH  35  36
ATOM     36  O   UNL     1     -33.465  47.585 -14.879  0.00  0.00    +0.000 OA
ATOM     37  H   UNL     1     -32.904  46.948 -14.384  0.00  0.00    +0.000 HD
ENDBRANCH  35  36
ENDBRANCH  14  35
TORSDOF 4
ENDMDL
