MODEL 1
REMARK VINA RESULT:      -4.6      0.000      0.000
REMARK  Name = 76617_Cardol.pdbqt.pdb
REMARK  10 active torsions:
REMARK  status: ('A' for Active; 'I' for Inactive)
REMARK    1  A    between atoms: C_1  and  C_2
REMARK    2  A    between atoms: C_3  and  C_4
REMARK    3  A    between atoms: C_5  and  C_6
REMARK    4  A    between atoms: C_7  and  C_8
REMARK    5  A    between atoms: C_8  and  C_9
REMARK    6  A    between atoms: C_10  and  C_11
REMARK    7  A    between atoms: C_14  and  C_15
REMARK    8  A    between atoms: C_15  and  C_16
REMARK    9  A    between atoms: C_19  and  O_24
REMARK   10  A    between atoms: C_20  and  O_22
REMARK                            x       y       z     vdW  Elec       q    Type
REMARK                         _______ _______ _______ _____ _____    ______ ____
ROOT
ATOM      1  C   UNL     1     -34.119  45.604 -11.859  0.00  0.00    +0.000 C 
ATOM      2  C   UNL     1     -34.074  45.276 -10.705  0.00  0.00    +0.000 C 
ENDROOT
BRANCH   1   3
ATOM      3  C   UNL     1     -34.178  46.023 -13.331  0.00  0.00    +0.000 C 
ATOM      4  C   UNL     1     -34.238  46.443 -14.803  0.00  0.00    +0.000 C 
BRANCH   4   5
ATOM      5  C   UNL     1     -34.296  46.864 -16.274  0.00  0.00    +0.000 C 
ATOM      6  C   UNL     1     -34.354  47.285 -17.745  0.00  0.00    +0.000 C 
BRANCH   6   7
ATOM      7  C   UNL     1     -34.412  47.707 -19.217  0.00  0.00    +0.000 C 
ATOM      8  C   UNL     1     -34.470  48.129 -20.688  0.00  0.00    +0.000 C 
BRANCH   8   9
ATOM      9  C   UNL     1     -34.528  48.551 -22.158  0.00  0.00    +0.000 C 
BRANCH   9  10
ATOM     10  C   UNL     1     -34.587  48.974 -23.630  0.00  0.00    +0.000 C 
ATOM     11  C   UNL     1     -34.645  49.397 -25.100  0.00  0.00    +0.000 C 
BRANCH  11  12
ATOM     12  C   UNL     1     -34.703  49.821 -26.572  0.00  0.00    +0.000 C 
ATOM     13  C   UNL     1     -34.762  50.245 -28.042  0.00  0.00    +0.000 C 
ATOM     14  C   UNL     1     -34.820  50.669 -29.513  0.00  0.00    +0.000 C 
ENDBRANCH  11  12
ENDBRANCH   9  10
ENDBRANCH   8   9
ENDBRANCH   6   7
ENDBRANCH   4   5
ENDBRANCH   1   3
BRANCH   2  15
ATOM     15  C   UNL     1     -34.014  44.857  -9.233  0.00  0.00    +0.000 C 
BRANCH  15  16
ATOM     16  C   UNL     1     -33.958  44.469  -7.864  0.00  0.00    +0.000 A 
ATOM     17  C   UNL     1     -33.813  43.124  -7.529  0.00  0.00    +0.000 A 
ATOM     18  C   UNL     1     -34.049  45.436  -6.865  0.00  0.00    +0.000 A 
ATOM     19  C   UNL     1     -33.993  45.046  -5.529  0.00  0.00    +0.000 A 
ATOM     20  C   UNL     1     -33.758  42.755  -6.187  0.00  0.00    +0.000 A 
ATOM     21  C   UNL     1     -33.848  43.708  -5.178  0.00  0.00    +0.000 A 
BRANCH  20  22
ATOM     22  O   UNL     1     -33.616  41.444  -5.834  0.00  0.00    +0.000 OA
ATOM     23  H   UNL     1     -34.292  41.230  -5.168  0.00  0.00    +0.000 HD
ENDBRANCH  20  22
BRANCH  19  24
ATOM     24  O   UNL     1     -34.081  45.974  -4.530  0.00  0.00    +0.000 OA
ATOM     25  H   UNL     1     -33.630  46.784  -4.825  0.00  0.00    +0.000 HD
ENDBRANCH  19  24
ENDBRANCH  15  16
ENDBRANCH   2  15
TORSDOF 10
ENDMDL
MODEL 2
REMARK VINA RESULT:      -4.6      0.840      1.975
REMARK  Name = 76617_Cardol.pdbqt.pdb
REMARK  10 active torsions:
REMARK  status: ('A' for Active; 'I' for Inactive)
REMARK    1  A    between atoms: C_1  and  C_2
REMARK    2  A    between atoms: C_3  and  C_4
REMARK    3  A    between atoms: C_5  and  C_6
REMARK    4  A    between atoms: C_7  and  C_8
REMARK    5  A    between atoms: C_8  and  C_9
REMARK    6  A    between atoms: C_10  and  C_11
REMARK    7  A    between atoms: C_14  and  C_15
REMARK    8  A    between atoms: C_15  and  C_16
REMARK    9  A    between atoms: C_19  and  O_24
REMARK   10  A    between atoms: C_20  and  O_22
REMARK                            x       y       z     vdW  Elec       q    Type
REMARK                         _______ _______ _______ _____ _____    ______ ____
ROOT
ATOM      1  C   UNL     1     -33.948  44.932 -11.132  0.00  0.00    +0.000 C 
ATOM      2  C   UNL     1     -33.898  44.558  -9.993  0.00  0.00    +0.000 C 
ENDROOT
BRANCH   1   3
ATOM      3  C   UNL     1     -34.013  45.409 -12.586  0.00  0.00    +0.000 C 
ATOM      4  C   UNL     1     -34.078  45.888 -14.040  0.00  0.00    +0.000 C 
BRANCH   4   5
ATOM      5  C   UNL     1     -34.141  46.365 -15.494  0.00  0.00    +0.000 C 
ATOM      6  C   UNL     1     -34.205  46.843 -16.947  0.00  0.00    +0.000 C 
BRANCH   6   7
ATOM      7  C   UNL     1     -34.270  47.320 -18.402  0.00  0.00    +0.000 C 
ATOM      8  C   UNL     1     -34.334  47.797 -19.856  0.00  0.00    +0.000 C 
BRANCH   8   9
ATOM      9  C   UNL     1     -34.399  48.273 -21.309  0.00  0.00    +0.000 C 
BRANCH   9  10
ATOM     10  C   UNL     1     -34.462  48.749 -22.764  0.00  0.00    +0.000 C 
ATOM     11  C   UNL     1     -34.525  49.224 -24.219  0.00  0.00    +0.000 C 
BRANCH  11  12
ATOM     12  C   UNL     1     -34.588  49.699 -25.674  0.00  0.00    +0.000 C 
ATOM     13  C   UNL     1     -34.651  50.174 -27.128  0.00  0.00    +0.000 C 
ATOM     14  C   UNL     1     -34.714  50.650 -28.583  0.00  0.00    +0.000 C 
ENDBRANCH  11  12
ENDBRANCH   9  10
ENDBRANCH   8   9
ENDBRANCH   6   7
ENDBRANCH   4   5
ENDBRANCH   1   3
BRANCH   2  15
ATOM     15  C   UNL     1     -33.832  44.081  -8.539  0.00  0.00    +0.000 C 
BRANCH  15  16
ATOM     16  C   UNL     1     -33.771  43.638  -7.186  0.00  0.00    +0.000 A 
ATOM     17  C   UNL     1     -33.448  44.540  -6.174  0.00  0.00    +0.000 A 
ATOM     18  C   UNL     1     -34.037  42.305  -6.882  0.00  0.00    +0.000 A 
ATOM     19  C   UNL     1     -33.975  41.881  -5.556  0.00  0.00    +0.000 A 
ATOM     20  C   UNL     1     -33.392  44.096  -4.855  0.00  0.00    +0.000 A 
ATOM     21  C   UNL     1     -33.653  42.769  -4.534  0.00  0.00    +0.000 A 
BRANCH  20  22
ATOM     22  O   UNL     1     -33.078  44.960  -3.846  0.00  0.00    +0.000 OA
ATOM     23  H   UNL     1     -33.704  44.820  -3.115  0.00  0.00    +0.000 HD
ENDBRANCH  20  22
BRANCH  19  24
ATOM     24  O   UNL     1     -34.230  40.579  -5.230  0.00  0.00    +0.000 OA
ATOM     25  H   UNL     1     -34.110  40.475  -4.270  0.00  0.00    +0.000 HD
ENDBRANCH  19  24
ENDBRANCH  15  16
ENDBRANCH   2  15
TORSDOF 10
ENDMDL
MODEL 3
REMARK VINA RESULT:      -4.5      6.852     17.101
REMARK  Name = 76617_Cardol.pdbqt.pdb
REMARK  10 active torsions:
REMARK  status: ('A' for Active; 'I' for Inactive)
REMARK    1  A    between atoms: C_1  and  C_2
REMARK    2  A    between atoms: C_3  and  C_4
REMARK    3  A    between atoms: C_5  and  C_6
REMARK    4  A    between atoms: C_7  and  C_8
REMARK    5  A    between atoms: C_8  and  C_9
REMARK    6  A    between atoms: C_10  and  C_11
REMARK    7  A    between atoms: C_14  and  C_15
REMARK    8  A    between atoms: C_15  and  C_16
REMARK    9  A    between atoms: C_19  and  O_24
REMARK   10  A    between atoms: C_20  and  O_22
REMARK                            x       y       z     vdW  Elec       q    Type
REMARK                         _______ _______ _______ _____ _____    ______ ____
ROOT
ATOM      1  C   UNL     1     -34.566  47.614 -20.582  0.00  0.00    +0.000 C 
ATOM      2  C   UNL     1     -34.676  47.905 -21.741  0.00  0.00    +0.000 C 
ENDROOT
BRANCH   1   3
ATOM      3  C   UNL     1     -34.424  47.244 -19.103  0.00  0.00    +0.000 C 
ATOM      4  C   UNL     1     -34.280  46.874 -17.623  0.00  0.00    +0.000 C 
BRANCH   4   5
ATOM      5  C   UNL     1     -34.137  46.505 -16.143  0.00  0.00    +0.000 C 
ATOM      6  C   UNL     1     -33.995  46.136 -14.664  0.00  0.00    +0.000 C 
BRANCH   6   7
ATOM      7  C   UNL     1     -33.852  45.767 -13.184  0.00  0.00    +0.000 C 
ATOM      8  C   UNL     1     -33.710  45.399 -11.704  0.00  0.00    +0.000 C 
BRANCH   8   9
ATOM      9  C   UNL     1     -33.569  45.031 -10.225  0.00  0.00    +0.000 C 
BRANCH   9  10
ATOM     10  C   UNL     1     -33.425  44.662  -8.745  0.00  0.00    +0.000 C 
ATOM     11  C   UNL     1     -33.281  44.294  -7.265  0.00  0.00    +0.000 C 
BRANCH  11  12
ATOM     12  C   UNL     1     -33.137  43.925  -5.785  0.00  0.00    +0.000 C 
ATOM     13  C   UNL     1     -32.992  43.557  -4.306  0.00  0.00    +0.000 C 
ATOM     14  C   UNL     1     -32.848  43.188  -2.826  0.00  0.00    +0.000 C 
ENDBRANCH  11  12
ENDBRANCH   9  10
ENDBRANCH   8   9
ENDBRANCH   6   7
ENDBRANCH   4   5
ENDBRANCH   1   3
BRANCH   2  15
ATOM     15  C   UNL     1     -34.819  48.275 -23.221  0.00  0.00    +0.000 C 
BRANCH  15  16
ATOM     16  C   UNL     1     -34.952  48.619 -24.596  0.00  0.00    +0.000 A 
ATOM     17  C   UNL     1     -34.020  49.466 -25.193  0.00  0.00    +0.000 A 
ATOM     18  C   UNL     1     -36.013  48.106 -25.340  0.00  0.00    +0.000 A 
ATOM     19  C   UNL     1     -36.134  48.448 -26.684  0.00  0.00    +0.000 A 
ATOM     20  C   UNL     1     -34.158  49.795 -26.539  0.00  0.00    +0.000 A 
ATOM     21  C   UNL     1     -35.212  49.293 -27.295  0.00  0.00    +0.000 A 
BRANCH  20  22
ATOM     22  O   UNL     1     -33.258  50.623 -27.147  0.00  0.00    +0.000 OA
ATOM     23  H   UNL     1     -33.641  50.929 -27.988  0.00  0.00    +0.000 HD
ENDBRANCH  20  22
BRANCH  19  24
ATOM     24  O   UNL     1     -37.165  47.960 -27.435  0.00  0.00    +0.000 OA
ATOM     25  H   UNL     1     -37.381  48.616 -28.121  0.00  0.00    +0.000 HD
ENDBRANCH  19  24
ENDBRANCH  15  16
ENDBRANCH   2  15
TORSDOF 10
ENDMDL
MODEL 4
REMARK VINA RESULT:      -4.2     22.493     27.288
REMARK  Name = 76617_Cardol.pdbqt.pdb
REMARK  10 active torsions:
REMARK  status: ('A' for Active; 'I' for Inactive)
REMARK    1  A    between atoms: C_1  and  C_2
REMARK    2  A    between atoms: C_3  and  C_4
REMARK    3  A    between atoms: C_5  and  C_6
REMARK    4  A    between atoms: C_7  and  C_8
REMARK    5  A    between atoms: C_8  and  C_9
REMARK    6  A    between atoms: C_10  and  C_11
REMARK    7  A    between atoms: C_14  and  C_15
REMARK    8  A    between atoms: C_15  and  C_16
REMARK    9  A    between atoms: C_19  and  O_24
REMARK   10  A    between atoms: C_20  and  O_22
REMARK                            x       y       z     vdW  Elec       q    Type
REMARK                         _______ _______ _______ _____ _____    ______ ____
ROOT
ATOM      1  C   UNL     1     -16.950  54.063 -26.550  0.00  0.00    +0.000 C 
ATOM      2  C   UNL     1     -17.341  53.925 -27.676  0.00  0.00    +0.000 C 
ENDROOT
BRANCH   1   3
ATOM      3  C   UNL     1     -16.452  54.238 -25.113  0.00  0.00    +0.000 C 
ATOM      4  C   UNL     1     -15.954  54.413 -23.674  0.00  0.00    +0.000 C 
BRANCH   4   5
ATOM      5  C   UNL     1     -15.457  54.587 -22.236  0.00  0.00    +0.000 C 
ATOM      6  C   UNL     1     -14.959  54.761 -20.799  0.00  0.00    +0.000 C 
BRANCH   6   7
ATOM      7  C   UNL     1     -14.460  54.935 -19.360  0.00  0.00    +0.000 C 
ATOM      8  C   UNL     1     -13.961  55.110 -17.923  0.00  0.00    +0.000 C 
BRANCH   8   9
ATOM      9  C   UNL     1     -13.462  55.284 -16.486  0.00  0.00    +0.000 C 
BRANCH   9  10
ATOM     10  C   UNL     1     -12.962  55.460 -15.049  0.00  0.00    +0.000 C 
ATOM     11  C   UNL     1     -12.463  55.635 -13.612  0.00  0.00    +0.000 C 
BRANCH  11  12
ATOM     12  C   UNL     1     -11.964  55.810 -12.174  0.00  0.00    +0.000 C 
ATOM     13  C   UNL     1     -11.464  55.986 -10.737  0.00  0.00    +0.000 C 
ATOM     14  C   UNL     1     -10.965  56.162  -9.299  0.00  0.00    +0.000 C 
ENDBRANCH  11  12
ENDBRANCH   9  10
ENDBRANCH   8   9
ENDBRANCH   6   7
ENDBRANCH   4   5
ENDBRANCH   1   3
BRANCH   2  15
ATOM     15  C   UNL     1     -17.838  53.749 -29.115  0.00  0.00    +0.000 C 
BRANCH  15  16
ATOM     16  C   UNL     1     -18.301  53.584 -30.452  0.00  0.00    +0.000 A 
ATOM     17  C   UNL     1     -19.592  53.116 -30.687  0.00  0.00    +0.000 A 
ATOM     18  C   UNL     1     -17.459  53.892 -31.519  0.00  0.00    +0.000 A 
ATOM     19  C   UNL     1     -17.921  53.728 -32.823  0.00  0.00    +0.000 A 
ATOM     20  C   UNL     1     -20.035  52.959 -31.998  0.00  0.00    +0.000 A 
ATOM     21  C   UNL     1     -19.207  53.261 -33.074  0.00  0.00    +0.000 A 
BRANCH  20  22
ATOM     22  O   UNL     1     -21.295  52.503 -32.254  0.00  0.00    +0.000 OA
ATOM     23  H   UNL     1     -21.842  53.255 -32.541  0.00  0.00    +0.000 HD
ENDBRANCH  20  22
BRANCH  19  24
ATOM     24  O   UNL     1     -17.116  54.021 -33.886  0.00  0.00    +0.000 OA
ATOM     25  H   UNL     1     -16.190  53.961 -33.595  0.00  0.00    +0.000 HD
ENDBRANCH  19  24
ENDBRANCH  15  16
ENDBRANCH   2  15
TORSDOF 10
ENDMDL
MODEL 5
REMARK VINA RESULT:      -4.2     21.583     21.635
REMARK  Name = 76617_Cardol.pdbqt.pdb
REMARK  10 active torsions:
REMARK  status: ('A' for Active; 'I' for Inactive)
REMARK    1  A    between atoms: C_1  and  C_2
REMARK    2  A    between atoms: C_3  and  C_4
REMARK    3  A    between atoms: C_5  and  C_6
REMARK    4  A    between atoms: C_7  and  C_8
REMARK    5  A    between atoms: C_8  and  C_9
REMARK    6  A    between atoms: C_10  and  C_11
REMARK    7  A    between atoms: C_14  and  C_15
REMARK    8  A    between atoms: C_15  and  C_16
REMARK    9  A    between atoms: C_19  and  O_24
REMARK   10  A    between atoms: C_20  and  O_22
REMARK                            x       y       z     vdW  Elec       q    Type
REMARK                         _______ _______ _______ _____ _____    ______ ____
ROOT
ATOM      1  C   UNL     1     -14.177  54.916 -14.904  0.00  0.00    +0.000 C 
ATOM      2  C   UNL     1     -13.946  54.988 -13.729  0.00  0.00    +0.000 C 
ENDROOT
BRANCH   1   3
ATOM      3  C   UNL     1     -14.472  54.825 -16.404  0.00  0.00    +0.000 C 
ATOM      4  C   UNL     1     -14.765  54.735 -17.905  0.00  0.00    +0.000 C 
BRANCH   4   5
ATOM      5  C   UNL     1     -15.058  54.643 -19.406  0.00  0.00    +0.000 C 
ATOM      6  C   UNL     1     -15.352  54.552 -20.906  0.00  0.00    +0.000 C 
BRANCH   6   7
ATOM      7  C   UNL     1     -15.646  54.461 -22.407  0.00  0.00    +0.000 C 
ATOM      8  C   UNL     1     -15.940  54.369 -23.907  0.00  0.00    +0.000 C 
BRANCH   8   9
ATOM      9  C   UNL     1     -16.234  54.277 -25.407  0.00  0.00    +0.000 C 
BRANCH   9  10
ATOM     10  C   UNL     1     -16.529  54.186 -26.907  0.00  0.00    +0.000 C 
ATOM     11  C   UNL     1     -16.826  54.094 -28.407  0.00  0.00    +0.000 C 
BRANCH  11  12
ATOM     12  C   UNL     1     -17.121  54.002 -29.907  0.00  0.00    +0.000 C 
ATOM     13  C   UNL     1     -17.416  53.910 -31.407  0.00  0.00    +0.000 C 
ATOM     14  C   UNL     1     -17.712  53.818 -32.907  0.00  0.00    +0.000 C 
ENDBRANCH  11  12
ENDBRANCH   9  10
ENDBRANCH   8   9
ENDBRANCH   6   7
ENDBRANCH   4   5
ENDBRANCH   1   3
BRANCH   2  15
ATOM     15  C   UNL     1     -13.651  55.078 -12.228  0.00  0.00    +0.000 C 
BRANCH  15  16
ATOM     16  C   UNL     1     -13.379  55.162 -10.833  0.00  0.00    +0.000 A 
ATOM     17  C   UNL     1     -12.562  54.210 -10.226  0.00  0.00    +0.000 A 
ATOM     18  C   UNL     1     -13.930  56.197 -10.080  0.00  0.00    +0.000 A 
ATOM     19  C   UNL     1     -13.657  56.271  -8.716  0.00  0.00    +0.000 A 
ATOM     20  C   UNL     1     -12.301  54.302  -8.861  0.00  0.00    +0.000 A 
ATOM     21  C   UNL     1     -12.844  55.328  -8.096  0.00  0.00    +0.000 A 
BRANCH  20  22
ATOM     22  O   UNL     1     -11.504  53.381  -8.244  0.00  0.00    +0.000 OA
ATOM     23  H   UNL     1     -11.821  52.492  -8.481  0.00  0.00    +0.000 HD
ENDBRANCH  20  22
BRANCH  19  24
ATOM     24  O   UNL     1     -14.185  57.275  -7.956  0.00  0.00    +0.000 OA
ATOM     25  H   UNL     1     -13.688  58.091  -8.138  0.00  0.00    +0.000 HD
ENDBRANCH  19  24
ENDBRANCH  15  16
ENDBRANCH   2  15
TORSDOF 10
ENDMDL
MODEL 6
REMARK VINA RESULT:      -4.1     23.147     27.290
REMARK  Name = 76617_Cardol.pdbqt.pdb
REMARK  10 active torsions:
REMARK  status: ('A' for Active; 'I' for Inactive)
REMARK    1  A    between atoms: C_1  and  C_2
REMARK    2  A    between atoms: C_3  and  C_4
REMARK    3  A    between atoms: C_5  and  C_6
REMARK    4  A    between atoms: C_7  and  C_8
REMARK    5  A    between atoms: C_8  and  C_9
REMARK    6  A    between atoms: C_10  and  C_11
REMARK    7  A    between atoms: C_14  and  C_15
REMARK    8  A    between atoms: C_15  and  C_16
REMARK    9  A    between atoms: C_19  and  O_24
REMARK   10  A    between atoms: C_20  and  O_22
REMARK                            x       y       z     vdW  Elec       q    Type
REMARK                         _______ _______ _______ _____ _____    ______ ____
ROOT
ATOM      1  C   UNL     1     -18.819  53.384 -29.567  0.00  0.00    +0.000 C 
ATOM      2  C   UNL     1     -19.374  53.190 -30.612  0.00  0.00    +0.000 C 
ENDROOT
BRANCH   1   3
ATOM      3  C   UNL     1     -18.110  53.633 -28.232  0.00  0.00    +0.000 C 
ATOM      4  C   UNL     1     -17.402  53.884 -26.897  0.00  0.00    +0.000 C 
BRANCH   4   5
ATOM      5  C   UNL     1     -16.695  54.133 -25.562  0.00  0.00    +0.000 C 
ATOM      6  C   UNL     1     -15.989  54.384 -24.226  0.00  0.00    +0.000 C 
BRANCH   6   7
ATOM      7  C   UNL     1     -15.282  54.634 -22.890  0.00  0.00    +0.000 C 
ATOM      8  C   UNL     1     -14.575  54.884 -21.555  0.00  0.00    +0.000 C 
BRANCH   8   9
ATOM      9  C   UNL     1     -13.868  55.133 -20.220  0.00  0.00    +0.000 C 
BRANCH   9  10
ATOM     10  C   UNL     1     -13.161  55.382 -18.883  0.00  0.00    +0.000 C 
ATOM     11  C   UNL     1     -12.453  55.630 -17.549  0.00  0.00    +0.000 C 
BRANCH  11  12
ATOM     12  C   UNL     1     -11.745  55.878 -16.213  0.00  0.00    +0.000 C 
ATOM     13  C   UNL     1     -11.037  56.125 -14.878  0.00  0.00    +0.000 C 
ATOM     14  C   UNL     1     -10.329  56.373 -13.542  0.00  0.00    +0.000 C 
ENDBRANCH  11  12
ENDBRANCH   9  10
ENDBRANCH   8   9
ENDBRANCH   6   7
ENDBRANCH   4   5
ENDBRANCH   1   3
BRANCH   2  15
ATOM     15  C   UNL     1     -20.084  52.939 -31.947  0.00  0.00    +0.000 C 
BRANCH  15  16
ATOM     16  C   UNL     1     -20.744  52.707 -33.188  0.00  0.00    +0.000 A 
ATOM     17  C   UNL     1     -21.870  53.455 -33.526  0.00  0.00    +0.000 A 
ATOM     18  C   UNL     1     -20.259  51.733 -34.059  0.00  0.00    +0.000 A 
ATOM     19  C   UNL     1     -20.911  51.513 -35.270  0.00  0.00    +0.000 A 
ATOM     20  C   UNL     1     -22.507  53.220 -34.742  0.00  0.00    +0.000 A 
ATOM     21  C   UNL     1     -22.037  52.251 -35.622  0.00  0.00    +0.000 A 
BRANCH  20  22
ATOM     22  O   UNL     1     -23.612  53.940 -35.095  0.00  0.00    +0.000 OA
ATOM     23  H   UNL     1     -23.459  54.872 -34.863  0.00  0.00    +0.000 HD
ENDBRANCH  20  22
BRANCH  19  24
ATOM     24  O   UNL     1     -20.458  50.564 -36.141  0.00  0.00    +0.000 OA
ATOM     25  H   UNL     1     -20.188  49.782 -35.629  0.00  0.00    +0.000 HD
ENDBRANCH  19  24
ENDBRANCH  15  16
ENDBRANCH   2  15
TORSDOF 10
ENDMDL
MODEL 7
REMARK VINA RESULT:      -4.0     21.257     22.027
REMARK  Name = 76617_Cardol.pdbqt.pdb
REMARK  10 active torsions:
REMARK  status: ('A' for Active; 'I' for Inactive)
REMARK    1  A    between atoms: C_1  and  C_2
REMARK    2  A    between atoms: C_3  and  C_4
REMARK    3  A    between atoms: C_5  and  C_6
REMARK    4  A    between atoms: C_7  and  C_8
REMARK    5  A    between atoms: C_8  and  C_9
REMARK    6  A    between atoms: C_10  and  C_11
REMARK    7  A    between atoms: C_14  and  C_15
REMARK    8  A    between atoms: C_15  and  C_16
REMARK    9  A    between atoms: C_19  and  O_24
REMARK   10  A    between atoms: C_20  and  O_22
REMARK                            x       y       z     vdW  Elec       q    Type
REMARK                         _______ _______ _______ _____ _____    ______ ____
ROOT
ATOM      1  C   UNL     1     -14.565  54.832 -18.845  0.00  0.00    +0.000 C 
ATOM      2  C   UNL     1     -14.241  54.940 -17.695  0.00  0.00    +0.000 C 
ENDROOT
BRANCH   1   3
ATOM      3  C   UNL     1     -14.978  54.694 -20.313  0.00  0.00    +0.000 C 
ATOM      4  C   UNL     1     -15.391  54.558 -21.782  0.00  0.00    +0.000 C 
BRANCH   4   5
ATOM      5  C   UNL     1     -15.803  54.421 -23.251  0.00  0.00    +0.000 C 
ATOM      6  C   UNL     1     -16.215  54.284 -24.719  0.00  0.00    +0.000 C 
BRANCH   6   7
ATOM      7  C   UNL     1     -16.627  54.147 -26.189  0.00  0.00    +0.000 C 
ATOM      8  C   UNL     1     -17.040  54.010 -27.657  0.00  0.00    +0.000 C 
BRANCH   8   9
ATOM      9  C   UNL     1     -17.453  53.872 -29.125  0.00  0.00    +0.000 C 
BRANCH   9  10
ATOM     10  C   UNL     1     -17.867  53.736 -30.594  0.00  0.00    +0.000 C 
ATOM     11  C   UNL     1     -18.281  53.600 -32.062  0.00  0.00    +0.000 C 
BRANCH  11  12
ATOM     12  C   UNL     1     -18.696  53.464 -33.530  0.00  0.00    +0.000 C 
ATOM     13  C   UNL     1     -19.111  53.328 -34.998  0.00  0.00    +0.000 C 
ATOM     14  C   UNL     1     -19.526  53.192 -36.466  0.00  0.00    +0.000 C 
ENDBRANCH  11  12
ENDBRANCH   9  10
ENDBRANCH   8   9
ENDBRANCH   6   7
ENDBRANCH   4   5
ENDBRANCH   1   3
BRANCH   2  15
ATOM     15  C   UNL     1     -13.828  55.079 -16.226  0.00  0.00    +0.000 C 
BRANCH  15  16
ATOM     16  C   UNL     1     -13.444  55.208 -14.860  0.00  0.00    +0.000 A 
ATOM     17  C   UNL     1     -14.290  54.746 -13.854  0.00  0.00    +0.000 A 
ATOM     18  C   UNL     1     -12.222  55.796 -14.537  0.00  0.00    +0.000 A 
ATOM     19  C   UNL     1     -11.855  55.917 -13.199  0.00  0.00    +0.000 A 
ATOM     20  C   UNL     1     -13.904  54.876 -12.522  0.00  0.00    +0.000 A 
ATOM     21  C   UNL     1     -12.689  55.461 -12.183  0.00  0.00    +0.000 A 
BRANCH  20  22
ATOM     22  O   UNL     1     -14.715  54.431 -11.519  0.00  0.00    +0.000 OA
ATOM     23  H   UNL     1     -14.476  53.511 -11.315  0.00  0.00    +0.000 HD
ENDBRANCH  20  22
BRANCH  19  24
ATOM     24  O   UNL     1     -10.664  56.490 -12.855  0.00  0.00    +0.000 OA
ATOM     25  H   UNL     1     -10.557  57.308 -13.371  0.00  0.00    +0.000 HD
ENDBRANCH  19  24
ENDBRANCH  15  16
ENDBRANCH   2  15
TORSDOF 10
ENDMDL
MODEL 8
REMARK VINA RESULT:      -4.0      0.883      2.420
REMARK  Name = 76617_Cardol.pdbqt.pdb
REMARK  10 active torsions:
REMARK  status: ('A' for Active; 'I' for Inactive)
REMARK    1  A    between atoms: C_1  and  C_2
REMARK    2  A    between atoms: C_3  and  C_4
REMARK    3  A    between atoms: C_5  and  C_6
REMARK    4  A    between atoms: C_7  and  C_8
REMARK    5  A    between atoms: C_8  and  C_9
REMARK    6  A    between atoms: C_10  and  C_11
REMARK    7  A    between atoms: C_14  and  C_15
REMARK    8  A    between atoms: C_15  and  C_16
REMARK    9  A    between atoms: C_19  and  O_24
REMARK   10  A    between atoms: C_20  and  O_22
REMARK                            x       y       z     vdW  Elec       q    Type
REMARK                         _______ _______ _______ _____ _____    ______ ____
ROOT
ATOM      1  C   UNL     1     -34.018  45.838 -13.526  0.00  0.00    +0.000 C 
ATOM      2  C   UNL     1     -33.927  45.487 -12.382  0.00  0.00    +0.000 C 
ENDROOT
BRANCH   1   3
ATOM      3  C   UNL     1     -34.133  46.286 -14.986  0.00  0.00    +0.000 C 
ATOM      4  C   UNL     1     -34.247  46.734 -16.447  0.00  0.00    +0.000 C 
BRANCH   4   5
ATOM      5  C   UNL     1     -34.362  47.180 -17.907  0.00  0.00    +0.000 C 
ATOM      6  C   UNL     1     -34.477  47.627 -19.367  0.00  0.00    +0.000 C 
BRANCH   6   7
ATOM      7  C   UNL     1     -34.591  48.074 -20.828  0.00  0.00    +0.000 C 
ATOM      8  C   UNL     1     -34.705  48.520 -22.289  0.00  0.00    +0.000 C 
BRANCH   8   9
ATOM      9  C   UNL     1     -34.819  48.966 -23.749  0.00  0.00    +0.000 C 
BRANCH   9  10
ATOM     10  C   UNL     1     -34.934  49.411 -25.211  0.00  0.00    +0.000 C 
ATOM     11  C   UNL     1     -35.047  49.856 -26.671  0.00  0.00    +0.000 C 
BRANCH  11  12
ATOM     12  C   UNL     1     -35.161  50.302 -28.133  0.00  0.00    +0.000 C 
ATOM     13  C   UNL     1     -35.276  50.747 -29.593  0.00  0.00    +0.000 C 
ATOM     14  C   UNL     1     -35.390  51.193 -31.055  0.00  0.00    +0.000 C 
ENDBRANCH  11  12
ENDBRANCH   9  10
ENDBRANCH   8   9
ENDBRANCH   6   7
ENDBRANCH   4   5
ENDBRANCH   1   3
BRANCH   2  15
ATOM     15  C   UNL     1     -33.813  45.039 -10.921  0.00  0.00    +0.000 C 
BRANCH  15  16
ATOM     16  C   UNL     1     -33.707  44.621  -9.564  0.00  0.00    +0.000 A 
ATOM     17  C   UNL     1     -33.622  45.573  -8.549  0.00  0.00    +0.000 A 
ATOM     18  C   UNL     1     -33.689  43.262  -9.256  0.00  0.00    +0.000 A 
ATOM     19  C   UNL     1     -33.585  42.864  -7.925  0.00  0.00    +0.000 A 
ATOM     20  C   UNL     1     -33.520  45.154  -7.225  0.00  0.00    +0.000 A 
ATOM     21  C   UNL     1     -33.500  43.802  -6.901  0.00  0.00    +0.000 A 
BRANCH  20  22
ATOM     22  O   UNL     1     -33.436  46.067  -6.214  0.00  0.00    +0.000 OA
ATOM     23  H   UNL     1     -34.015  45.776  -5.488  0.00  0.00    +0.000 HD
ENDBRANCH  20  22
BRANCH  19  24
ATOM     24  O   UNL     1     -33.565  41.539  -7.596  0.00  0.00    +0.000 OA
ATOM     25  H   UNL     1     -32.727  41.158  -7.913  0.00  0.00    +0.000 HD
ENDBRANCH  19  24
ENDBRANCH  15  16
ENDBRANCH   2  15
TORSDOF 10
ENDMDL
MODEL 9
REMARK VINA RESULT:      -4.0     21.102     21.679
REMARK  Name = 76617_Cardol.pdbqt.pdb
REMARK  10 active torsions:
REMARK  status: ('A' for Active; 'I' for Inactive)
REMARK    1  A    between atoms: C_1  and  C_2
REMARK    2  A    between atoms: C_3  and  C_4
REMARK    3  A    between atoms: C_5  and  C_6
REMARK    4  A    between atoms: C_7  and  C_8
REMARK    5  A    between atoms: C_8  and  C_9
REMARK    6  A    between atoms: C_10  and  C_11
REMARK    7  A    between atoms: C_14  and  C_15
REMARK    8  A    between atoms: C_15  and  C_16
REMARK    9  A    between atoms: C_19  and  O_24
REMARK   10  A    between atoms: C_20  and  O_22
REMARK                            x       y       z     vdW  Elec       q    Type
REMARK                         _______ _______ _______ _____ _____    ______ ____
ROOT
ATOM      1  C   UNL     1     -17.893  60.181 -13.050  0.00  0.00    +0.000 C 
ATOM      2  C   UNL     1     -17.828  59.939 -11.877  0.00  0.00    +0.000 C 
ENDROOT
BRANCH   1   3
ATOM      3  C   UNL     1     -17.975  60.490 -14.548  0.00  0.00    +0.000 C 
ATOM      4  C   UNL     1     -18.055  60.798 -16.047  0.00  0.00    +0.000 C 
BRANCH   4   5
ATOM      5  C   UNL     1     -18.135  61.106 -17.545  0.00  0.00    +0.000 C 
ATOM      6  C   UNL     1     -18.214  61.413 -19.043  0.00  0.00    +0.000 C 
BRANCH   6   7
ATOM      7  C   UNL     1     -18.293  61.721 -20.542  0.00  0.00    +0.000 C 
ATOM      8  C   UNL     1     -18.373  62.029 -22.040  0.00  0.00    +0.000 C 
BRANCH   8   9
ATOM      9  C   UNL     1     -18.453  62.337 -23.537  0.00  0.00    +0.000 C 
BRANCH   9  10
ATOM     10  C   UNL     1     -18.535  62.645 -25.036  0.00  0.00    +0.000 C 
ATOM     11  C   UNL     1     -18.617  62.954 -26.533  0.00  0.00    +0.000 C 
BRANCH  11  12
ATOM     12  C   UNL     1     -18.699  63.263 -28.032  0.00  0.00    +0.000 C 
ATOM     13  C   UNL     1     -18.781  63.570 -29.530  0.00  0.00    +0.000 C 
ATOM     14  C   UNL     1     -18.864  63.878 -31.028  0.00  0.00    +0.000 C 
ENDBRANCH  11  12
ENDBRANCH   9  10
ENDBRANCH   8   9
ENDBRANCH   6   7
ENDBRANCH   4   5
ENDBRANCH   1   3
BRANCH   2  15
ATOM     15  C   UNL     1     -17.747  59.631 -10.378  0.00  0.00    +0.000 C 
BRANCH  15  16
ATOM     16  C   UNL     1     -17.672  59.345  -8.985  0.00  0.00    +0.000 A 
ATOM     17  C   UNL     1     -17.985  58.069  -8.520  0.00  0.00    +0.000 A 
ATOM     18  C   UNL     1     -17.286  60.343  -8.093  0.00  0.00    +0.000 A 
ATOM     19  C   UNL     1     -17.216  60.054  -6.732  0.00  0.00    +0.000 A 
ATOM     20  C   UNL     1     -17.908  57.800  -7.156  0.00  0.00    +0.000 A 
ATOM     21  C   UNL     1     -17.525  58.785  -6.252  0.00  0.00    +0.000 A 
BRANCH  20  22
ATOM     22  O   UNL     1     -18.210  56.558  -6.676  0.00  0.00    +0.000 OA
ATOM     23  H   UNL     1     -18.064  55.910  -7.387  0.00  0.00    +0.000 HD
ENDBRANCH  20  22
BRANCH  19  24
ATOM     24  O   UNL     1     -16.840  61.014  -5.836  0.00  0.00    +0.000 OA
ATOM     25  H   UNL     1     -16.071  61.487  -6.199  0.00  0.00    +0.000 HD
ENDBRANCH  19  24
ENDBRANCH  15  16
ENDBRANCH   2  15
TORSDOF 10
ENDMDL
