MODEL 1
REMARK VINA RESULT:      -5.5      0.000      0.000
REMARK  Name = 85668777_Hyaluronidase.pdbqt.pdb
REMARK  5 active torsions:
REMARK  status: ('A' for Active; 'I' for Inactive)
REMARK    1  A    between atoms: N_1  and  C_13
REMARK    2  A    between atoms: C_14  and  C_15
REMARK    3  A    between atoms: C_15  and  C_16
REMARK    4  A    between atoms: C_17  and  C_19
REMARK    5  A    between atoms: C_19  and  O_20
REMARK                            x       y       z     vdW  Elec       q    Type
REMARK                         _______ _______ _______ _____ _____    ______ ____
ROOT
ATOM      1  N   UNL     1     -16.825  54.580 -26.023  0.00  0.00    +0.000 N 
ATOM      2  C   UNL     1     -15.906  55.823 -24.160  0.00  0.00    +0.000 C 
ATOM      3  C   UNL     1     -15.558  54.336 -24.100  0.00  0.00    +0.000 A 
ATOM      4  C   UNL     1     -16.755  55.869 -25.489  0.00  0.00    +0.000 C 
ATOM      5  C   UNL     1     -16.123  53.674 -25.210  0.00  0.00    +0.000 A 
ATOM      6  C   UNL     1     -16.749  56.203 -22.902  0.00  0.00    +0.000 C 
ATOM      7  C   UNL     1     -14.586  56.652 -24.270  0.00  0.00    +0.000 C 
ATOM      8  C   UNL     1     -14.816  53.640 -23.156  0.00  0.00    +0.000 A 
ATOM      9  C   UNL     1     -15.953  52.313 -25.389  0.00  0.00    +0.000 A 
ATOM     10  C   UNL     1     -17.356  56.913 -26.096  0.00  0.00    +0.000 C 
ATOM     11  C   UNL     1     -14.646  52.268 -23.337  0.00  0.00    +0.000 A 
ATOM     12  C   UNL     1     -15.207  51.613 -24.441  0.00  0.00    +0.000 A 
ENDROOT
BRANCH   1  13
ATOM     13  C   UNL     1     -17.511  54.201 -27.234  0.00  0.00    +0.000 C 
ATOM     14  C   UNL     1     -18.243  53.799 -28.518  0.00  0.00    +0.000 C 
BRANCH  14  15
ATOM     15  C   UNL     1     -18.977  53.398 -29.802  0.00  0.00    +0.000 C 
BRANCH  15  16
ATOM     16  C   UNL     1     -19.709  52.998 -31.085  0.00  0.00    +0.000 C 
ATOM     17  C   UNL     1     -20.442  52.597 -32.369  0.00  0.00    +0.000 C 
BRANCH  17  19
ATOM     18  O   UNL     1     -21.297  52.977 -34.510  0.00  0.00    +0.000 OA
ATOM     19  C   UNL     1     -21.129  52.222 -33.568  0.00  0.00    +0.000 C 
BRANCH  19  20
ATOM     20  O   UNL     1     -21.579  50.955 -33.568  0.00  0.00    +0.000 OA
ATOM     21  H   UNL     1     -22.498  51.035 -33.893  0.00  0.00    +0.000 HD
ENDBRANCH  19  20
ENDBRANCH  17  19
ENDBRANCH  15  16
ENDBRANCH  14  15
ENDBRANCH   1  13
TORSDOF 5
ENDMDL
MODEL 2
REMARK VINA RESULT:      -5.2     23.144     24.624
REMARK  Name = 85668777_Hyaluronidase.pdbqt.pdb
REMARK  5 active torsions:
REMARK  status: ('A' for Active; 'I' for Inactive)
REMARK    1  A    between atoms: N_1  and  C_13
REMARK    2  A    between atoms: C_14  and  C_15
REMARK    3  A    between atoms: C_15  and  C_16
REMARK    4  A    between atoms: C_17  and  C_19
REMARK    5  A    between atoms: C_19  and  O_20
REMARK                            x       y       z     vdW  Elec       q    Type
REMARK                         _______ _______ _______ _____ _____    ______ ____
ROOT
ATOM      1  N   UNL     1     -33.212  44.782 -14.650  0.00  0.00    +0.000 N 
ATOM      2  C   UNL     1     -32.866  43.906 -16.879  0.00  0.00    +0.000 C 
ATOM      3  C   UNL     1     -33.243  45.388 -16.884  0.00  0.00    +0.000 A 
ATOM      4  C   UNL     1     -32.875  43.610 -15.329  0.00  0.00    +0.000 C 
ATOM      5  C   UNL     1     -33.430  45.831 -15.558  0.00  0.00    +0.000 A 
ATOM      6  C   UNL     1     -33.959  43.097 -17.646  0.00  0.00    +0.000 C 
ATOM      7  C   UNL     1     -31.445  43.739 -17.507  0.00  0.00    +0.000 C 
ATOM      8  C   UNL     1     -33.405  46.253 -17.957  0.00  0.00    +0.000 A 
ATOM      9  C   UNL     1     -33.779  47.142 -15.290  0.00  0.00    +0.000 A 
ATOM     10  C   UNL     1     -32.619  42.464 -14.667  0.00  0.00    +0.000 C 
ATOM     11  C   UNL     1     -33.757  47.575 -17.684  0.00  0.00    +0.000 A 
ATOM     12  C   UNL     1     -33.941  48.014 -16.366  0.00  0.00    +0.000 A 
ENDROOT
BRANCH   1  13
ATOM     13  C   UNL     1     -33.327  44.928 -13.219  0.00  0.00    +0.000 C 
ATOM     14  C   UNL     1     -33.444  45.086 -11.700  0.00  0.00    +0.000 C 
BRANCH  14  15
ATOM     15  C   UNL     1     -33.560  45.243 -10.180  0.00  0.00    +0.000 C 
BRANCH  15  16
ATOM     16  C   UNL     1     -33.677  45.402  -8.662  0.00  0.00    +0.000 C 
ATOM     17  C   UNL     1     -33.794  45.559  -7.143  0.00  0.00    +0.000 C 
BRANCH  17  19
ATOM     18  O   UNL     1     -34.925  46.054  -5.159  0.00  0.00    +0.000 OA
ATOM     19  C   UNL     1     -33.902  45.705  -5.723  0.00  0.00    +0.000 C 
BRANCH  19  20
ATOM     20  O   UNL     1     -32.769  45.423  -5.055  0.00  0.00    +0.000 OA
ATOM     21  H   UNL     1     -33.087  45.056  -4.205  0.00  0.00    +0.000 HD
ENDBRANCH  19  20
ENDBRANCH  17  19
ENDBRANCH  15  16
ENDBRANCH  14  15
ENDBRANCH   1  13
TORSDOF 5
ENDMDL
MODEL 3
REMARK VINA RESULT:      -5.1     23.713     24.776
REMARK  Name = 85668777_Hyaluronidase.pdbqt.pdb
REMARK  5 active torsions:
REMARK  status: ('A' for Active; 'I' for Inactive)
REMARK    1  A    between atoms: N_1  and  C_13
REMARK    2  A    between atoms: C_14  and  C_15
REMARK    3  A    between atoms: C_15  and  C_16
REMARK    4  A    between atoms: C_17  and  C_19
REMARK    5  A    between atoms: C_19  and  O_20
REMARK                            x       y       z     vdW  Elec       q    Type
REMARK                         _______ _______ _______ _____ _____    ______ ____
ROOT
ATOM      1  N   UNL     1     -34.254  45.048 -10.149  0.00  0.00    +0.000 N 
ATOM      2  C   UNL     1     -34.767  44.844  -7.793  0.00  0.00    +0.000 C 
ATOM      3  C   UNL     1     -35.806  45.673  -8.548  0.00  0.00    +0.000 A 
ATOM      4  C   UNL     1     -33.778  44.478  -8.967  0.00  0.00    +0.000 C 
ATOM      5  C   UNL     1     -35.446  45.752  -9.910  0.00  0.00    +0.000 A 
ATOM      6  C   UNL     1     -34.093  45.737  -6.703  0.00  0.00    +0.000 C 
ATOM      7  C   UNL     1     -35.463  43.582  -7.188  0.00  0.00    +0.000 C 
ATOM      8  C   UNL     1     -36.952  46.296  -8.075  0.00  0.00    +0.000 A 
ATOM      9  C   UNL     1     -36.228  46.451 -10.812  0.00  0.00    +0.000 A 
ATOM     10  C   UNL     1     -32.642  43.752  -8.946  0.00  0.00    +0.000 C 
ATOM     11  C   UNL     1     -37.738  47.001  -8.986  0.00  0.00    +0.000 A 
ATOM     12  C   UNL     1     -37.381  47.076 -10.339  0.00  0.00    +0.000 A 
ENDROOT
BRANCH   1  13
ATOM     13  C   UNL     1     -33.635  44.945 -11.449  0.00  0.00    +0.000 C 
ATOM     14  C   UNL     1     -32.978  44.841 -12.829  0.00  0.00    +0.000 C 
BRANCH  14  15
ATOM     15  C   UNL     1     -32.321  44.738 -14.209  0.00  0.00    +0.000 C 
BRANCH  15  16
ATOM     16  C   UNL     1     -31.665  44.636 -15.588  0.00  0.00    +0.000 C 
ATOM     17  C   UNL     1     -31.008  44.535 -16.968  0.00  0.00    +0.000 C 
BRANCH  17  19
ATOM     18  O   UNL     1     -30.939  43.945 -19.228  0.00  0.00    +0.000 OA
ATOM     19  C   UNL     1     -30.393  44.442 -18.257  0.00  0.00    +0.000 C 
BRANCH  19  20
ATOM     20  O   UNL     1     -29.149  44.951 -18.309  0.00  0.00    +0.000 OA
ATOM     21  H   UNL     1     -29.190  45.586 -19.052  0.00  0.00    +0.000 HD
ENDBRANCH  19  20
ENDBRANCH  17  19
ENDBRANCH  15  16
ENDBRANCH  14  15
ENDBRANCH   1  13
TORSDOF 5
ENDMDL
MODEL 4
REMARK VINA RESULT:      -5.1      7.028      9.920
REMARK  Name = 85668777_Hyaluronidase.pdbqt.pdb
REMARK  5 active torsions:
REMARK  status: ('A' for Active; 'I' for Inactive)
REMARK    1  A    between atoms: N_1  and  C_13
REMARK    2  A    between atoms: C_14  and  C_15
REMARK    3  A    between atoms: C_15  and  C_16
REMARK    4  A    between atoms: C_17  and  C_19
REMARK    5  A    between atoms: C_19  and  O_20
REMARK                            x       y       z     vdW  Elec       q    Type
REMARK                         _______ _______ _______ _____ _____    ______ ____
ROOT
ATOM      1  N   UNL     1     -16.355  55.342 -24.005  0.00  0.00    +0.000 N 
ATOM      2  C   UNL     1     -16.421  54.688 -26.334  0.00  0.00    +0.000 C 
ATOM      3  C   UNL     1     -15.902  53.572 -25.428  0.00  0.00    +0.000 A 
ATOM      4  C   UNL     1     -16.693  55.822 -25.272  0.00  0.00    +0.000 C 
ATOM      5  C   UNL     1     -15.889  54.019 -24.091  0.00  0.00    +0.000 A 
ATOM      6  C   UNL     1     -15.304  55.083 -27.352  0.00  0.00    +0.000 C 
ATOM      7  C   UNL     1     -17.731  54.207 -27.038  0.00  0.00    +0.000 C 
ATOM      8  C   UNL     1     -15.481  52.292 -25.758  0.00  0.00    +0.000 A 
ATOM      9  C   UNL     1     -15.458  53.192 -23.069  0.00  0.00    +0.000 A 
ATOM     10  C   UNL     1     -17.167  57.073 -25.443  0.00  0.00    +0.000 C 
ATOM     11  C   UNL     1     -15.047  51.459 -24.727  0.00  0.00    +0.000 A 
ATOM     12  C   UNL     1     -15.037  51.904 -23.398  0.00  0.00    +0.000 A 
ENDROOT
BRANCH   1  13
ATOM     13  C   UNL     1     -16.459  56.073 -22.765  0.00  0.00    +0.000 C 
ATOM     14  C   UNL     1     -16.574  56.845 -21.447  0.00  0.00    +0.000 C 
BRANCH  14  15
ATOM     15  C   UNL     1     -16.689  57.617 -20.129  0.00  0.00    +0.000 C 
BRANCH  15  16
ATOM     16  C   UNL     1     -16.803  58.389 -18.812  0.00  0.00    +0.000 C 
ATOM     17  C   UNL     1     -16.918  59.161 -17.494  0.00  0.00    +0.000 C 
BRANCH  17  19
ATOM     18  O   UNL     1     -16.597  61.012 -16.105  0.00  0.00    +0.000 OA
ATOM     19  C   UNL     1     -17.027  59.882 -16.262  0.00  0.00    +0.000 C 
BRANCH  19  20
ATOM     20  O   UNL     1     -17.649  59.203 -15.283  0.00  0.00    +0.000 OA
ATOM     21  H   UNL     1     -17.109  58.393 -15.184  0.00  0.00    +0.000 HD
ENDBRANCH  19  20
ENDBRANCH  17  19
ENDBRANCH  15  16
ENDBRANCH  14  15
ENDBRANCH   1  13
TORSDOF 5
ENDMDL
MODEL 5
REMARK VINA RESULT:      -5.1     26.801     28.171
REMARK  Name = 85668777_Hyaluronidase.pdbqt.pdb
REMARK  5 active torsions:
REMARK  status: ('A' for Active; 'I' for Inactive)
REMARK    1  A    between atoms: N_1  and  C_13
REMARK    2  A    between atoms: C_14  and  C_15
REMARK    3  A    between atoms: C_15  and  C_16
REMARK    4  A    between atoms: C_17  and  C_19
REMARK    5  A    between atoms: C_19  and  O_20
REMARK                            x       y       z     vdW  Elec       q    Type
REMARK                         _______ _______ _______ _____ _____    ______ ____
ROOT
ATOM      1  N   UNL     1     -35.536  46.186  -9.228  0.00  0.00    +0.000 N 
ATOM      2  C   UNL     1     -34.349  44.440 -10.411  0.00  0.00    +0.000 C 
ATOM      3  C   UNL     1     -33.729  44.750  -9.049  0.00  0.00    +0.000 A 
ATOM      4  C   UNL     1     -35.552  45.462 -10.421  0.00  0.00    +0.000 C 
ATOM      5  C   UNL     1     -34.467  45.772  -8.416  0.00  0.00    +0.000 A 
ATOM      6  C   UNL     1     -33.303  44.742 -11.530  0.00  0.00    +0.000 C 
ATOM      7  C   UNL     1     -34.832  42.954 -10.427  0.00  0.00    +0.000 C 
ATOM      8  C   UNL     1     -32.622  44.183  -8.434  0.00  0.00    +0.000 A 
ATOM      9  C   UNL     1     -34.108  46.238  -7.164  0.00  0.00    +0.000 A 
ATOM     10  C   UNL     1     -36.491  45.683 -11.364  0.00  0.00    +0.000 C 
ATOM     11  C   UNL     1     -32.261  44.653  -7.172  0.00  0.00    +0.000 A 
ATOM     12  C   UNL     1     -32.996  45.668  -6.544  0.00  0.00    +0.000 A 
ENDROOT
BRANCH   1  13
ATOM     13  C   UNL     1     -36.472  47.218  -8.850  0.00  0.00    +0.000 C 
ATOM     14  C   UNL     1     -37.462  48.317  -8.452  0.00  0.00    +0.000 C 
BRANCH  14  15
ATOM     15  C   UNL     1     -38.451  49.416  -8.053  0.00  0.00    +0.000 C 
BRANCH  15  16
ATOM     16  C   UNL     1     -39.439  50.516  -7.654  0.00  0.00    +0.000 C 
ATOM     17  C   UNL     1     -40.427  51.616  -7.254  0.00  0.00    +0.000 C 
BRANCH  17  19
ATOM     18  O   UNL     1     -42.556  52.479  -6.827  0.00  0.00    +0.000 OA
ATOM     19  C   UNL     1     -41.349  52.645  -6.880  0.00  0.00    +0.000 C 
BRANCH  19  20
ATOM     20  O   UNL     1     -40.768  53.822  -6.589  0.00  0.00    +0.000 OA
ATOM     21  H   UNL     1     -39.811  53.618  -6.602  0.00  0.00    +0.000 HD
ENDBRANCH  19  20
ENDBRANCH  17  19
ENDBRANCH  15  16
ENDBRANCH  14  15
ENDBRANCH   1  13
TORSDOF 5
ENDMDL
MODEL 6
REMARK VINA RESULT:      -5.1     24.574     25.471
REMARK  Name = 85668777_Hyaluronidase.pdbqt.pdb
REMARK  5 active torsions:
REMARK  status: ('A' for Active; 'I' for Inactive)
REMARK    1  A    between atoms: N_1  and  C_13
REMARK    2  A    between atoms: C_14  and  C_15
REMARK    3  A    between atoms: C_15  and  C_16
REMARK    4  A    between atoms: C_17  and  C_19
REMARK    5  A    between atoms: C_19  and  O_20
REMARK                            x       y       z     vdW  Elec       q    Type
REMARK                         _______ _______ _______ _____ _____    ______ ____
ROOT
ATOM      1  N   UNL     1     -33.590  44.285  -8.706  0.00  0.00    +0.000 N 
ATOM      2  C   UNL     1     -33.916  44.664  -6.338  0.00  0.00    +0.000 C 
ATOM      3  C   UNL     1     -33.959  43.181  -6.704  0.00  0.00    +0.000 A 
ATOM      4  C   UNL     1     -33.662  45.306  -7.757  0.00  0.00    +0.000 C 
ATOM      5  C   UNL     1     -33.764  43.033  -8.093  0.00  0.00    +0.000 A 
ATOM      6  C   UNL     1     -35.293  45.083  -5.733  0.00  0.00    +0.000 C 
ATOM      7  C   UNL     1     -32.729  44.913  -5.353  0.00  0.00    +0.000 C 
ATOM      8  C   UNL     1     -34.154  42.076  -5.888  0.00  0.00    +0.000 A 
ATOM      9  C   UNL     1     -33.759  41.780  -8.681  0.00  0.00    +0.000 A 
ATOM     10  C   UNL     1     -33.524  46.601  -8.108  0.00  0.00    +0.000 C 
ATOM     11  C   UNL     1     -34.150  40.814  -6.482  0.00  0.00    +0.000 A 
ATOM     12  C   UNL     1     -33.954  40.668  -7.862  0.00  0.00    +0.000 A 
ENDROOT
BRANCH   1  13
ATOM     13  C   UNL     1     -33.367  44.457 -10.121  0.00  0.00    +0.000 C 
ATOM     14  C   UNL     1     -33.128  44.636 -11.624  0.00  0.00    +0.000 C 
BRANCH  14  15
ATOM     15  C   UNL     1     -32.887  44.814 -13.126  0.00  0.00    +0.000 C 
BRANCH  15  16
ATOM     16  C   UNL     1     -32.647  44.991 -14.627  0.00  0.00    +0.000 C 
ATOM     17  C   UNL     1     -32.406  45.167 -16.130  0.00  0.00    +0.000 C 
BRANCH  17  19
ATOM     18  O   UNL     1     -31.672  44.474 -18.237  0.00  0.00    +0.000 OA
ATOM     19  C   UNL     1     -32.182  45.330 -17.535  0.00  0.00    +0.000 C 
BRANCH  19  20
ATOM     20  O   UNL     1     -32.583  46.518 -18.019  0.00  0.00    +0.000 OA
ATOM     21  H   UNL     1     -32.067  47.167 -17.499  0.00  0.00    +0.000 HD
ENDBRANCH  19  20
ENDBRANCH  17  19
ENDBRANCH  15  16
ENDBRANCH  14  15
ENDBRANCH   1  13
TORSDOF 5
ENDMDL
MODEL 7
REMARK VINA RESULT:      -5.0      0.852      3.000
REMARK  Name = 85668777_Hyaluronidase.pdbqt.pdb
REMARK  5 active torsions:
REMARK  status: ('A' for Active; 'I' for Inactive)
REMARK    1  A    between atoms: N_1  and  C_13
REMARK    2  A    between atoms: C_14  and  C_15
REMARK    3  A    between atoms: C_15  and  C_16
REMARK    4  A    between atoms: C_17  and  C_19
REMARK    5  A    between atoms: C_19  and  O_20
REMARK                            x       y       z     vdW  Elec       q    Type
REMARK                         _______ _______ _______ _____ _____    ______ ____
ROOT
ATOM      1  N   UNL     1     -16.536  54.326 -25.760  0.00  0.00    +0.000 N 
ATOM      2  C   UNL     1     -15.111  54.193 -23.809  0.00  0.00    +0.000 C 
ATOM      3  C   UNL     1     -15.730  55.579 -23.988  0.00  0.00    +0.000 A 
ATOM      4  C   UNL     1     -15.723  53.439 -25.053  0.00  0.00    +0.000 C 
ATOM      5  C   UNL     1     -16.544  55.586 -25.140  0.00  0.00    +0.000 A 
ATOM      6  C   UNL     1     -13.556  54.312 -23.891  0.00  0.00    +0.000 C 
ATOM      7  C   UNL     1     -15.595  53.590 -22.452  0.00  0.00    +0.000 C 
ATOM      8  C   UNL     1     -15.583  56.719 -23.210  0.00  0.00    +0.000 A 
ATOM      9  C   UNL     1     -17.222  56.730 -25.524  0.00  0.00    +0.000 A 
ATOM     10  C   UNL     1     -15.557  52.164 -25.458  0.00  0.00    +0.000 C 
ATOM     11  C   UNL     1     -16.266  57.871 -23.599  0.00  0.00    +0.000 A 
ATOM     12  C   UNL     1     -17.076  57.876 -24.742  0.00  0.00    +0.000 A 
ENDROOT
BRANCH   1  13
ATOM     13  C   UNL     1     -17.278  54.023 -26.961  0.00  0.00    +0.000 C 
ATOM     14  C   UNL     1     -18.061  53.699 -28.237  0.00  0.00    +0.000 C 
BRANCH  14  15
ATOM     15  C   UNL     1     -18.843  53.374 -29.513  0.00  0.00    +0.000 C 
BRANCH  15  16
ATOM     16  C   UNL     1     -19.623  53.049 -30.789  0.00  0.00    +0.000 C 
ATOM     17  C   UNL     1     -20.404  52.724 -32.066  0.00  0.00    +0.000 C 
BRANCH  17  19
ATOM     18  O   UNL     1     -21.446  53.255 -34.089  0.00  0.00    +0.000 OA
ATOM     19  C   UNL     1     -21.135  52.418 -33.259  0.00  0.00    +0.000 C 
BRANCH  19  20
ATOM     20  O   UNL     1     -21.454  51.118 -33.388  0.00  0.00    +0.000 OA
ATOM     21  H   UNL     1     -20.593  50.659 -33.303  0.00  0.00    +0.000 HD
ENDBRANCH  19  20
ENDBRANCH  17  19
ENDBRANCH  15  16
ENDBRANCH  14  15
ENDBRANCH   1  13
TORSDOF 5
ENDMDL
MODEL 8
REMARK VINA RESULT:      -5.0     23.137     24.473
REMARK  Name = 85668777_Hyaluronidase.pdbqt.pdb
REMARK  5 active torsions:
REMARK  status: ('A' for Active; 'I' for Inactive)
REMARK    1  A    between atoms: N_1  and  C_13
REMARK    2  A    between atoms: C_14  and  C_15
REMARK    3  A    between atoms: C_15  and  C_16
REMARK    4  A    between atoms: C_17  and  C_19
REMARK    5  A    between atoms: C_19  and  O_20
REMARK                            x       y       z     vdW  Elec       q    Type
REMARK                         _______ _______ _______ _____ _____    ______ ____
ROOT
ATOM      1  N   UNL     1     -33.603  45.710 -14.458  0.00  0.00    +0.000 N 
ATOM      2  C   UNL     1     -34.267  46.450 -16.665  0.00  0.00    +0.000 C 
ATOM      3  C   UNL     1     -32.941  45.689 -16.677  0.00  0.00    +0.000 A 
ATOM      4  C   UNL     1     -34.616  46.400 -15.127  0.00  0.00    +0.000 C 
ATOM      5  C   UNL     1     -32.615  45.289 -15.364  0.00  0.00    +0.000 A 
ATOM      6  C   UNL     1     -34.026  47.907 -17.173  0.00  0.00    +0.000 C 
ATOM      7  C   UNL     1     -35.308  45.676 -17.536  0.00  0.00    +0.000 C 
ATOM      8  C   UNL     1     -32.108  45.385 -17.744  0.00  0.00    +0.000 A 
ATOM      9  C   UNL     1     -31.456  44.580 -15.104  0.00  0.00    +0.000 A 
ATOM     10  C   UNL     1     -35.678  46.903 -14.464  0.00  0.00    +0.000 C 
ATOM     11  C   UNL     1     -30.940  44.670 -17.481  0.00  0.00    +0.000 A 
ATOM     12  C   UNL     1     -30.618  44.272 -16.176  0.00  0.00    +0.000 A 
ENDROOT
BRANCH   1  13
ATOM     13  C   UNL     1     -33.550  45.447 -13.040  0.00  0.00    +0.000 C 
ATOM     14  C   UNL     1     -33.489  45.171 -11.535  0.00  0.00    +0.000 C 
BRANCH  14  15
ATOM     15  C   UNL     1     -33.426  44.895 -10.030  0.00  0.00    +0.000 C 
BRANCH  15  16
ATOM     16  C   UNL     1     -33.365  44.620  -8.525  0.00  0.00    +0.000 C 
ATOM     17  C   UNL     1     -33.304  44.344  -7.019  0.00  0.00    +0.000 C 
BRANCH  17  19
ATOM     18  O   UNL     1     -34.202  44.232  -4.865  0.00  0.00    +0.000 OA
ATOM     19  C   UNL     1     -33.249  44.086  -5.612  0.00  0.00    +0.000 C 
BRANCH  19  20
ATOM     20  O   UNL     1     -32.048  43.666  -5.179  0.00  0.00    +0.000 OA
ATOM     21  H   UNL     1     -32.183  43.530  -4.219  0.00  0.00    +0.000 HD
ENDBRANCH  19  20
ENDBRANCH  17  19
ENDBRANCH  15  16
ENDBRANCH  14  15
ENDBRANCH   1  13
TORSDOF 5
ENDMDL
MODEL 9
REMARK VINA RESULT:      -4.9     24.450     25.394
REMARK  Name = 85668777_Hyaluronidase.pdbqt.pdb
REMARK  5 active torsions:
REMARK  status: ('A' for Active; 'I' for Inactive)
REMARK    1  A    between atoms: N_1  and  C_13
REMARK    2  A    between atoms: C_14  and  C_15
REMARK    3  A    between atoms: C_15  and  C_16
REMARK    4  A    between atoms: C_17  and  C_19
REMARK    5  A    between atoms: C_19  and  O_20
REMARK                            x       y       z     vdW  Elec       q    Type
REMARK                         _______ _______ _______ _____ _____    ______ ____
ROOT
ATOM      1  N   UNL     1     -34.466  44.183  -9.678  0.00  0.00    +0.000 N 
ATOM      2  C   UNL     1     -34.897  42.557  -7.938  0.00  0.00    +0.000 C 
ATOM      3  C   UNL     1     -34.104  43.762  -7.430  0.00  0.00    +0.000 A 
ATOM      4  C   UNL     1     -35.083  42.950  -9.454  0.00  0.00    +0.000 C 
ATOM      5  C   UNL     1     -33.889  44.665  -8.491  0.00  0.00    +0.000 A 
ATOM      6  C   UNL     1     -34.037  41.266  -7.759  0.00  0.00    +0.000 C 
ATOM      7  C   UNL     1     -36.257  42.482  -7.173  0.00  0.00    +0.000 C 
ATOM      8  C   UNL     1     -33.622  44.028  -6.156  0.00  0.00    +0.000 A 
ATOM      9  C   UNL     1     -33.191  45.843  -8.292  0.00  0.00    +0.000 A 
ATOM     10  C   UNL     1     -35.708  42.288 -10.449  0.00  0.00    +0.000 C 
ATOM     11  C   UNL     1     -32.919  45.215  -5.957  0.00  0.00    +0.000 A 
ATOM     12  C   UNL     1     -32.707  46.113  -7.012  0.00  0.00    +0.000 A 
ENDROOT
BRANCH   1  13
ATOM     13  C   UNL     1     -34.413  44.888 -10.936  0.00  0.00    +0.000 C 
ATOM     14  C   UNL     1     -34.353  45.641 -12.269  0.00  0.00    +0.000 C 
BRANCH  14  15
ATOM     15  C   UNL     1     -34.293  46.394 -13.601  0.00  0.00    +0.000 C 
BRANCH  15  16
ATOM     16  C   UNL     1     -34.232  47.146 -14.933  0.00  0.00    +0.000 C 
ATOM     17  C   UNL     1     -34.172  47.899 -16.266  0.00  0.00    +0.000 C 
BRANCH  17  19
ATOM     18  O   UNL     1     -34.898  49.488 -17.817  0.00  0.00    +0.000 OA
ATOM     19  C   UNL     1     -34.117  48.603 -17.511  0.00  0.00    +0.000 C 
BRANCH  19  20
ATOM     20  O   UNL     1     -33.124  48.202 -18.324  0.00  0.00    +0.000 OA
ATOM     21  H   UNL     1     -33.500  48.313 -19.221  0.00  0.00    +0.000 HD
ENDBRANCH  19  20
ENDBRANCH  17  19
ENDBRANCH  15  16
ENDBRANCH  14  15
ENDBRANCH   1  13
TORSDOF 5
ENDMDL
