MODEL 1
REMARK VINA RESULT:      -4.5      0.000      0.000
REMARK  Name = 86311066_OplopantriolA.pdbqt.pdb
REMARK  12 active torsions:
REMARK  status: ('A' for Active; 'I' for Inactive)
REMARK    1  A    between atoms: C_1  and  C_3
REMARK    2  A    between atoms: C_2  and  C_13
REMARK    3  A    between atoms: C_4  and  C_5
REMARK    4  A    between atoms: C_6  and  C_7
REMARK    5  A    between atoms: C_8  and  C_9
REMARK    6  A    between atoms: C_10  and  O_11
REMARK    7  A    between atoms: C_13  and  O_14
REMARK    8  A    between atoms: C_13  and  C_16
REMARK    9  A    between atoms: C_17  and  C_18
REMARK   10  A    between atoms: C_19  and  C_20
REMARK   11  A    between atoms: C_20  and  C_21
REMARK   12  A    between atoms: C_20  and  O_23
REMARK                            x       y       z     vdW  Elec       q    Type
REMARK                         _______ _______ _______ _____ _____    ______ ____
ROOT
ATOM      1  C   UNL     1     -17.748  56.055 -27.163  0.00  0.00    +0.000 C 
ATOM      2  C   UNL     1     -18.201  56.232 -28.262  0.00  0.00    +0.000 C 
ENDROOT
BRANCH   1   3
ATOM      3  C   UNL     1     -17.172  55.831 -25.763  0.00  0.00    +0.000 C 
ATOM      4  C   UNL     1     -16.596  55.605 -24.361  0.00  0.00    +0.000 C 
BRANCH   4   5
ATOM      5  C   UNL     1     -16.021  55.380 -22.960  0.00  0.00    +0.000 C 
ATOM      6  C   UNL     1     -15.445  55.154 -21.558  0.00  0.00    +0.000 C 
BRANCH   6   7
ATOM      7  C   UNL     1     -14.870  54.928 -20.157  0.00  0.00    +0.000 C 
ATOM      8  C   UNL     1     -14.295  54.701 -18.755  0.00  0.00    +0.000 C 
BRANCH   8   9
ATOM      9  C   UNL     1     -13.720  54.477 -17.354  0.00  0.00    +0.000 C 
ATOM     10  C   UNL     1     -13.145  54.251 -15.952  0.00  0.00    +0.000 C 
BRANCH  10  11
ATOM     11  O   UNL     1     -12.646  54.056 -14.738  0.00  0.00    +0.000 OA
ATOM     12  H   UNL     1     -12.594  54.898 -14.254  0.00  0.00    +0.000 HD
ENDBRANCH  10  11
ENDBRANCH   8   9
ENDBRANCH   6   7
ENDBRANCH   4   5
ENDBRANCH   1   3
BRANCH   2  13
ATOM     13  C   UNL     1     -18.734  56.441 -29.557  0.00  0.00    +0.000 C 
BRANCH  13  14
ATOM     14  O   UNL     1     -18.855  57.741 -29.993  0.00  0.00    +0.000 OA
ATOM     15  H   UNL     1     -18.145  58.304 -29.641  0.00  0.00    +0.000 HD
ENDBRANCH  13  14
BRANCH  13  16
ATOM     16  C   UNL     1     -19.144  55.391 -30.419  0.00  0.00    +0.000 C 
ATOM     17  C   UNL     1     -19.491  54.502 -31.147  0.00  0.00    +0.000 C 
BRANCH  17  18
ATOM     18  C   UNL     1     -19.932  53.366 -32.074  0.00  0.00    +0.000 C 
ATOM     19  C   UNL     1     -20.278  52.476 -32.801  0.00  0.00    +0.000 C 
BRANCH  19  20
ATOM     20  C   UNL     1     -20.688  51.424 -33.662  0.00  0.00    +0.000 C 
BRANCH  20  21
ATOM     21  C   UNL     1     -19.856  50.878 -34.680  0.00  0.00    +0.000 C 
ATOM     22  C   UNL     1     -19.064  50.372 -35.627  0.00  0.00    +0.000 C 
ENDBRANCH  20  21
BRANCH  20  23
ATOM     23  O   UNL     1     -21.957  50.905 -33.505  0.00  0.00    +0.000 OA
ATOM     24  H   UNL     1     -22.519  51.482 -32.959  0.00  0.00    +0.000 HD
ENDBRANCH  20  23
ENDBRANCH  19  20
ENDBRANCH  17  18
ENDBRANCH  13  16
ENDBRANCH   2  13
TORSDOF 12
ENDMDL
MODEL 2
REMARK VINA RESULT:      -4.4      4.399     14.585
REMARK  Name = 86311066_OplopantriolA.pdbqt.pdb
REMARK  12 active torsions:
REMARK  status: ('A' for Active; 'I' for Inactive)
REMARK    1  A    between atoms: C_1  and  C_3
REMARK    2  A    between atoms: C_2  and  C_13
REMARK    3  A    between atoms: C_4  and  C_5
REMARK    4  A    between atoms: C_6  and  C_7
REMARK    5  A    between atoms: C_8  and  C_9
REMARK    6  A    between atoms: C_10  and  O_11
REMARK    7  A    between atoms: C_13  and  O_14
REMARK    8  A    between atoms: C_13  and  C_16
REMARK    9  A    between atoms: C_17  and  C_18
REMARK   10  A    between atoms: C_19  and  C_20
REMARK   11  A    between atoms: C_20  and  C_21
REMARK   12  A    between atoms: C_20  and  O_23
REMARK                            x       y       z     vdW  Elec       q    Type
REMARK                         _______ _______ _______ _____ _____    ______ ____
ROOT
ATOM      1  C   UNL     1     -15.868  56.291 -23.186  0.00  0.00    +0.000 C 
ATOM      2  C   UNL     1     -15.389  56.701 -22.164  0.00  0.00    +0.000 C 
ENDROOT
BRANCH   1   3
ATOM      3  C   UNL     1     -16.480  55.769 -24.489  0.00  0.00    +0.000 C 
ATOM      4  C   UNL     1     -17.092  55.245 -25.792  0.00  0.00    +0.000 C 
BRANCH   4   5
ATOM      5  C   UNL     1     -17.703  54.721 -27.095  0.00  0.00    +0.000 C 
ATOM      6  C   UNL     1     -18.314  54.200 -28.399  0.00  0.00    +0.000 C 
BRANCH   6   7
ATOM      7  C   UNL     1     -18.925  53.677 -29.703  0.00  0.00    +0.000 C 
ATOM      8  C   UNL     1     -19.537  53.155 -31.006  0.00  0.00    +0.000 C 
BRANCH   8   9
ATOM      9  C   UNL     1     -20.149  52.634 -32.310  0.00  0.00    +0.000 C 
ATOM     10  C   UNL     1     -20.762  52.113 -33.614  0.00  0.00    +0.000 C 
BRANCH  10  11
ATOM     11  O   UNL     1     -21.292  51.661 -34.744  0.00  0.00    +0.000 OA
ATOM     12  H   UNL     1     -22.146  51.231 -34.568  0.00  0.00    +0.000 HD
ENDBRANCH  10  11
ENDBRANCH   8   9
ENDBRANCH   6   7
ENDBRANCH   4   5
ENDBRANCH   1   3
BRANCH   2  13
ATOM     13  C   UNL     1     -14.825  57.184 -20.958  0.00  0.00    +0.000 C 
BRANCH  13  14
ATOM     14  O   UNL     1     -13.452  57.202 -20.861  0.00  0.00    +0.000 OA
ATOM     15  H   UNL     1     -13.121  56.452 -20.339  0.00  0.00    +0.000 HD
ENDBRANCH  13  14
BRANCH  13  16
ATOM     16  C   UNL     1     -15.594  57.645 -19.859  0.00  0.00    +0.000 C 
ATOM     17  C   UNL     1     -16.244  58.035 -18.928  0.00  0.00    +0.000 C 
BRANCH  17  18
ATOM     18  C   UNL     1     -17.072  58.532 -17.739  0.00  0.00    +0.000 C 
ATOM     19  C   UNL     1     -17.721  58.921 -16.807  0.00  0.00    +0.000 C 
BRANCH  19  20
ATOM     20  C   UNL     1     -18.489  59.380 -15.705  0.00  0.00    +0.000 C 
BRANCH  20  21
ATOM     21  C   UNL     1     -18.099  60.473 -14.881  0.00  0.00    +0.000 C 
ATOM     22  C   UNL     1     -17.747  61.497 -14.102  0.00  0.00    +0.000 C 
ENDBRANCH  20  21
BRANCH  20  23
ATOM     23  O   UNL     1     -19.675  58.733 -15.418  0.00  0.00    +0.000 OA
ATOM     24  H   UNL     1     -20.144  58.463 -16.226  0.00  0.00    +0.000 HD
ENDBRANCH  20  23
ENDBRANCH  19  20
ENDBRANCH  17  18
ENDBRANCH  13  16
ENDBRANCH   2  13
TORSDOF 12
ENDMDL
MODEL 3
REMARK VINA RESULT:      -4.4      3.030      3.513
REMARK  Name = 86311066_OplopantriolA.pdbqt.pdb
REMARK  12 active torsions:
REMARK  status: ('A' for Active; 'I' for Inactive)
REMARK    1  A    between atoms: C_1  and  C_3
REMARK    2  A    between atoms: C_2  and  C_13
REMARK    3  A    between atoms: C_4  and  C_5
REMARK    4  A    between atoms: C_6  and  C_7
REMARK    5  A    between atoms: C_8  and  C_9
REMARK    6  A    between atoms: C_10  and  O_11
REMARK    7  A    between atoms: C_13  and  O_14
REMARK    8  A    between atoms: C_13  and  C_16
REMARK    9  A    between atoms: C_17  and  C_18
REMARK   10  A    between atoms: C_19  and  C_20
REMARK   11  A    between atoms: C_20  and  C_21
REMARK   12  A    between atoms: C_20  and  O_23
REMARK                            x       y       z     vdW  Elec       q    Type
REMARK                         _______ _______ _______ _____ _____    ______ ____
ROOT
ATOM      1  C   UNL     1     -18.123  56.200 -28.648  0.00  0.00    +0.000 C 
ATOM      2  C   UNL     1     -18.378  56.032 -29.809  0.00  0.00    +0.000 C 
ENDROOT
BRANCH   1   3
ATOM      3  C   UNL     1     -17.798  56.413 -27.167  0.00  0.00    +0.000 C 
ATOM      4  C   UNL     1     -17.474  56.627 -25.685  0.00  0.00    +0.000 C 
BRANCH   4   5
ATOM      5  C   UNL     1     -17.150  56.842 -24.204  0.00  0.00    +0.000 C 
ATOM      6  C   UNL     1     -16.828  57.057 -22.722  0.00  0.00    +0.000 C 
BRANCH   6   7
ATOM      7  C   UNL     1     -16.505  57.272 -21.240  0.00  0.00    +0.000 C 
ATOM      8  C   UNL     1     -16.182  57.487 -19.758  0.00  0.00    +0.000 C 
BRANCH   8   9
ATOM      9  C   UNL     1     -15.860  57.701 -18.276  0.00  0.00    +0.000 C 
ATOM     10  C   UNL     1     -15.537  57.914 -16.794  0.00  0.00    +0.000 C 
BRANCH  10  11
ATOM     11  O   UNL     1     -15.257  58.100 -15.510  0.00  0.00    +0.000 OA
ATOM     12  H   UNL     1     -15.531  57.327 -14.989  0.00  0.00    +0.000 HD
ENDBRANCH  10  11
ENDBRANCH   8   9
ENDBRANCH   6   7
ENDBRANCH   4   5
ENDBRANCH   1   3
BRANCH   2  13
ATOM     13  C   UNL     1     -18.680  55.834 -31.179  0.00  0.00    +0.000 C 
BRANCH  13  14
ATOM     14  O   UNL     1     -17.742  56.239 -32.102  0.00  0.00    +0.000 OA
ATOM     15  H   UNL     1     -17.477  55.509 -32.686  0.00  0.00    +0.000 HD
ENDBRANCH  13  14
BRANCH  13  16
ATOM     16  C   UNL     1     -19.885  55.246 -31.642  0.00  0.00    +0.000 C 
ATOM     17  C   UNL     1     -20.906  54.749 -32.033  0.00  0.00    +0.000 C 
BRANCH  17  18
ATOM     18  C   UNL     1     -22.208  54.116 -32.530  0.00  0.00    +0.000 C 
ATOM     19  C   UNL     1     -23.229  53.619 -32.920  0.00  0.00    +0.000 C 
BRANCH  19  20
ATOM     20  C   UNL     1     -24.436  53.031 -33.382  0.00  0.00    +0.000 C 
BRANCH  20  21
ATOM     21  C   UNL     1     -25.086  51.954 -32.716  0.00  0.00    +0.000 C 
ATOM     22  C   UNL     1     -25.708  50.946 -32.101  0.00  0.00    +0.000 C 
ENDBRANCH  20  21
BRANCH  20  23
ATOM     23  O   UNL     1     -25.008  53.530 -34.535  0.00  0.00    +0.000 OA
ATOM     24  H   UNL     1     -25.080  52.850 -35.226  0.00  0.00    +0.000 HD
ENDBRANCH  20  23
ENDBRANCH  19  20
ENDBRANCH  17  18
ENDBRANCH  13  16
ENDBRANCH   2  13
TORSDOF 12
ENDMDL
MODEL 4
REMARK VINA RESULT:      -4.3      4.102      4.606
REMARK  Name = 86311066_OplopantriolA.pdbqt.pdb
REMARK  12 active torsions:
REMARK  status: ('A' for Active; 'I' for Inactive)
REMARK    1  A    between atoms: C_1  and  C_3
REMARK    2  A    between atoms: C_2  and  C_13
REMARK    3  A    between atoms: C_4  and  C_5
REMARK    4  A    between atoms: C_6  and  C_7
REMARK    5  A    between atoms: C_8  and  C_9
REMARK    6  A    between atoms: C_10  and  O_11
REMARK    7  A    between atoms: C_13  and  O_14
REMARK    8  A    between atoms: C_13  and  C_16
REMARK    9  A    between atoms: C_17  and  C_18
REMARK   10  A    between atoms: C_19  and  C_20
REMARK   11  A    between atoms: C_20  and  C_21
REMARK   12  A    between atoms: C_20  and  O_23
REMARK                            x       y       z     vdW  Elec       q    Type
REMARK                         _______ _______ _______ _____ _____    ______ ____
ROOT
ATOM      1  C   UNL     1     -16.230  54.470 -25.107  0.00  0.00    +0.000 C 
ATOM      2  C   UNL     1     -16.149  53.837 -26.125  0.00  0.00    +0.000 C 
ENDROOT
BRANCH   1   3
ATOM      3  C   UNL     1     -16.333  55.274 -23.809  0.00  0.00    +0.000 C 
ATOM      4  C   UNL     1     -16.436  56.080 -22.510  0.00  0.00    +0.000 C 
BRANCH   4   5
ATOM      5  C   UNL     1     -16.538  56.884 -21.210  0.00  0.00    +0.000 C 
ATOM      6  C   UNL     1     -16.641  57.688 -19.910  0.00  0.00    +0.000 C 
BRANCH   6   7
ATOM      7  C   UNL     1     -16.745  58.492 -18.611  0.00  0.00    +0.000 C 
ATOM      8  C   UNL     1     -16.848  59.296 -17.311  0.00  0.00    +0.000 C 
BRANCH   8   9
ATOM      9  C   UNL     1     -16.951  60.099 -16.011  0.00  0.00    +0.000 C 
ATOM     10  C   UNL     1     -17.055  60.901 -14.711  0.00  0.00    +0.000 C 
BRANCH  10  11
ATOM     11  O   UNL     1     -17.144  61.597 -13.583  0.00  0.00    +0.000 OA
ATOM     12  H   UNL     1     -17.079  62.549 -13.768  0.00  0.00    +0.000 HD
ENDBRANCH  10  11
ENDBRANCH   8   9
ENDBRANCH   6   7
ENDBRANCH   4   5
ENDBRANCH   1   3
BRANCH   2  13
ATOM     13  C   UNL     1     -16.055  53.093 -27.326  0.00  0.00    +0.000 C 
BRANCH  13  14
ATOM     14  O   UNL     1     -14.946  52.295 -27.494  0.00  0.00    +0.000 OA
ATOM     15  H   UNL     1     -14.683  51.868 -26.662  0.00  0.00    +0.000 HD
ENDBRANCH  13  14
BRANCH  13  16
ATOM     16  C   UNL     1     -17.034  53.127 -28.352  0.00  0.00    +0.000 C 
ATOM     17  C   UNL     1     -17.863  53.156 -29.220  0.00  0.00    +0.000 C 
BRANCH  17  18
ATOM     18  C   UNL     1     -18.921  53.190 -30.327  0.00  0.00    +0.000 C 
ATOM     19  C   UNL     1     -19.750  53.217 -31.194  0.00  0.00    +0.000 C 
BRANCH  19  20
ATOM     20  C   UNL     1     -20.732  53.249 -32.220  0.00  0.00    +0.000 C 
BRANCH  20  21
ATOM     21  C   UNL     1     -21.089  54.433 -32.924  0.00  0.00    +0.000 C 
ATOM     22  C   UNL     1     -21.426  55.535 -33.597  0.00  0.00    +0.000 C 
ENDBRANCH  20  21
BRANCH  20  23
ATOM     23  O   UNL     1     -21.374  52.072 -32.549  0.00  0.00    +0.000 OA
ATOM     24  H   UNL     1     -21.225  51.380 -31.882  0.00  0.00    +0.000 HD
ENDBRANCH  20  23
ENDBRANCH  19  20
ENDBRANCH  17  18
ENDBRANCH  13  16
ENDBRANCH   2  13
TORSDOF 12
ENDMDL
MODEL 5
REMARK VINA RESULT:      -4.3      7.614     18.002
REMARK  Name = 86311066_OplopantriolA.pdbqt.pdb
REMARK  12 active torsions:
REMARK  status: ('A' for Active; 'I' for Inactive)
REMARK    1  A    between atoms: C_1  and  C_3
REMARK    2  A    between atoms: C_2  and  C_13
REMARK    3  A    between atoms: C_4  and  C_5
REMARK    4  A    between atoms: C_6  and  C_7
REMARK    5  A    between atoms: C_8  and  C_9
REMARK    6  A    between atoms: C_10  and  O_11
REMARK    7  A    between atoms: C_13  and  O_14
REMARK    8  A    between atoms: C_13  and  C_16
REMARK    9  A    between atoms: C_17  and  C_18
REMARK   10  A    between atoms: C_19  and  C_20
REMARK   11  A    between atoms: C_20  and  C_21
REMARK   12  A    between atoms: C_20  and  O_23
REMARK                            x       y       z     vdW  Elec       q    Type
REMARK                         _______ _______ _______ _____ _____    ______ ____
ROOT
ATOM      1  C   UNL     1     -17.567  59.762 -15.623  0.00  0.00    +0.000 C 
ATOM      2  C   UNL     1     -17.746  60.313 -14.571  0.00  0.00    +0.000 C 
ENDROOT
BRANCH   1   3
ATOM      3  C   UNL     1     -17.337  59.059 -16.964  0.00  0.00    +0.000 C 
ATOM      4  C   UNL     1     -17.106  58.357 -18.305  0.00  0.00    +0.000 C 
BRANCH   4   5
ATOM      5  C   UNL     1     -16.875  57.655 -19.647  0.00  0.00    +0.000 C 
ATOM      6  C   UNL     1     -16.646  56.951 -20.988  0.00  0.00    +0.000 C 
BRANCH   6   7
ATOM      7  C   UNL     1     -16.416  56.248 -22.329  0.00  0.00    +0.000 C 
ATOM      8  C   UNL     1     -16.186  55.545 -23.671  0.00  0.00    +0.000 C 
BRANCH   8   9
ATOM      9  C   UNL     1     -15.957  54.843 -25.012  0.00  0.00    +0.000 C 
ATOM     10  C   UNL     1     -15.728  54.140 -26.354  0.00  0.00    +0.000 C 
BRANCH  10  11
ATOM     11  O   UNL     1     -15.530  53.532 -27.517  0.00  0.00    +0.000 OA
ATOM     12  H   UNL     1     -15.800  52.599 -27.461  0.00  0.00    +0.000 HD
ENDBRANCH  10  11
ENDBRANCH   8   9
ENDBRANCH   6   7
ENDBRANCH   4   5
ENDBRANCH   1   3
BRANCH   2  13
ATOM     13  C   UNL     1     -17.958  60.965 -13.332  0.00  0.00    +0.000 C 
BRANCH  13  14
ATOM     14  O   UNL     1     -18.199  62.319 -13.358  0.00  0.00    +0.000 OA
ATOM     15  H   UNL     1     -18.118  62.680 -14.257  0.00  0.00    +0.000 HD
ENDBRANCH  13  14
BRANCH  13  16
ATOM     16  C   UNL     1     -17.934  60.299 -12.079  0.00  0.00    +0.000 C 
ATOM     17  C   UNL     1     -17.914  59.735 -11.019  0.00  0.00    +0.000 C 
BRANCH  17  18
ATOM     18  C   UNL     1     -17.889  59.014  -9.669  0.00  0.00    +0.000 C 
ATOM     19  C   UNL     1     -17.869  58.448  -8.610  0.00  0.00    +0.000 C 
BRANCH  19  20
ATOM     20  C   UNL     1     -17.846  57.778  -7.359  0.00  0.00    +0.000 C 
BRANCH  20  21
ATOM     21  C   UNL     1     -17.670  58.449  -6.116  0.00  0.00    +0.000 C 
ATOM     22  C   UNL     1     -17.516  59.069  -4.944  0.00  0.00    +0.000 C 
ENDBRANCH  20  21
BRANCH  20  23
ATOM     23  O   UNL     1     -18.001  56.406  -7.347  0.00  0.00    +0.000 OA
ATOM     24  H   UNL     1     -18.645  56.121  -6.677  0.00  0.00    +0.000 HD
ENDBRANCH  20  23
ENDBRANCH  19  20
ENDBRANCH  17  18
ENDBRANCH  13  16
ENDBRANCH   2  13
TORSDOF 12
ENDMDL
MODEL 6
REMARK VINA RESULT:      -4.3     18.581     22.524
REMARK  Name = 86311066_OplopantriolA.pdbqt.pdb
REMARK  12 active torsions:
REMARK  status: ('A' for Active; 'I' for Inactive)
REMARK    1  A    between atoms: C_1  and  C_3
REMARK    2  A    between atoms: C_2  and  C_13
REMARK    3  A    between atoms: C_4  and  C_5
REMARK    4  A    between atoms: C_6  and  C_7
REMARK    5  A    between atoms: C_8  and  C_9
REMARK    6  A    between atoms: C_10  and  O_11
REMARK    7  A    between atoms: C_13  and  O_14
REMARK    8  A    between atoms: C_13  and  C_16
REMARK    9  A    between atoms: C_17  and  C_18
REMARK   10  A    between atoms: C_19  and  C_20
REMARK   11  A    between atoms: C_20  and  C_21
REMARK   12  A    between atoms: C_20  and  O_23
REMARK                            x       y       z     vdW  Elec       q    Type
REMARK                         _______ _______ _______ _____ _____    ______ ____
ROOT
ATOM      1  C   UNL     1     -29.721  65.698 -17.368  0.00  0.00    +0.000 C 
ATOM      2  C   UNL     1     -30.011  66.214 -16.322  0.00  0.00    +0.000 C 
ENDROOT
BRANCH   1   3
ATOM      3  C   UNL     1     -29.353  65.042 -18.701  0.00  0.00    +0.000 C 
ATOM      4  C   UNL     1     -28.985  64.385 -20.034  0.00  0.00    +0.000 C 
BRANCH   4   5
ATOM      5  C   UNL     1     -28.615  63.728 -21.368  0.00  0.00    +0.000 C 
ATOM      6  C   UNL     1     -28.247  63.072 -22.702  0.00  0.00    +0.000 C 
BRANCH   6   7
ATOM      7  C   UNL     1     -27.879  62.415 -24.036  0.00  0.00    +0.000 C 
ATOM      8  C   UNL     1     -27.511  61.759 -25.370  0.00  0.00    +0.000 C 
BRANCH   8   9
ATOM      9  C   UNL     1     -27.142  61.103 -26.704  0.00  0.00    +0.000 C 
ATOM     10  C   UNL     1     -26.771  60.447 -28.038  0.00  0.00    +0.000 C 
BRANCH  10  11
ATOM     11  O   UNL     1     -26.451  59.878 -29.194  0.00  0.00    +0.000 OA
ATOM     12  H   UNL     1     -26.500  58.910 -29.119  0.00  0.00    +0.000 HD
ENDBRANCH  10  11
ENDBRANCH   8   9
ENDBRANCH   6   7
ENDBRANCH   4   5
ENDBRANCH   1   3
BRANCH   2  13
ATOM     13  C   UNL     1     -30.353  66.820 -15.088  0.00  0.00    +0.000 C 
BRANCH  13  14
ATOM     14  O   UNL     1     -29.741  68.012 -14.775  0.00  0.00    +0.000 OA
ATOM     15  H   UNL     1     -29.751  68.628 -15.526  0.00  0.00    +0.000 HD
ENDBRANCH  13  14
BRANCH  13  16
ATOM     16  C   UNL     1     -31.283  66.267 -14.171  0.00  0.00    +0.000 C 
ATOM     17  C   UNL     1     -32.071  65.800 -13.394  0.00  0.00    +0.000 C 
BRANCH  17  18
ATOM     18  C   UNL     1     -33.074  65.206 -12.403  0.00  0.00    +0.000 C 
ATOM     19  C   UNL     1     -33.862  64.741 -11.625  0.00  0.00    +0.000 C 
BRANCH  19  20
ATOM     20  C   UNL     1     -34.792  64.189 -10.704  0.00  0.00    +0.000 C 
BRANCH  20  21
ATOM     21  C   UNL     1     -35.416  62.924 -10.888  0.00  0.00    +0.000 C 
ATOM     22  C   UNL     1     -35.994  61.731 -11.047  0.00  0.00    +0.000 C 
ENDBRANCH  20  21
BRANCH  20  23
ATOM     23  O   UNL     1     -35.107  64.919  -9.576  0.00  0.00    +0.000 OA
ATOM     24  H   UNL     1     -35.166  65.871  -9.765  0.00  0.00    +0.000 HD
ENDBRANCH  20  23
ENDBRANCH  19  20
ENDBRANCH  17  18
ENDBRANCH  13  16
ENDBRANCH   2  13
TORSDOF 12
ENDMDL
MODEL 7
REMARK VINA RESULT:      -4.2     19.066     25.853
REMARK  Name = 86311066_OplopantriolA.pdbqt.pdb
REMARK  12 active torsions:
REMARK  status: ('A' for Active; 'I' for Inactive)
REMARK    1  A    between atoms: C_1  and  C_3
REMARK    2  A    between atoms: C_2  and  C_13
REMARK    3  A    between atoms: C_4  and  C_5
REMARK    4  A    between atoms: C_6  and  C_7
REMARK    5  A    between atoms: C_8  and  C_9
REMARK    6  A    between atoms: C_10  and  O_11
REMARK    7  A    between atoms: C_13  and  O_14
REMARK    8  A    between atoms: C_13  and  C_16
REMARK    9  A    between atoms: C_17  and  C_18
REMARK   10  A    between atoms: C_19  and  C_20
REMARK   11  A    between atoms: C_20  and  C_21
REMARK   12  A    between atoms: C_20  and  O_23
REMARK                            x       y       z     vdW  Elec       q    Type
REMARK                         _______ _______ _______ _____ _____    ______ ____
ROOT
ATOM      1  C   UNL     1     -15.018  45.432  -3.232  0.00  0.00    +0.000 C 
ATOM      2  C   UNL     1     -15.398  44.517  -2.553  0.00  0.00    +0.000 C 
ENDROOT
BRANCH   1   3
ATOM      3  C   UNL     1     -14.535  46.600  -4.096  0.00  0.00    +0.000 C 
ATOM      4  C   UNL     1     -14.052  47.768  -4.961  0.00  0.00    +0.000 C 
BRANCH   4   5
ATOM      5  C   UNL     1     -13.568  48.936  -5.826  0.00  0.00    +0.000 C 
ATOM      6  C   UNL     1     -13.085  50.103  -6.693  0.00  0.00    +0.000 C 
BRANCH   6   7
ATOM      7  C   UNL     1     -12.602  51.270  -7.559  0.00  0.00    +0.000 C 
ATOM      8  C   UNL     1     -12.118  52.437  -8.425  0.00  0.00    +0.000 C 
BRANCH   8   9
ATOM      9  C   UNL     1     -11.635  53.605  -9.290  0.00  0.00    +0.000 C 
ATOM     10  C   UNL     1     -11.152  54.772 -10.156  0.00  0.00    +0.000 C 
BRANCH  10  11
ATOM     11  O   UNL     1     -10.733  55.785 -10.906  0.00  0.00    +0.000 OA
ATOM     12  H   UNL     1      -9.762  55.829 -10.903  0.00  0.00    +0.000 HD
ENDBRANCH  10  11
ENDBRANCH   8   9
ENDBRANCH   6   7
ENDBRANCH   4   5
ENDBRANCH   1   3
BRANCH   2  13
ATOM     13  C   UNL     1     -15.846  43.436  -1.755  0.00  0.00    +0.000 C 
BRANCH  13  14
ATOM     14  O   UNL     1     -15.255  43.267  -0.524  0.00  0.00    +0.000 OA
ATOM     15  H   UNL     1     -15.890  43.398   0.200  0.00  0.00    +0.000 HD
ENDBRANCH  13  14
BRANCH  13  16
ATOM     16  C   UNL     1     -16.862  42.530  -2.155  0.00  0.00    +0.000 C 
ATOM     17  C   UNL     1     -17.721  41.763  -2.493  0.00  0.00    +0.000 C 
BRANCH  17  18
ATOM     18  C   UNL     1     -18.815  40.783  -2.924  0.00  0.00    +0.000 C 
ATOM     19  C   UNL     1     -19.674  40.014  -3.262  0.00  0.00    +0.000 C 
BRANCH  19  20
ATOM     20  C   UNL     1     -20.689  39.106  -3.662  0.00  0.00    +0.000 C 
BRANCH  20  21
ATOM     21  C   UNL     1     -20.929  37.865  -3.009  0.00  0.00    +0.000 C 
ATOM     22  C   UNL     1     -21.169  36.704  -2.395  0.00  0.00    +0.000 C 
ENDBRANCH  20  21
BRANCH  20  23
ATOM     23  O   UNL     1     -21.482  39.444  -4.740  0.00  0.00    +0.000 OA
ATOM     24  H   UNL     1     -21.562  38.712  -5.375  0.00  0.00    +0.000 HD
ENDBRANCH  20  23
ENDBRANCH  19  20
ENDBRANCH  17  18
ENDBRANCH  13  16
ENDBRANCH   2  13
TORSDOF 12
ENDMDL
MODEL 8
REMARK VINA RESULT:      -4.2     20.825     21.101
REMARK  Name = 86311066_OplopantriolA.pdbqt.pdb
REMARK  12 active torsions:
REMARK  status: ('A' for Active; 'I' for Inactive)
REMARK    1  A    between atoms: C_1  and  C_3
REMARK    2  A    between atoms: C_2  and  C_13
REMARK    3  A    between atoms: C_4  and  C_5
REMARK    4  A    between atoms: C_6  and  C_7
REMARK    5  A    between atoms: C_8  and  C_9
REMARK    6  A    between atoms: C_10  and  O_11
REMARK    7  A    between atoms: C_13  and  O_14
REMARK    8  A    between atoms: C_13  and  C_16
REMARK    9  A    between atoms: C_17  and  C_18
REMARK   10  A    between atoms: C_19  and  C_20
REMARK   11  A    between atoms: C_20  and  C_21
REMARK   12  A    between atoms: C_20  and  O_23
REMARK                            x       y       z     vdW  Elec       q    Type
REMARK                         _______ _______ _______ _____ _____    ______ ____
ROOT
ATOM      1  C   UNL     1     -35.990  49.240 -17.419  0.00  0.00    +0.000 C 
ATOM      2  C   UNL     1     -36.199  49.883 -18.412  0.00  0.00    +0.000 C 
ENDROOT
BRANCH   1   3
ATOM      3  C   UNL     1     -35.726  48.419 -16.154  0.00  0.00    +0.000 C 
ATOM      4  C   UNL     1     -35.461  47.599 -14.888  0.00  0.00    +0.000 C 
BRANCH   4   5
ATOM      5  C   UNL     1     -35.195  46.779 -13.622  0.00  0.00    +0.000 C 
ATOM      6  C   UNL     1     -34.931  45.957 -12.356  0.00  0.00    +0.000 C 
BRANCH   6   7
ATOM      7  C   UNL     1     -34.666  45.136 -11.091  0.00  0.00    +0.000 C 
ATOM      8  C   UNL     1     -34.401  44.315  -9.825  0.00  0.00    +0.000 C 
BRANCH   8   9
ATOM      9  C   UNL     1     -34.137  43.495  -8.558  0.00  0.00    +0.000 C 
ATOM     10  C   UNL     1     -33.873  42.676  -7.292  0.00  0.00    +0.000 C 
BRANCH  10  11
ATOM     11  O   UNL     1     -33.644  41.965  -6.194  0.00  0.00    +0.000 OA
ATOM     12  H   UNL     1     -32.739  41.611  -6.203  0.00  0.00    +0.000 HD
ENDBRANCH  10  11
ENDBRANCH   8   9
ENDBRANCH   6   7
ENDBRANCH   4   5
ENDBRANCH   1   3
BRANCH   2  13
ATOM     13  C   UNL     1     -36.445  50.642 -19.582  0.00  0.00    +0.000 C 
BRANCH  13  14
ATOM     14  O   UNL     1     -37.297  51.717 -19.475  0.00  0.00    +0.000 OA
ATOM     15  H   UNL     1     -36.841  52.555 -19.659  0.00  0.00    +0.000 HD
ENDBRANCH  13  14
BRANCH  13  16
ATOM     16  C   UNL     1     -35.864  50.354 -20.844  0.00  0.00    +0.000 C 
ATOM     17  C   UNL     1     -35.373  50.110 -21.912  0.00  0.00    +0.000 C 
BRANCH  17  18
ATOM     18  C   UNL     1     -34.745  49.802 -23.274  0.00  0.00    +0.000 C 
ATOM     19  C   UNL     1     -34.254  49.561 -24.342  0.00  0.00    +0.000 C 
BRANCH  19  20
ATOM     20  C   UNL     1     -33.672  49.274 -25.606  0.00  0.00    +0.000 C 
BRANCH  20  21
ATOM     21  C   UNL     1     -33.600  47.962 -26.153  0.00  0.00    +0.000 C 
ATOM     22  C   UNL     1     -33.542  46.737 -26.678  0.00  0.00    +0.000 C 
ENDBRANCH  20  21
BRANCH  20  23
ATOM     23  O   UNL     1     -33.150  50.320 -26.339  0.00  0.00    +0.000 OA
ATOM     24  H   UNL     1     -33.731  51.100 -26.321  0.00  0.00    +0.000 HD
ENDBRANCH  20  23
ENDBRANCH  19  20
ENDBRANCH  17  18
ENDBRANCH  13  16
ENDBRANCH   2  13
TORSDOF 12
ENDMDL
MODEL 9
REMARK VINA RESULT:      -4.2      4.001     14.224
REMARK  Name = 86311066_OplopantriolA.pdbqt.pdb
REMARK  12 active torsions:
REMARK  status: ('A' for Active; 'I' for Inactive)
REMARK    1  A    between atoms: C_1  and  C_3
REMARK    2  A    between atoms: C_2  and  C_13
REMARK    3  A    between atoms: C_4  and  C_5
REMARK    4  A    between atoms: C_6  and  C_7
REMARK    5  A    between atoms: C_8  and  C_9
REMARK    6  A    between atoms: C_10  and  O_11
REMARK    7  A    between atoms: C_13  and  O_14
REMARK    8  A    between atoms: C_13  and  C_16
REMARK    9  A    between atoms: C_17  and  C_18
REMARK   10  A    between atoms: C_19  and  C_20
REMARK   11  A    between atoms: C_20  and  C_21
REMARK   12  A    between atoms: C_20  and  O_23
REMARK                            x       y       z     vdW  Elec       q    Type
REMARK                         _______ _______ _______ _____ _____    ______ ____
ROOT
ATOM      1  C   UNL     1     -16.224  54.728 -24.638  0.00  0.00    +0.000 C 
ATOM      2  C   UNL     1     -15.667  54.991 -23.607  0.00  0.00    +0.000 C 
ENDROOT
BRANCH   1   3
ATOM      3  C   UNL     1     -16.933  54.392 -25.953  0.00  0.00    +0.000 C 
ATOM      4  C   UNL     1     -17.641  54.054 -27.269  0.00  0.00    +0.000 C 
BRANCH   4   5
ATOM      5  C   UNL     1     -18.349  53.717 -28.585  0.00  0.00    +0.000 C 
ATOM      6  C   UNL     1     -19.055  53.379 -29.901  0.00  0.00    +0.000 C 
BRANCH   6   7
ATOM      7  C   UNL     1     -19.762  53.041 -31.217  0.00  0.00    +0.000 C 
ATOM      8  C   UNL     1     -20.468  52.703 -32.534  0.00  0.00    +0.000 C 
BRANCH   8   9
ATOM      9  C   UNL     1     -21.174  52.365 -33.850  0.00  0.00    +0.000 C 
ATOM     10  C   UNL     1     -21.880  52.025 -35.166  0.00  0.00    +0.000 C 
BRANCH  10  11
ATOM     11  O   UNL     1     -22.492  51.732 -36.307  0.00  0.00    +0.000 OA
ATOM     12  H   UNL     1     -23.231  51.121 -36.147  0.00  0.00    +0.000 HD
ENDBRANCH  10  11
ENDBRANCH   8   9
ENDBRANCH   6   7
ENDBRANCH   4   5
ENDBRANCH   1   3
BRANCH   2  13
ATOM     13  C   UNL     1     -15.011  55.303 -22.391  0.00  0.00    +0.000 C 
BRANCH  13  14
ATOM     14  O   UNL     1     -13.836  54.642 -22.115  0.00  0.00    +0.000 OA
ATOM     15  H   UNL     1     -13.501  54.166 -22.894  0.00  0.00    +0.000 HD
ENDBRANCH  13  14
BRANCH  13  16
ATOM     16  C   UNL     1     -15.498  56.250 -21.455  0.00  0.00    +0.000 C 
ATOM     17  C   UNL     1     -15.910  57.053 -20.663  0.00  0.00    +0.000 C 
BRANCH  17  18
ATOM     18  C   UNL     1     -16.434  58.078 -19.654  0.00  0.00    +0.000 C 
ATOM     19  C   UNL     1     -16.846  58.883 -18.863  0.00  0.00    +0.000 C 
BRANCH  19  20
ATOM     20  C   UNL     1     -17.333  59.833 -17.926  0.00  0.00    +0.000 C 
BRANCH  20  21
ATOM     21  C   UNL     1     -18.071  60.990 -18.300  0.00  0.00    +0.000 C 
ATOM     22  C   UNL     1     -18.778  62.067 -18.650  0.00  0.00    +0.000 C 
ENDBRANCH  20  21
BRANCH  20  23
ATOM     23  O   UNL     1     -17.075  59.623 -16.587  0.00  0.00    +0.000 OA
ATOM     24  H   UNL     1     -17.309  58.721 -16.310  0.00  0.00    +0.000 HD
ENDBRANCH  20  23
ENDBRANCH  19  20
ENDBRANCH  17  18
ENDBRANCH  13  16
ENDBRANCH   2  13
TORSDOF 12
ENDMDL
