MODEL 1
REMARK VINA RESULT:      -7.6      0.000      0.000
REMARK  Name = 91746246_sitosterol.pdbqt.pdb
REMARK  10 active torsions:
REMARK  status: ('A' for Active; 'I' for Inactive)
REMARK    1  A    between atoms: C_5  and  C_20
REMARK    2  A    between atoms: C_19  and  O_30
REMARK    3  A    between atoms: C_20  and  C_22
REMARK    4  A    between atoms: C_23  and  C_24
REMARK    5  A    between atoms: C_24  and  C_28
REMARK    6  A    between atoms: O_30  and  C_32
REMARK    7  A    between atoms: C_32  and  C_33
REMARK    8  A    between atoms: C_34  and  C_35
REMARK    9  A    between atoms: C_38  and  O_41
REMARK   10  A    between atoms: C_40  and  O_43
REMARK                            x       y       z     vdW  Elec       q    Type
REMARK                         _______ _______ _______ _____ _____    ______ ____
ROOT
ATOM      1  C   UNL     1     -35.385  46.469 -15.102  0.00  0.00    +0.000 C 
ATOM      2  C   UNL     1     -36.373  47.022 -13.942  0.00  0.00    +0.000 C 
ATOM      3  C   UNL     1     -36.313  46.527 -12.552  0.00  0.00    +0.000 C 
ATOM      4  C   UNL     1     -35.216  45.676 -11.962  0.00  0.00    +0.000 C 
ATOM      5  C   UNL     1     -34.972  47.739 -15.835  0.00  0.00    +0.000 C 
ATOM      6  C   UNL     1     -34.309  45.795 -14.378  0.00  0.00    +0.000 C 
ATOM      7  C   UNL     1     -35.233  45.138 -10.507  0.00  0.00    +0.000 C 
ATOM      8  C   UNL     1     -36.598  48.411 -14.201  0.00  0.00    +0.000 C 
ATOM      9  C   UNL     1     -34.215  45.390 -12.927  0.00  0.00    +0.000 C 
ATOM     10  C   UNL     1     -35.718  48.849 -15.341  0.00  0.00    +0.000 C 
ATOM     11  C   UNL     1     -37.250  46.959 -11.581  0.00  0.00    +0.000 C 
ATOM     12  C   UNL     1     -36.233  45.543 -16.014  0.00  0.00    +0.000 C 
ATOM     13  C   UNL     1     -36.290  45.923  -9.513  0.00  0.00    +0.000 C 
ATOM     14  C   UNL     1     -33.907  45.357  -9.856  0.00  0.00    +0.000 C 
ATOM     15  C   UNL     1     -37.189  46.638 -10.118  0.00  0.00    +0.000 C 
ATOM     16  C   UNL     1     -35.640  43.635 -10.519  0.00  0.00    +0.000 C 
ATOM     17  C   UNL     1     -35.718  46.456  -8.297  0.00  0.00    +0.000 C 
ATOM     18  C   UNL     1     -33.462  46.017  -8.541  0.00  0.00    +0.000 C 
ATOM     19  C   UNL     1     -34.433  46.613  -7.667  0.00  0.00    +0.000 C 
ENDROOT
BRANCH   5  20
ATOM     20  C   UNL     1     -34.160  47.760 -17.010  0.00  0.00    +0.000 C 
ATOM     21  C   UNL     1     -34.439  48.684 -18.164  0.00  0.00    +0.000 C 
BRANCH  20  22
ATOM     22  C   UNL     1     -33.200  46.738 -17.255  0.00  0.00    +0.000 C 
ATOM     23  C   UNL     1     -32.165  45.634 -17.521  0.00  0.00    +0.000 C 
BRANCH  23  24
ATOM     24  C   UNL     1     -31.216  44.597 -17.768  0.00  0.00    +0.000 C 
ATOM     25  C   UNL     1     -30.329  44.129 -16.724  0.00  0.00    +0.000 C 
ATOM     26  C   UNL     1     -29.279  43.062 -16.942  0.00  0.00    +0.000 C 
ATOM     27  C   UNL     1     -30.376  44.667 -15.309  0.00  0.00    +0.000 C 
BRANCH  24  28
ATOM     28  C   UNL     1     -31.140  44.012 -19.061  0.00  0.00    +0.000 C 
ATOM     29  C   UNL     1     -31.021  43.329 -20.428  0.00  0.00    +0.000 C 
ENDBRANCH  24  28
ENDBRANCH  23  24
ENDBRANCH  20  22
ENDBRANCH   5  20
BRANCH  19  30
ATOM     30  O   UNL     1     -34.348  46.444  -6.288  0.00  0.00    +0.000 OA
BRANCH  30  32
ATOM     31  O   UNL     1     -36.316  45.751  -5.260  0.00  0.00    +0.000 OA
ATOM     32  C   UNL     1     -35.260  45.534  -5.835  0.00  0.00    +0.000 C 
BRANCH  32  33
ATOM     33  C   UNL     1     -34.857  44.185  -6.144  0.00  0.00    +0.000 C 
ATOM     34  C   UNL     1     -34.516  43.058  -6.384  0.00  0.00    +0.000 C 
BRANCH  34  35
ATOM     35  C   UNL     1     -34.105  41.718  -6.650  0.00  0.00    +0.000 A 
ATOM     36  C   UNL     1     -34.021  41.269  -7.967  0.00  0.00    +0.000 A 
ATOM     37  C   UNL     1     -33.795  40.861  -5.598  0.00  0.00    +0.000 A 
ATOM     38  C   UNL     1     -33.625  39.959  -8.249  0.00  0.00    +0.000 A 
ATOM     39  C   UNL     1     -33.400  39.552  -5.864  0.00  0.00    +0.000 A 
ATOM     40  C   UNL     1     -33.318  39.109  -7.183  0.00  0.00    +0.000 A 
BRANCH  38  41
ATOM     41  O   UNL     1     -33.518  39.438  -9.515  0.00  0.00    +0.000 OA
ATOM     42  C   UNL     1     -34.253  40.105 -10.508  0.00  0.00    +0.000 C 
ENDBRANCH  38  41
BRANCH  40  43
ATOM     43  O   UNL     1     -32.931  37.822  -7.438  0.00  0.00    +0.000 OA
ATOM     44  H   UNL     1     -33.662  37.222  -7.196  0.00  0.00    +0.000 HD
ENDBRANCH  40  43
ENDBRANCH  34  35
ENDBRANCH  32  33
ENDBRANCH  30  32
ENDBRANCH  19  30
TORSDOF 10
ENDMDL
MODEL 2
REMARK VINA RESULT:      -7.4     19.934     24.310
REMARK  Name = 91746246_sitosterol.pdbqt.pdb
REMARK  10 active torsions:
REMARK  status: ('A' for Active; 'I' for Inactive)
REMARK    1  A    between atoms: C_5  and  C_20
REMARK    2  A    between atoms: C_19  and  O_30
REMARK    3  A    between atoms: C_20  and  C_22
REMARK    4  A    between atoms: C_23  and  C_24
REMARK    5  A    between atoms: C_24  and  C_28
REMARK    6  A    between atoms: O_30  and  C_32
REMARK    7  A    between atoms: C_32  and  C_33
REMARK    8  A    between atoms: C_34  and  C_35
REMARK    9  A    between atoms: C_38  and  O_41
REMARK   10  A    between atoms: C_40  and  O_43
REMARK                            x       y       z     vdW  Elec       q    Type
REMARK                         _______ _______ _______ _____ _____    ______ ____
ROOT
ATOM      1  C   UNL     1     -15.384  46.446   5.190  0.00  0.00    +0.000 C 
ATOM      2  C   UNL     1     -15.548  44.838   5.310  0.00  0.00    +0.000 C 
ATOM      3  C   UNL     1     -16.222  44.197   6.457  0.00  0.00    +0.000 C 
ATOM      4  C   UNL     1     -17.051  44.900   7.503  0.00  0.00    +0.000 C 
ATOM      5  C   UNL     1     -15.719  46.718   3.729  0.00  0.00    +0.000 C 
ATOM      6  C   UNL     1     -16.341  46.987   6.154  0.00  0.00    +0.000 C 
ATOM      7  C   UNL     1     -17.692  44.182   8.719  0.00  0.00    +0.000 C 
ATOM      8  C   UNL     1     -15.740  44.330   3.987  0.00  0.00    +0.000 C 
ATOM      9  C   UNL     1     -17.109  46.298   7.256  0.00  0.00    +0.000 C 
ATOM     10  C   UNL     1     -15.872  45.484   3.030  0.00  0.00    +0.000 C 
ATOM     11  C   UNL     1     -16.268  42.787   6.583  0.00  0.00    +0.000 C 
ATOM     12  C   UNL     1     -13.898  46.774   5.497  0.00  0.00    +0.000 C 
ATOM     13  C   UNL     1     -17.793  42.543   8.554  0.00  0.00    +0.000 C 
ATOM     14  C   UNL     1     -19.113  44.608   8.886  0.00  0.00    +0.000 C 
ATOM     15  C   UNL     1     -17.050  42.036   7.619  0.00  0.00    +0.000 C 
ATOM     16  C   UNL     1     -16.842  44.466   9.992  0.00  0.00    +0.000 C 
ATOM     17  C   UNL     1     -19.113  41.982   8.738  0.00  0.00    +0.000 C 
ATOM     18  C   UNL     1     -20.446  43.851   9.011  0.00  0.00    +0.000 C 
ATOM     19  C   UNL     1     -20.470  42.416   8.946  0.00  0.00    +0.000 C 
ENDROOT
BRANCH   5  20
ATOM     20  C   UNL     1     -15.629  48.001   3.110  0.00  0.00    +0.000 C 
ATOM     21  C   UNL     1     -14.781  48.248   1.891  0.00  0.00    +0.000 C 
BRANCH  20  22
ATOM     22  C   UNL     1     -16.135  49.163   3.756  0.00  0.00    +0.000 C 
ATOM     23  C   UNL     1     -16.680  50.417   4.456  0.00  0.00    +0.000 C 
BRANCH  23  24
ATOM     24  C   UNL     1     -17.199  51.572   5.116  0.00  0.00    +0.000 C 
ATOM     25  C   UNL     1     -17.468  51.565   6.538  0.00  0.00    +0.000 C 
ATOM     26  C   UNL     1     -18.056  52.746   7.279  0.00  0.00    +0.000 C 
ATOM     27  C   UNL     1     -17.182  50.367   7.419  0.00  0.00    +0.000 C 
BRANCH  24  28
ATOM     28  C   UNL     1     -17.456  52.750   4.364  0.00  0.00    +0.000 C 
ATOM     29  C   UNL     1     -17.664  54.031   3.548  0.00  0.00    +0.000 C 
ENDBRANCH  24  28
ENDBRANCH  23  24
ENDBRANCH  20  22
ENDBRANCH   5  20
BRANCH  19  30
ATOM     30  O   UNL     1     -21.275  41.679   9.808  0.00  0.00    +0.000 OA
BRANCH  30  32
ATOM     31  O   UNL     1     -23.253  42.674  10.519  0.00  0.00    +0.000 OA
ATOM     32  C   UNL     1     -22.586  42.047   9.710  0.00  0.00    +0.000 C 
BRANCH  32  33
ATOM     33  C   UNL     1     -23.160  41.627   8.455  0.00  0.00    +0.000 C 
ATOM     34  C   UNL     1     -23.634  41.295   7.402  0.00  0.00    +0.000 C 
BRANCH  34  35
ATOM     35  C   UNL     1     -24.191  40.917   6.145  0.00  0.00    +0.000 A 
ATOM     36  C   UNL     1     -23.622  39.870   5.423  0.00  0.00    +0.000 A 
ATOM     37  C   UNL     1     -25.295  41.598   5.638  0.00  0.00    +0.000 A 
ATOM     38  C   UNL     1     -24.150  39.488   4.186  0.00  0.00    +0.000 A 
ATOM     39  C   UNL     1     -25.831  41.229   4.407  0.00  0.00    +0.000 A 
ATOM     40  C   UNL     1     -25.258  40.180   3.689  0.00  0.00    +0.000 A 
BRANCH  38  41
ATOM     41  O   UNL     1     -23.650  38.470   3.411  0.00  0.00    +0.000 OA
ATOM     42  C   UNL     1     -23.247  37.320   4.110  0.00  0.00    +0.000 C 
ENDBRANCH  38  41
BRANCH  40  43
ATOM     43  O   UNL     1     -25.788  39.823   2.479  0.00  0.00    +0.000 OA
ATOM     44  H   UNL     1     -25.308  39.042   2.146  0.00  0.00    +0.000 HD
ENDBRANCH  40  43
ENDBRANCH  34  35
ENDBRANCH  32  33
ENDBRANCH  30  32
ENDBRANCH  19  30
TORSDOF 10
ENDMDL
MODEL 3
REMARK VINA RESULT:      -7.4     15.840     19.519
REMARK  Name = 91746246_sitosterol.pdbqt.pdb
REMARK  10 active torsions:
REMARK  status: ('A' for Active; 'I' for Inactive)
REMARK    1  A    between atoms: C_5  and  C_20
REMARK    2  A    between atoms: C_19  and  O_30
REMARK    3  A    between atoms: C_20  and  C_22
REMARK    4  A    between atoms: C_23  and  C_24
REMARK    5  A    between atoms: C_24  and  C_28
REMARK    6  A    between atoms: O_30  and  C_32
REMARK    7  A    between atoms: C_32  and  C_33
REMARK    8  A    between atoms: C_34  and  C_35
REMARK    9  A    between atoms: C_38  and  O_41
REMARK   10  A    between atoms: C_40  and  O_43
REMARK                            x       y       z     vdW  Elec       q    Type
REMARK                         _______ _______ _______ _____ _____    ______ ____
ROOT
ATOM      1  C   UNL     1     -15.409  42.356  -2.070  0.00  0.00    +0.000 C 
ATOM      2  C   UNL     1     -14.978  41.003  -2.850  0.00  0.00    +0.000 C 
ATOM      3  C   UNL     1     -15.949  39.943  -3.186  0.00  0.00    +0.000 C 
ATOM      4  C   UNL     1     -17.451  40.059  -3.103  0.00  0.00    +0.000 C 
ATOM      5  C   UNL     1     -14.661  43.444  -2.830  0.00  0.00    +0.000 C 
ATOM      6  C   UNL     1     -16.865  42.405  -2.194  0.00  0.00    +0.000 C 
ATOM      7  C   UNL     1     -18.423  38.892  -3.418  0.00  0.00    +0.000 C 
ATOM      8  C   UNL     1     -13.949  41.357  -3.779  0.00  0.00    +0.000 C 
ATOM      9  C   UNL     1     -17.840  41.345  -2.645  0.00  0.00    +0.000 C 
ATOM     10  C   UNL     1     -13.780  42.852  -3.782  0.00  0.00    +0.000 C 
ATOM     11  C   UNL     1     -15.528  38.729  -3.785  0.00  0.00    +0.000 C 
ATOM     12  C   UNL     1     -14.886  42.227  -0.615  0.00  0.00    +0.000 C 
ATOM     13  C   UNL     1     -17.739  37.662  -4.281  0.00  0.00    +0.000 C 
ATOM     14  C   UNL     1     -19.535  39.363  -4.296  0.00  0.00    +0.000 C 
ATOM     15  C   UNL     1     -16.441  37.657  -4.301  0.00  0.00    +0.000 C 
ATOM     16  C   UNL     1     -18.945  38.283  -2.084  0.00  0.00    +0.000 C 
ATOM     17  C   UNL     1     -18.428  37.303  -5.500  0.00  0.00    +0.000 C 
ATOM     18  C   UNL     1     -20.114  38.878  -5.635  0.00  0.00    +0.000 C 
ATOM     19  C   UNL     1     -19.535  37.748  -6.306  0.00  0.00    +0.000 C 
ENDROOT
BRANCH   5  20
ATOM     20  C   UNL     1     -14.654  44.823  -2.460  0.00  0.00    +0.000 C 
ATOM     21  C   UNL     1     -15.158  45.300  -1.124  0.00  0.00    +0.000 C 
BRANCH  20  22
ATOM     22  C   UNL     1     -14.406  45.840  -3.424  0.00  0.00    +0.000 C 
ATOM     23  C   UNL     1     -14.139  46.936  -4.467  0.00  0.00    +0.000 C 
BRANCH  23  24
ATOM     24  C   UNL     1     -13.888  47.942  -5.448  0.00  0.00    +0.000 C 
ATOM     25  C   UNL     1     -12.750  47.853  -6.339  0.00  0.00    +0.000 C 
ATOM     26  C   UNL     1     -12.414  48.910  -7.368  0.00  0.00    +0.000 C 
ATOM     27  C   UNL     1     -11.789  46.682  -6.324  0.00  0.00    +0.000 C 
BRANCH  24  28
ATOM     28  C   UNL     1     -14.768  49.052  -5.552  0.00  0.00    +0.000 C 
ATOM     29  C   UNL     1     -15.758  50.221  -5.616  0.00  0.00    +0.000 C 
ENDBRANCH  24  28
ENDBRANCH  23  24
ENDBRANCH  20  22
ENDBRANCH   5  20
BRANCH  19  30
ATOM     30  O   UNL     1     -20.343  36.787  -6.908  0.00  0.00    +0.000 OA
BRANCH  30  32
ATOM     31  O   UNL     1     -19.417  36.445  -9.013  0.00  0.00    +0.000 OA
ATOM     32  C   UNL     1     -20.289  36.867  -8.269  0.00  0.00    +0.000 C 
BRANCH  32  33
ATOM     33  C   UNL     1     -21.459  37.517  -8.807  0.00  0.00    +0.000 C 
ATOM     34  C   UNL     1     -22.437  38.065  -9.238  0.00  0.00    +0.000 C 
BRANCH  34  35
ATOM     35  C   UNL     1     -23.603  38.722  -9.731  0.00  0.00    +0.000 A 
ATOM     36  C   UNL     1     -24.550  37.998 -10.455  0.00  0.00    +0.000 A 
ATOM     37  C   UNL     1     -23.791  40.081  -9.497  0.00  0.00    +0.000 A 
ATOM     38  C   UNL     1     -25.697  38.624 -10.952  0.00  0.00    +0.000 A 
ATOM     39  C   UNL     1     -24.929  40.718  -9.986  0.00  0.00    +0.000 A 
ATOM     40  C   UNL     1     -25.872  39.989 -10.710  0.00  0.00    +0.000 A 
BRANCH  38  41
ATOM     41  O   UNL     1     -26.676  37.987 -11.674  0.00  0.00    +0.000 OA
ATOM     42  C   UNL     1     -26.258  36.853 -12.389  0.00  0.00    +0.000 C 
ENDBRANCH  38  41
BRANCH  40  43
ATOM     43  O   UNL     1     -26.987  40.621 -11.189  0.00  0.00    +0.000 OA
ATOM     44  H   UNL     1     -26.759  41.548 -11.389  0.00  0.00    +0.000 HD
ENDBRANCH  40  43
ENDBRANCH  34  35
ENDBRANCH  32  33
ENDBRANCH  30  32
ENDBRANCH  19  30
TORSDOF 10
ENDMDL
MODEL 4
REMARK VINA RESULT:      -7.4     22.376     26.342
REMARK  Name = 91746246_sitosterol.pdbqt.pdb
REMARK  10 active torsions:
REMARK  status: ('A' for Active; 'I' for Inactive)
REMARK    1  A    between atoms: C_5  and  C_20
REMARK    2  A    between atoms: C_19  and  O_30
REMARK    3  A    between atoms: C_20  and  C_22
REMARK    4  A    between atoms: C_23  and  C_24
REMARK    5  A    between atoms: C_24  and  C_28
REMARK    6  A    between atoms: O_30  and  C_32
REMARK    7  A    between atoms: C_32  and  C_33
REMARK    8  A    between atoms: C_34  and  C_35
REMARK    9  A    between atoms: C_38  and  O_41
REMARK   10  A    between atoms: C_40  and  O_43
REMARK                            x       y       z     vdW  Elec       q    Type
REMARK                         _______ _______ _______ _____ _____    ______ ____
ROOT
ATOM      1  C   UNL     1     -15.461  53.375   3.467  0.00  0.00    +0.000 C 
ATOM      2  C   UNL     1     -16.411  54.653   3.769  0.00  0.00    +0.000 C 
ATOM      3  C   UNL     1     -16.132  55.992   3.213  0.00  0.00    +0.000 C 
ATOM      4  C   UNL     1     -15.135  56.310   2.126  0.00  0.00    +0.000 C 
ATOM      5  C   UNL     1     -16.463  52.259   3.198  0.00  0.00    +0.000 C 
ATOM      6  C   UNL     1     -14.659  53.777   2.312  0.00  0.00    +0.000 C 
ATOM      7  C   UNL     1     -14.845  57.746   1.617  0.00  0.00    +0.000 C 
ATOM      8  C   UNL     1     -17.756  54.174   3.850  0.00  0.00    +0.000 C 
ATOM      9  C   UNL     1     -14.468  55.136   1.685  0.00  0.00    +0.000 C 
ATOM     10  C   UNL     1     -17.785  52.717   3.473  0.00  0.00    +0.000 C 
ATOM     11  C   UNL     1     -16.925  57.111   3.569  0.00  0.00    +0.000 C 
ATOM     12  C   UNL     1     -14.647  53.100   4.759  0.00  0.00    +0.000 C 
ATOM     13  C   UNL     1     -16.009  58.847   2.013  0.00  0.00    +0.000 C 
ATOM     14  C   UNL     1     -14.824  57.776   0.125  0.00  0.00    +0.000 C 
ATOM     15  C   UNL     1     -16.824  58.474   2.952  0.00  0.00    +0.000 C 
ATOM     16  C   UNL     1     -13.506  58.249   2.232  0.00  0.00    +0.000 C 
ATOM     17  C   UNL     1     -16.561  59.591   0.903  0.00  0.00    +0.000 C 
ATOM     18  C   UNL     1     -15.545  58.626  -0.934  0.00  0.00    +0.000 C 
ATOM     19  C   UNL     1     -16.489  59.632  -0.533  0.00  0.00    +0.000 C 
ENDROOT
BRANCH   5  20
ATOM     20  C   UNL     1     -16.104  50.897   2.963  0.00  0.00    +0.000 C 
ATOM     21  C   UNL     1     -15.820  50.366   1.584  0.00  0.00    +0.000 C 
BRANCH  20  22
ATOM     22  C   UNL     1     -16.241  49.917   3.986  0.00  0.00    +0.000 C 
ATOM     23  C   UNL     1     -16.390  48.858   5.089  0.00  0.00    +0.000 C 
BRANCH  23  24
ATOM     24  C   UNL     1     -16.546  47.879   6.116  0.00  0.00    +0.000 C 
ATOM     25  C   UNL     1     -16.629  46.469   5.801  0.00  0.00    +0.000 C 
ATOM     26  C   UNL     1     -16.836  45.394   6.846  0.00  0.00    +0.000 C 
ATOM     27  C   UNL     1     -16.512  45.938   4.387  0.00  0.00    +0.000 C 
BRANCH  24  28
ATOM     28  C   UNL     1     -16.623  48.295   7.472  0.00  0.00    +0.000 C 
ATOM     29  C   UNL     1     -16.659  48.794   8.921  0.00  0.00    +0.000 C 
ENDBRANCH  24  28
ENDBRANCH  23  24
ENDBRANCH  20  22
ENDBRANCH   5  20
BRANCH  19  30
ATOM     30  O   UNL     1     -16.514  60.874  -1.162  0.00  0.00    +0.000 OA
BRANCH  30  32
ATOM     31  O   UNL     1     -18.518  61.695  -2.011  0.00  0.00    +0.000 OA
ATOM     32  C   UNL     1     -17.540  60.963  -2.058  0.00  0.00    +0.000 C 
BRANCH  32  33
ATOM     33  C   UNL     1     -17.346  60.071  -3.174  0.00  0.00    +0.000 C 
ATOM     34  C   UNL     1     -17.198  59.337  -4.113  0.00  0.00    +0.000 C 
BRANCH  34  35
ATOM     35  C   UNL     1     -17.038  58.473  -5.237  0.00  0.00    +0.000 A 
ATOM     36  C   UNL     1     -15.759  58.184  -5.710  0.00  0.00    +0.000 A 
ATOM     37  C   UNL     1     -18.156  57.927  -5.863  0.00  0.00    +0.000 A 
ATOM     38  C   UNL     1     -15.582  57.344  -6.813  0.00  0.00    +0.000 A 
ATOM     39  C   UNL     1     -17.993  57.089  -6.963  0.00  0.00    +0.000 A 
ATOM     40  C   UNL     1     -16.712  56.804  -7.432  0.00  0.00    +0.000 A 
BRANCH  38  41
ATOM     41  O   UNL     1     -14.359  57.010  -7.343  0.00  0.00    +0.000 OA
ATOM     42  C   UNL     1     -13.342  57.961  -7.163  0.00  0.00    +0.000 C 
ENDBRANCH  38  41
BRANCH  40  43
ATOM     43  O   UNL     1     -16.559  55.982  -8.515  0.00  0.00    +0.000 OA
ATOM     44  H   UNL     1     -17.417  55.559  -8.710  0.00  0.00    +0.000 HD
ENDBRANCH  40  43
ENDBRANCH  34  35
ENDBRANCH  32  33
ENDBRANCH  30  32
ENDBRANCH  19  30
TORSDOF 10
ENDMDL
MODEL 5
REMARK VINA RESULT:      -7.2     21.835     24.870
REMARK  Name = 91746246_sitosterol.pdbqt.pdb
REMARK  10 active torsions:
REMARK  status: ('A' for Active; 'I' for Inactive)
REMARK    1  A    between atoms: C_5  and  C_20
REMARK    2  A    between atoms: C_19  and  O_30
REMARK    3  A    between atoms: C_20  and  C_22
REMARK    4  A    between atoms: C_23  and  C_24
REMARK    5  A    between atoms: C_24  and  C_28
REMARK    6  A    between atoms: O_30  and  C_32
REMARK    7  A    between atoms: C_32  and  C_33
REMARK    8  A    between atoms: C_34  and  C_35
REMARK    9  A    between atoms: C_38  and  O_41
REMARK   10  A    between atoms: C_40  and  O_43
REMARK                            x       y       z     vdW  Elec       q    Type
REMARK                         _______ _______ _______ _____ _____    ______ ____
ROOT
ATOM      1  C   UNL     1     -16.724  60.587 -19.636  0.00  0.00    +0.000 C 
ATOM      2  C   UNL     1     -17.689  61.659 -18.897  0.00  0.00    +0.000 C 
ATOM      3  C   UNL     1     -18.536  62.607 -19.648  0.00  0.00    +0.000 C 
ATOM      4  C   UNL     1     -18.827  62.554 -21.128  0.00  0.00    +0.000 C 
ATOM      5  C   UNL     1     -16.946  59.313 -18.830  0.00  0.00    +0.000 C 
ATOM      6  C   UNL     1     -17.213  60.540 -21.013  0.00  0.00    +0.000 C 
ATOM      7  C   UNL     1     -19.683  63.610 -21.875  0.00  0.00    +0.000 C 
ATOM      8  C   UNL     1     -18.185  61.037 -17.708  0.00  0.00    +0.000 C 
ATOM      9  C   UNL     1     -18.167  61.456 -21.740  0.00  0.00    +0.000 C 
ATOM     10  C   UNL     1     -17.751  59.596 -17.688  0.00  0.00    +0.000 C 
ATOM     11  C   UNL     1     -19.298  63.596 -18.978  0.00  0.00    +0.000 C 
ATOM     12  C   UNL     1     -15.269  61.104 -19.481  0.00  0.00    +0.000 C 
ATOM     13  C   UNL     1     -20.624  64.534 -20.883  0.00  0.00    +0.000 C 
ATOM     14  C   UNL     1     -20.668  62.940 -22.774  0.00  0.00    +0.000 C 
ATOM     15  C   UNL     1     -20.300  64.503 -19.627  0.00  0.00    +0.000 C 
ATOM     16  C   UNL     1     -18.743  64.578 -22.652  0.00  0.00    +0.000 C 
ATOM     17  C   UNL     1     -22.032  64.557 -21.211  0.00  0.00    +0.000 C 
ATOM     18  C   UNL     1     -22.191  63.047 -22.954  0.00  0.00    +0.000 C 
ATOM     19  C   UNL     1     -22.957  63.932 -22.121  0.00  0.00    +0.000 C 
ENDROOT
BRANCH   5  20
ATOM     20  C   UNL     1     -16.239  58.092 -19.047  0.00  0.00    +0.000 C 
ATOM     21  C   UNL     1     -15.248  57.548 -18.053  0.00  0.00    +0.000 C 
BRANCH  20  22
ATOM     22  C   UNL     1     -16.247  57.457 -20.321  0.00  0.00    +0.000 C 
ATOM     23  C   UNL     1     -16.258  56.772 -21.696  0.00  0.00    +0.000 C 
BRANCH  23  24
ATOM     24  C   UNL     1     -16.282  56.126 -22.969  0.00  0.00    +0.000 C 
ATOM     25  C   UNL     1     -15.895  54.738 -23.112  0.00  0.00    +0.000 C 
ATOM     26  C   UNL     1     -15.863  54.017 -24.442  0.00  0.00    +0.000 C 
ATOM     27  C   UNL     1     -15.489  53.876 -21.935  0.00  0.00    +0.000 C 
BRANCH  24  28
ATOM     28  C   UNL     1     -16.690  56.857 -24.117  0.00  0.00    +0.000 C 
ATOM     29  C   UNL     1     -17.109  57.704 -25.324  0.00  0.00    +0.000 C 
ENDBRANCH  24  28
ENDBRANCH  23  24
ENDBRANCH  20  22
ENDBRANCH   5  20
BRANCH  19  30
ATOM     30  O   UNL     1     -23.981  64.706 -22.657  0.00  0.00    +0.000 OA
BRANCH  30  32
ATOM     31  O   UNL     1     -25.525  64.871 -20.926  0.00  0.00    +0.000 OA
ATOM     32  C   UNL     1     -25.169  64.476 -22.026  0.00  0.00    +0.000 C 
BRANCH  32  33
ATOM     33  C   UNL     1     -26.059  63.689 -22.844  0.00  0.00    +0.000 C 
ATOM     34  C   UNL     1     -26.814  63.040 -23.517  0.00  0.00    +0.000 C 
BRANCH  34  35
ATOM     35  C   UNL     1     -27.726  62.278 -24.305  0.00  0.00    +0.000 A 
ATOM     36  C   UNL     1     -29.027  62.068 -23.848  0.00  0.00    +0.000 A 
ATOM     37  C   UNL     1     -27.317  61.740 -25.522  0.00  0.00    +0.000 A 
ATOM     38  C   UNL     1     -29.934  61.319 -24.603  0.00  0.00    +0.000 A 
ATOM     39  C   UNL     1     -28.210  60.991 -26.284  0.00  0.00    +0.000 A 
ATOM     40  C   UNL     1     -29.509  60.784 -25.822  0.00  0.00    +0.000 A 
BRANCH  38  41
ATOM     41  O   UNL     1     -31.230  61.064 -24.226  0.00  0.00    +0.000 OA
ATOM     42  C   UNL     1     -31.934  62.160 -23.702  0.00  0.00    +0.000 C 
ENDBRANCH  38  41
BRANCH  40  43
ATOM     43  O   UNL     1     -30.381  60.046 -26.574  0.00  0.00    +0.000 OA
ATOM     44  H   UNL     1     -30.213  59.100 -26.409  0.00  0.00    +0.000 HD
ENDBRANCH  40  43
ENDBRANCH  34  35
ENDBRANCH  32  33
ENDBRANCH  30  32
ENDBRANCH  19  30
TORSDOF 10
ENDMDL
MODEL 6
REMARK VINA RESULT:      -7.2     19.425     24.254
REMARK  Name = 91746246_sitosterol.pdbqt.pdb
REMARK  10 active torsions:
REMARK  status: ('A' for Active; 'I' for Inactive)
REMARK    1  A    between atoms: C_5  and  C_20
REMARK    2  A    between atoms: C_19  and  O_30
REMARK    3  A    between atoms: C_20  and  C_22
REMARK    4  A    between atoms: C_23  and  C_24
REMARK    5  A    between atoms: C_24  and  C_28
REMARK    6  A    between atoms: O_30  and  C_32
REMARK    7  A    between atoms: C_32  and  C_33
REMARK    8  A    between atoms: C_34  and  C_35
REMARK    9  A    between atoms: C_38  and  O_41
REMARK   10  A    between atoms: C_40  and  O_43
REMARK                            x       y       z     vdW  Elec       q    Type
REMARK                         _______ _______ _______ _____ _____    ______ ____
ROOT
ATOM      1  C   UNL     1     -16.055  44.716   6.910  0.00  0.00    +0.000 C 
ATOM      2  C   UNL     1     -16.347  43.165   7.278  0.00  0.00    +0.000 C 
ATOM      3  C   UNL     1     -17.510  42.752   8.089  0.00  0.00    +0.000 C 
ATOM      4  C   UNL     1     -18.687  43.621   8.456  0.00  0.00    +0.000 C 
ATOM      5  C   UNL     1     -15.661  44.651   5.440  0.00  0.00    +0.000 C 
ATOM      6  C   UNL     1     -17.318  45.402   7.181  0.00  0.00    +0.000 C 
ATOM      7  C   UNL     1     -19.858  43.148   9.358  0.00  0.00    +0.000 C 
ATOM      8  C   UNL     1     -15.934  42.376   6.158  0.00  0.00    +0.000 C 
ATOM      9  C   UNL     1     -18.545  44.928   7.920  0.00  0.00    +0.000 C 
ATOM     10  C   UNL     1     -15.543  43.291   5.029  0.00  0.00    +0.000 C 
ATOM     11  C   UNL     1     -17.689  41.400   8.475  0.00  0.00    +0.000 C 
ATOM     12  C   UNL     1     -14.864  45.175   7.792  0.00  0.00    +0.000 C 
ATOM     13  C   UNL     1     -19.963  41.509   9.517  0.00  0.00    +0.000 C 
ATOM     14  C   UNL     1     -21.168  43.530   8.752  0.00  0.00    +0.000 C 
ATOM     15  C   UNL     1     -18.902  40.851   9.164  0.00  0.00    +0.000 C 
ATOM     16  C   UNL     1     -19.677  43.740  10.787  0.00  0.00    +0.000 C 
ATOM     17  C   UNL     1     -21.248  40.937   9.183  0.00  0.00    +0.000 C 
ATOM     18  C   UNL     1     -22.448  42.752   8.404  0.00  0.00    +0.000 C 
ATOM     19  C   UNL     1     -22.520  41.337   8.641  0.00  0.00    +0.000 C 
ENDROOT
BRANCH   5  20
ATOM     20  C   UNL     1     -15.222  45.775   4.675  0.00  0.00    +0.000 C 
ATOM     21  C   UNL     1     -14.033  45.708   3.756  0.00  0.00    +0.000 C 
BRANCH  20  22
ATOM     22  C   UNL     1     -15.731  47.078   4.932  0.00  0.00    +0.000 C 
ATOM     23  C   UNL     1     -16.282  48.486   5.206  0.00  0.00    +0.000 C 
BRANCH  23  24
ATOM     24  C   UNL     1     -16.784  49.801   5.447  0.00  0.00    +0.000 C 
ATOM     25  C   UNL     1     -17.081  50.255   6.788  0.00  0.00    +0.000 C 
ATOM     26  C   UNL     1     -17.654  51.622   7.096  0.00  0.00    +0.000 C 
ATOM     27  C   UNL     1     -16.841  49.399   8.015  0.00  0.00    +0.000 C 
BRANCH  24  28
ATOM     28  C   UNL     1     -16.997  50.679   4.351  0.00  0.00    +0.000 C 
ATOM     29  C   UNL     1     -17.223  51.572   3.125  0.00  0.00    +0.000 C 
ENDBRANCH  24  28
ENDBRANCH  23  24
ENDBRANCH  20  22
ENDBRANCH   5  20
BRANCH  19  30
ATOM     30  O   UNL     1     -23.674  40.762   9.167  0.00  0.00    +0.000 OA
BRANCH  30  32
ATOM     31  O   UNL     1     -25.717  41.769   8.697  0.00  0.00    +0.000 OA
ATOM     32  C   UNL     1     -24.771  41.052   8.408  0.00  0.00    +0.000 C 
BRANCH  32  33
ATOM     33  C   UNL     1     -24.702  40.414   7.116  0.00  0.00    +0.000 C 
ATOM     34  C   UNL     1     -24.644  39.866   6.048  0.00  0.00    +0.000 C 
BRANCH  34  35
ATOM     35  C   UNL     1     -24.572  39.199   4.790  0.00  0.00    +0.000 A 
ATOM     36  C   UNL     1     -23.473  38.394   4.497  0.00  0.00    +0.000 A 
ATOM     37  C   UNL     1     -25.592  39.358   3.856  0.00  0.00    +0.000 A 
ATOM     38  C   UNL     1     -23.381  37.735   3.267  0.00  0.00    +0.000 A 
ATOM     39  C   UNL     1     -25.513  38.708   2.627  0.00  0.00    +0.000 A 
ATOM     40  C   UNL     1     -24.411  37.904   2.339  0.00  0.00    +0.000 A 
BRANCH  38  41
ATOM     41  O   UNL     1     -22.334  36.926   2.898  0.00  0.00    +0.000 OA
ATOM     42  C   UNL     1     -22.244  35.703   3.582  0.00  0.00    +0.000 C 
ENDBRANCH  38  41
BRANCH  40  43
ATOM     43  O   UNL     1     -24.339  37.270   1.128  0.00  0.00    +0.000 OA
ATOM     44  H   UNL     1     -25.242  37.035   0.845  0.00  0.00    +0.000 HD
ENDBRANCH  40  43
ENDBRANCH  34  35
ENDBRANCH  32  33
ENDBRANCH  30  32
ENDBRANCH  19  30
TORSDOF 10
ENDMDL
MODEL 7
REMARK VINA RESULT:      -7.2      2.872      4.889
REMARK  Name = 91746246_sitosterol.pdbqt.pdb
REMARK  10 active torsions:
REMARK  status: ('A' for Active; 'I' for Inactive)
REMARK    1  A    between atoms: C_5  and  C_20
REMARK    2  A    between atoms: C_19  and  O_30
REMARK    3  A    between atoms: C_20  and  C_22
REMARK    4  A    between atoms: C_23  and  C_24
REMARK    5  A    between atoms: C_24  and  C_28
REMARK    6  A    between atoms: O_30  and  C_32
REMARK    7  A    between atoms: C_32  and  C_33
REMARK    8  A    between atoms: C_34  and  C_35
REMARK    9  A    between atoms: C_38  and  O_41
REMARK   10  A    between atoms: C_40  and  O_43
REMARK                            x       y       z     vdW  Elec       q    Type
REMARK                         _______ _______ _______ _____ _____    ______ ____
ROOT
ATOM      1  C   UNL     1     -36.160  47.518 -18.325  0.00  0.00    +0.000 C 
ATOM      2  C   UNL     1     -36.349  48.797 -17.348  0.00  0.00    +0.000 C 
ATOM      3  C   UNL     1     -37.321  48.804 -16.236  0.00  0.00    +0.000 C 
ATOM      4  C   UNL     1     -38.057  47.604 -15.696  0.00  0.00    +0.000 C 
ATOM      5  C   UNL     1     -34.647  47.411 -18.463  0.00  0.00    +0.000 C 
ATOM      6  C   UNL     1     -36.796  46.412 -17.611  0.00  0.00    +0.000 C 
ATOM      7  C   UNL     1     -39.110  47.679 -14.559  0.00  0.00    +0.000 C 
ATOM      8  C   UNL     1     -35.062  49.400 -17.183  0.00  0.00    +0.000 C 
ATOM      9  C   UNL     1     -37.703  46.425 -16.405  0.00  0.00    +0.000 C 
ATOM     10  C   UNL     1     -34.023  48.534 -17.842  0.00  0.00    +0.000 C 
ATOM     11  C   UNL     1     -37.532  49.969 -15.457  0.00  0.00    +0.000 C 
ATOM     12  C   UNL     1     -36.824  47.881 -19.680  0.00  0.00    +0.000 C 
ATOM     13  C   UNL     1     -39.043  49.070 -13.674  0.00  0.00    +0.000 C 
ATOM     14  C   UNL     1     -38.864  46.607 -13.551  0.00  0.00    +0.000 C 
ATOM     15  C   UNL     1     -38.377  50.041 -14.221  0.00  0.00    +0.000 C 
ATOM     16  C   UNL     1     -40.538  47.591 -15.174  0.00  0.00    +0.000 C 
ATOM     17  C   UNL     1     -38.913  48.889 -12.246  0.00  0.00    +0.000 C 
ATOM     18  C   UNL     1     -38.688  46.600 -12.023  0.00  0.00    +0.000 C 
ATOM     19  C   UNL     1     -38.723  47.833 -11.287  0.00  0.00    +0.000 C 
ENDROOT
BRANCH   5  20
ATOM     20  C   UNL     1     -33.981  46.473 -19.308  0.00  0.00    +0.000 C 
ATOM     21  C   UNL     1     -34.550  46.039 -20.633  0.00  0.00    +0.000 C 
BRANCH  20  22
ATOM     22  C   UNL     1     -32.876  45.713 -18.833  0.00  0.00    +0.000 C 
ATOM     23  C   UNL     1     -31.685  44.891 -18.317  0.00  0.00    +0.000 C 
BRANCH  23  24
ATOM     24  C   UNL     1     -30.583  44.130 -17.822  0.00  0.00    +0.000 C 
ATOM     25  C   UNL     1     -30.295  44.064 -16.405  0.00  0.00    +0.000 C 
ATOM     26  C   UNL     1     -29.117  43.308 -15.831  0.00  0.00    +0.000 C 
ATOM     27  C   UNL     1     -31.154  44.749 -15.362  0.00  0.00    +0.000 C 
BRANCH  24  28
ATOM     28  C   UNL     1     -29.754  43.425 -18.735  0.00  0.00    +0.000 C 
ATOM     29  C   UNL     1     -28.846  42.618 -19.670  0.00  0.00    +0.000 C 
ENDBRANCH  24  28
ENDBRANCH  23  24
ENDBRANCH  20  22
ENDBRANCH   5  20
BRANCH  19  30
ATOM     30  O   UNL     1     -39.394  47.916 -10.070  0.00  0.00    +0.000 OA
BRANCH  30  32
ATOM     31  O   UNL     1     -38.802  49.402  -8.382  0.00  0.00    +0.000 OA
ATOM     32  C   UNL     1     -38.594  48.427  -9.089  0.00  0.00    +0.000 C 
BRANCH  32  33
ATOM     33  C   UNL     1     -37.398  47.639  -8.918  0.00  0.00    +0.000 C 
ATOM     34  C   UNL     1     -36.392  46.999  -8.771  0.00  0.00    +0.000 C 
BRANCH  34  35
ATOM     35  C   UNL     1     -35.189  46.255  -8.592  0.00  0.00    +0.000 A 
ATOM     36  C   UNL     1     -34.497  46.339  -7.386  0.00  0.00    +0.000 A 
ATOM     37  C   UNL     1     -34.704  45.453  -9.622  0.00  0.00    +0.000 A 
ATOM     38  C   UNL     1     -33.312  45.622  -7.193  0.00  0.00    +0.000 A 
ATOM     39  C   UNL     1     -33.525  44.733  -9.444  0.00  0.00    +0.000 A 
ATOM     40  C   UNL     1     -32.837  44.822  -8.235  0.00  0.00    +0.000 A 
BRANCH  38  41
ATOM     41  O   UNL     1     -32.569  45.651  -6.038  0.00  0.00    +0.000 OA
ATOM     42  C   UNL     1     -33.079  44.892  -4.972  0.00  0.00    +0.000 C 
ENDBRANCH  38  41
BRANCH  40  43
ATOM     43  O   UNL     1     -31.678  44.115  -8.067  0.00  0.00    +0.000 OA
ATOM     44  H   UNL     1     -31.367  44.238  -7.151  0.00  0.00    +0.000 HD
ENDBRANCH  40  43
ENDBRANCH  34  35
ENDBRANCH  32  33
ENDBRANCH  30  32
ENDBRANCH  19  30
TORSDOF 10
ENDMDL
MODEL 8
REMARK VINA RESULT:      -7.2     22.694     24.684
REMARK  Name = 91746246_sitosterol.pdbqt.pdb
REMARK  10 active torsions:
REMARK  status: ('A' for Active; 'I' for Inactive)
REMARK    1  A    between atoms: C_5  and  C_20
REMARK    2  A    between atoms: C_19  and  O_30
REMARK    3  A    between atoms: C_20  and  C_22
REMARK    4  A    between atoms: C_23  and  C_24
REMARK    5  A    between atoms: C_24  and  C_28
REMARK    6  A    between atoms: O_30  and  C_32
REMARK    7  A    between atoms: C_32  and  C_33
REMARK    8  A    between atoms: C_34  and  C_35
REMARK    9  A    between atoms: C_38  and  O_41
REMARK   10  A    between atoms: C_40  and  O_43
REMARK                            x       y       z     vdW  Elec       q    Type
REMARK                         _______ _______ _______ _____ _____    ______ ____
ROOT
ATOM      1  C   UNL     1     -16.713  54.840 -28.762  0.00  0.00    +0.000 C 
ATOM      2  C   UNL     1     -16.702  53.960 -27.402  0.00  0.00    +0.000 C 
ATOM      3  C   UNL     1     -16.205  54.496 -26.119  0.00  0.00    +0.000 C 
ATOM      4  C   UNL     1     -15.897  55.943 -25.824  0.00  0.00    +0.000 C 
ATOM      5  C   UNL     1     -18.074  54.521 -29.367  0.00  0.00    +0.000 C 
ATOM      6  C   UNL     1     -16.547  56.220 -28.309  0.00  0.00    +0.000 C 
ATOM      7  C   UNL     1     -15.324  56.443 -24.472  0.00  0.00    +0.000 C 
ATOM      8  C   UNL     1     -17.859  53.119 -27.430  0.00  0.00    +0.000 C 
ATOM      9  C   UNL     1     -16.142  56.760 -26.959  0.00  0.00    +0.000 C 
ATOM     10  C   UNL     1     -18.707  53.486 -28.618  0.00  0.00    +0.000 C 
ATOM     11  C   UNL     1     -16.119  53.675 -24.968  0.00  0.00    +0.000 C 
ATOM     12  C   UNL     1     -15.562  54.308 -29.656  0.00  0.00    +0.000 C 
ATOM     13  C   UNL     1     -15.499  55.369 -23.231  0.00  0.00    +0.000 C 
ATOM     14  C   UNL     1     -16.070  57.648 -24.004  0.00  0.00    +0.000 C 
ATOM     15  C   UNL     1     -15.774  54.152 -23.589  0.00  0.00    +0.000 C 
ATOM     16  C   UNL     1     -13.800  56.721 -24.630  0.00  0.00    +0.000 C 
ATOM     17  C   UNL     1     -16.159  55.886 -22.053  0.00  0.00    +0.000 C 
ATOM     18  C   UNL     1     -16.782  58.018 -22.692  0.00  0.00    +0.000 C 
ATOM     19  C   UNL     1     -16.833  57.077 -21.608  0.00  0.00    +0.000 C 
ENDROOT
BRANCH   5  20
ATOM     20  C   UNL     1     -18.522  54.999 -30.636  0.00  0.00    +0.000 C 
ATOM     21  C   UNL     1     -18.435  56.451 -31.025  0.00  0.00    +0.000 C 
BRANCH  20  22
ATOM     22  C   UNL     1     -19.300  54.175 -31.497  0.00  0.00    +0.000 C 
ATOM     23  C   UNL     1     -20.141  53.285 -32.424  0.00  0.00    +0.000 C 
BRANCH  23  24
ATOM     24  C   UNL     1     -20.919  52.444 -33.275  0.00  0.00    +0.000 C 
ATOM     25  C   UNL     1     -22.361  52.563 -33.332  0.00  0.00    +0.000 C 
ATOM     26  C   UNL     1     -23.236  51.670 -34.184  0.00  0.00    +0.000 C 
ATOM     27  C   UNL     1     -23.128  53.602 -32.540  0.00  0.00    +0.000 C 
BRANCH  24  28
ATOM     28  C   UNL     1     -20.269  51.471 -34.081  0.00  0.00    +0.000 C 
ATOM     29  C   UNL     1     -19.561  50.470 -35.000  0.00  0.00    +0.000 C 
ENDBRANCH  24  28
ENDBRANCH  23  24
ENDBRANCH  20  22
ENDBRANCH   5  20
BRANCH  19  30
ATOM     30  O   UNL     1     -16.640  57.495 -20.294  0.00  0.00    +0.000 OA
BRANCH  30  32
ATOM     31  O   UNL     1     -14.512  58.394 -20.559  0.00  0.00    +0.000 OA
ATOM     32  C   UNL     1     -15.315  57.657 -20.008  0.00  0.00    +0.000 C 
BRANCH  32  33
ATOM     33  C   UNL     1     -14.913  56.843 -18.887  0.00  0.00    +0.000 C 
ATOM     34  C   UNL     1     -14.587  56.150 -17.962  0.00  0.00    +0.000 C 
BRANCH  34  35
ATOM     35  C   UNL     1     -14.209  55.313 -16.871  0.00  0.00    +0.000 A 
ATOM     36  C   UNL     1     -14.735  55.550 -15.602  0.00  0.00    +0.000 A 
ATOM     37  C   UNL     1     -13.313  54.266 -17.072  0.00  0.00    +0.000 A 
ATOM     38  C   UNL     1     -14.373  54.744 -14.519  0.00  0.00    +0.000 A 
ATOM     39  C   UNL     1     -12.942  53.455 -16.002  0.00  0.00    +0.000 A 
ATOM     40  C   UNL     1     -13.471  53.698 -14.735  0.00  0.00    +0.000 A 
BRANCH  38  41
ATOM     41  O   UNL     1     -14.842  54.910 -13.239  0.00  0.00    +0.000 OA
ATOM     42  C   UNL     1     -14.349  56.033 -12.555  0.00  0.00    +0.000 C 
ENDBRANCH  38  41
BRANCH  40  43
ATOM     43  O   UNL     1     -13.103  52.899 -13.687  0.00  0.00    +0.000 OA
ATOM     44  H   UNL     1     -12.819  53.467 -12.946  0.00  0.00    +0.000 HD
ENDBRANCH  40  43
ENDBRANCH  34  35
ENDBRANCH  32  33
ENDBRANCH  30  32
ENDBRANCH  19  30
TORSDOF 10
ENDMDL
MODEL 9
REMARK VINA RESULT:      -7.1      1.896      2.651
REMARK  Name = 91746246_sitosterol.pdbqt.pdb
REMARK  10 active torsions:
REMARK  status: ('A' for Active; 'I' for Inactive)
REMARK    1  A    between atoms: C_5  and  C_20
REMARK    2  A    between atoms: C_19  and  O_30
REMARK    3  A    between atoms: C_20  and  C_22
REMARK    4  A    between atoms: C_23  and  C_24
REMARK    5  A    between atoms: C_24  and  C_28
REMARK    6  A    between atoms: O_30  and  C_32
REMARK    7  A    between atoms: C_32  and  C_33
REMARK    8  A    between atoms: C_34  and  C_35
REMARK    9  A    between atoms: C_38  and  O_41
REMARK   10  A    between atoms: C_40  and  O_43
REMARK                            x       y       z     vdW  Elec       q    Type
REMARK                         _______ _______ _______ _____ _____    ______ ____
ROOT
ATOM      1  C   UNL     1     -35.716  46.596 -15.156  0.00  0.00    +0.000 C 
ATOM      2  C   UNL     1     -36.615  47.293 -14.001  0.00  0.00    +0.000 C 
ATOM      3  C   UNL     1     -36.658  46.779 -12.618  0.00  0.00    +0.000 C 
ATOM      4  C   UNL     1     -35.726  45.751 -12.025  0.00  0.00    +0.000 C 
ATOM      5  C   UNL     1     -35.088  47.788 -15.868  0.00  0.00    +0.000 C 
ATOM      6  C   UNL     1     -34.776  45.745 -14.428  0.00  0.00    +0.000 C 
ATOM      7  C   UNL     1     -35.852  45.207 -10.578  0.00  0.00    +0.000 C 
ATOM      8  C   UNL     1     -36.603  48.702 -14.245  0.00  0.00    +0.000 C 
ATOM      9  C   UNL     1     -34.772  45.314 -12.982  0.00  0.00    +0.000 C 
ATOM     10  C   UNL     1     -35.646  49.001 -15.368  0.00  0.00    +0.000 C 
ATOM     11  C   UNL     1     -37.524  47.350 -11.652  0.00  0.00    +0.000 C 
ATOM     12  C   UNL     1     -36.692  45.834 -16.091  0.00  0.00    +0.000 C 
ATOM     13  C   UNL     1     -36.779  46.146  -9.587  0.00  0.00    +0.000 C 
ATOM     14  C   UNL     1     -34.518  45.196  -9.908  0.00  0.00    +0.000 C 
ATOM     15  C   UNL     1     -37.538  47.007 -10.193  0.00  0.00    +0.000 C 
ATOM     16  C   UNL     1     -36.502  43.793 -10.615  0.00  0.00    +0.000 C 
ATOM     17  C   UNL     1     -36.143  46.563  -8.357  0.00  0.00    +0.000 C 
ATOM     18  C   UNL     1     -33.988  45.759  -8.579  0.00  0.00    +0.000 C 
ATOM     19  C   UNL     1     -34.860  46.498  -7.709  0.00  0.00    +0.000 C 
ENDROOT
BRANCH   5  20
ATOM     20  C   UNL     1     -34.267  47.686 -17.032  0.00  0.00    +0.000 C 
ATOM     21  C   UNL     1     -34.534  48.488 -18.277  0.00  0.00    +0.000 C 
BRANCH  20  22
ATOM     22  C   UNL     1     -33.308  46.644 -17.163  0.00  0.00    +0.000 C 
ATOM     23  C   UNL     1     -32.272  45.518 -17.303  0.00  0.00    +0.000 C 
BRANCH  23  24
ATOM     24  C   UNL     1     -31.296  44.483 -17.428  0.00  0.00    +0.000 C 
ATOM     25  C   UNL     1     -31.175  43.443 -16.428  0.00  0.00    +0.000 C 
ATOM     26  C   UNL     1     -30.133  42.348 -16.490  0.00  0.00    +0.000 C 
ATOM     27  C   UNL     1     -32.089  43.355 -15.224  0.00  0.00    +0.000 C 
BRANCH  24  28
ATOM     28  C   UNL     1     -30.427  44.473 -18.552  0.00  0.00    +0.000 C 
ATOM     29  C   UNL     1     -29.438  44.443 -19.722  0.00  0.00    +0.000 C 
ENDBRANCH  24  28
ENDBRANCH  23  24
ENDBRANCH  20  22
ENDBRANCH   5  20
BRANCH  19  30
ATOM     30  O   UNL     1     -34.824  46.302  -6.331  0.00  0.00    +0.000 OA
BRANCH  30  32
ATOM     31  O   UNL     1     -32.541  46.116  -5.926  0.00  0.00    +0.000 OA
ATOM     32  C   UNL     1     -33.678  45.669  -5.944  0.00  0.00    +0.000 C 
BRANCH  32  33
ATOM     33  C   UNL     1     -33.944  44.326  -5.489  0.00  0.00    +0.000 C 
ATOM     34  C   UNL     1     -34.176  43.215  -5.096  0.00  0.00    +0.000 C 
BRANCH  34  35
ATOM     35  C   UNL     1     -34.461  41.903  -4.614  0.00  0.00    +0.000 A 
ATOM     36  C   UNL     1     -34.803  41.717  -3.276  0.00  0.00    +0.000 A 
ATOM     37  C   UNL     1     -34.391  40.812  -5.476  0.00  0.00    +0.000 A 
ATOM     38  C   UNL     1     -35.080  40.439  -2.783  0.00  0.00    +0.000 A 
ATOM     39  C   UNL     1     -34.665  39.533  -4.999  0.00  0.00    +0.000 A 
ATOM     40  C   UNL     1     -35.005  39.353  -3.659  0.00  0.00    +0.000 A 
BRANCH  38  41
ATOM     41  O   UNL     1     -35.422  40.169  -1.481  0.00  0.00    +0.000 OA
ATOM     42  C   UNL     1     -36.766  40.405  -1.146  0.00  0.00    +0.000 C 
ENDBRANCH  38  41
BRANCH  40  43
ATOM     43  O   UNL     1     -35.271  38.093  -3.196  0.00  0.00    +0.000 OA
ATOM     44  H   UNL     1     -36.019  37.725  -3.702  0.00  0.00    +0.000 HD
ENDBRANCH  40  43
ENDBRANCH  34  35
ENDBRANCH  32  33
ENDBRANCH  30  32
ENDBRANCH  19  30
TORSDOF 10
ENDMDL
