MODEL 1
REMARK VINA RESULT:      -3.8      0.000      0.000
REMARK  Name = 92041_2Ethoxy5fluorouracil.pdbqt.pdb
REMARK  2 active torsions:
REMARK  status: ('A' for Active; 'I' for Inactive)
REMARK    1  A    between atoms: C_5  and  O_10
REMARK    2  A    between atoms: O_10  and  C_11
REMARK                            x       y       z     vdW  Elec       q    Type
REMARK                         _______ _______ _______ _____ _____    ______ ____
ROOT
ATOM      1  F   UNL     1     -38.538  58.934  -4.938  0.00  0.00    +0.000 F 
ATOM      2  O   UNL     1     -36.851  58.180  -7.110  0.00  0.00    +0.000 OA
ATOM      3  N   UNL     1     -35.313  59.717  -6.367  0.00  0.00    +0.000 N 
ATOM      4  N   UNL     1     -35.576  60.948  -4.364  0.00  0.00    +0.000 NA
ATOM      5  C   UNL     1     -34.907  60.685  -5.451  0.00  0.00    +0.000 C 
ATOM      6  C   UNL     1     -36.478  58.958  -6.242  0.00  0.00    +0.000 C 
ATOM      7  C   UNL     1     -37.223  59.207  -4.967  0.00  0.00    +0.000 C 
ATOM      8  C   UNL     1     -36.654  60.156  -4.301  0.00  0.00    +0.000 C 
ATOM      9  H   UNL     1     -34.779  59.581  -7.212  0.00  0.00    +0.000 HD
ENDROOT
BRANCH   5  10
ATOM     10  O   UNL     1     -33.761  61.302  -5.822  0.00  0.00    +0.000 OA
BRANCH  10  11
ATOM     11  C   UNL     1     -33.837  62.081  -6.896  0.00  0.00    +0.000 C 
ATOM     12  C   UNL     1     -33.983  62.958  -8.144  0.00  0.00    +0.000 C 
ENDBRANCH  10  11
ENDBRANCH   5  10
TORSDOF 2
ENDMDL
MODEL 2
REMARK VINA RESULT:      -3.7     14.886     16.164
REMARK  Name = 92041_2Ethoxy5fluorouracil.pdbqt.pdb
REMARK  2 active torsions:
REMARK  status: ('A' for Active; 'I' for Inactive)
REMARK    1  A    between atoms: C_5  and  O_10
REMARK    2  A    between atoms: O_10  and  C_11
REMARK                            x       y       z     vdW  Elec       q    Type
REMARK                         _______ _______ _______ _____ _____    ______ ____
ROOT
ATOM      1  F   UNL     1     -33.439  45.403 -10.245  0.00  0.00    +0.000 F 
ATOM      2  O   UNL     1     -33.019  42.963  -8.830  0.00  0.00    +0.000 OA
ATOM      3  N   UNL     1     -33.625  44.053  -6.899  0.00  0.00    +0.000 N 
ATOM      4  N   UNL     1     -34.407  46.284  -6.862  0.00  0.00    +0.000 NA
ATOM      5  C   UNL     1     -34.058  45.197  -6.234  0.00  0.00    +0.000 C 
ATOM      6  C   UNL     1     -33.488  43.954  -8.286  0.00  0.00    +0.000 C 
ATOM      7  C   UNL     1     -33.945  45.175  -9.022  0.00  0.00    +0.000 C 
ATOM      8  C   UNL     1     -34.283  46.097  -8.182  0.00  0.00    +0.000 C 
ATOM      9  H   UNL     1     -33.329  43.251  -6.362  0.00  0.00    +0.000 HD
ENDROOT
BRANCH   5  10
ATOM     10  O   UNL     1     -34.069  45.044  -4.890  0.00  0.00    +0.000 OA
BRANCH  10  11
ATOM     11  C   UNL     1     -33.109  44.278  -4.380  0.00  0.00    +0.000 C 
ATOM     12  C   UNL     1     -32.025  43.408  -3.735  0.00  0.00    +0.000 C 
ENDBRANCH  10  11
ENDBRANCH   5  10
TORSDOF 2
ENDMDL
MODEL 3
REMARK VINA RESULT:      -3.5     19.650     20.816
REMARK  Name = 92041_2Ethoxy5fluorouracil.pdbqt.pdb
REMARK  2 active torsions:
REMARK  status: ('A' for Active; 'I' for Inactive)
REMARK    1  A    between atoms: C_5  and  O_10
REMARK    2  A    between atoms: O_10  and  C_11
REMARK                            x       y       z     vdW  Elec       q    Type
REMARK                         _______ _______ _______ _____ _____    ______ ____
ROOT
ATOM      1  F   UNL     1     -28.960  42.175 -19.425  0.00  0.00    +0.000 F 
ATOM      2  O   UNL     1     -29.228  45.008 -19.250  0.00  0.00    +0.000 OA
ATOM      3  N   UNL     1     -30.194  44.726 -17.183  0.00  0.00    +0.000 N 
ATOM      4  N   UNL     1     -30.374  42.624 -16.115  0.00  0.00    +0.000 NA
ATOM      5  C   UNL     1     -30.616  43.904 -16.142  0.00  0.00    +0.000 C 
ATOM      6  C   UNL     1     -29.505  44.273 -18.311  0.00  0.00    +0.000 C 
ATOM      7  C   UNL     1     -29.167  42.815 -18.263  0.00  0.00    +0.000 C 
ATOM      8  C   UNL     1     -29.682  42.277 -17.207  0.00  0.00    +0.000 C 
ATOM      9  H   UNL     1     -30.442  45.704 -17.174  0.00  0.00    +0.000 HD
ENDROOT
BRANCH   5  10
ATOM     10  O   UNL     1     -31.293  44.583 -15.186  0.00  0.00    +0.000 OA
BRANCH  10  11
ATOM     11  C   UNL     1     -32.231  45.421 -15.617  0.00  0.00    +0.000 C 
ATOM     12  C   UNL     1     -33.327  46.398 -16.053  0.00  0.00    +0.000 C 
ENDBRANCH  10  11
ENDBRANCH   5  10
TORSDOF 2
ENDMDL
MODEL 4
REMARK VINA RESULT:      -3.3      2.217      2.821
REMARK  Name = 92041_2Ethoxy5fluorouracil.pdbqt.pdb
REMARK  2 active torsions:
REMARK  status: ('A' for Active; 'I' for Inactive)
REMARK    1  A    between atoms: C_5  and  O_10
REMARK    2  A    between atoms: O_10  and  C_11
REMARK                            x       y       z     vdW  Elec       q    Type
REMARK                         _______ _______ _______ _____ _____    ______ ____
ROOT
ATOM      1  F   UNL     1     -37.212  59.869  -4.550  0.00  0.00    +0.000 F 
ATOM      2  O   UNL     1     -35.317  61.471  -3.144  0.00  0.00    +0.000 OA
ATOM      3  N   UNL     1     -34.200  61.780  -5.129  0.00  0.00    +0.000 N 
ATOM      4  N   UNL     1     -35.003  60.980  -7.205  0.00  0.00    +0.000 NA
ATOM      5  C   UNL     1     -34.082  61.574  -6.501  0.00  0.00    +0.000 C 
ATOM      6  C   UNL     1     -35.287  61.352  -4.362  0.00  0.00    +0.000 C 
ATOM      7  C   UNL     1     -36.381  60.724  -5.168  0.00  0.00    +0.000 C 
ATOM      8  C   UNL     1     -36.022  60.636  -6.406  0.00  0.00    +0.000 C 
ATOM      9  H   UNL     1     -33.439  62.210  -4.625  0.00  0.00    +0.000 HD
ENDROOT
BRANCH   5  10
ATOM     10  O   UNL     1     -32.919  62.054  -6.999  0.00  0.00    +0.000 OA
BRANCH  10  11
ATOM     11  C   UNL     1     -32.386  63.085  -6.351  0.00  0.00    +0.000 C 
ATOM     12  C   UNL     1     -31.754  64.298  -5.659  0.00  0.00    +0.000 C 
ENDBRANCH  10  11
ENDBRANCH   5  10
TORSDOF 2
ENDMDL
MODEL 5
REMARK VINA RESULT:      -3.3      6.353      7.579
REMARK  Name = 92041_2Ethoxy5fluorouracil.pdbqt.pdb
REMARK  2 active torsions:
REMARK  status: ('A' for Active; 'I' for Inactive)
REMARK    1  A    between atoms: C_5  and  O_10
REMARK    2  A    between atoms: O_10  and  C_11
REMARK                            x       y       z     vdW  Elec       q    Type
REMARK                         _______ _______ _______ _____ _____    ______ ____
ROOT
ATOM      1  F   UNL     1     -31.489  64.813  -6.183  0.00  0.00    +0.000 F 
ATOM      2  O   UNL     1     -32.000  62.172  -5.238  0.00  0.00    +0.000 OA
ATOM      3  N   UNL     1     -30.784  62.679  -3.354  0.00  0.00    +0.000 N 
ATOM      4  N   UNL     1     -29.919  64.835  -2.913  0.00  0.00    +0.000 NA
ATOM      5  C   UNL     1     -30.045  63.579  -2.592  0.00  0.00    +0.000 C 
ATOM      6  C   UNL     1     -31.434  63.008  -4.546  0.00  0.00    +0.000 C 
ATOM      7  C   UNL     1     -31.349  64.462  -4.895  0.00  0.00    +0.000 C 
ATOM      8  C   UNL     1     -30.598  65.077  -4.042  0.00  0.00    +0.000 C 
ATOM      9  H   UNL     1     -30.817  61.708  -3.081  0.00  0.00    +0.000 HD
ENDROOT
BRANCH   5  10
ATOM     10  O   UNL     1     -29.488  63.001  -1.502  0.00  0.00    +0.000 OA
BRANCH  10  11
ATOM     11  C   UNL     1     -29.520  63.714  -0.380  0.00  0.00    +0.000 C 
ATOM     12  C   UNL     1     -29.603  64.497   0.934  0.00  0.00    +0.000 C 
ENDBRANCH  10  11
ENDBRANCH   5  10
TORSDOF 2
ENDMDL
MODEL 6
REMARK VINA RESULT:      -3.2     18.444     19.899
REMARK  Name = 92041_2Ethoxy5fluorouracil.pdbqt.pdb
REMARK  2 active torsions:
REMARK  status: ('A' for Active; 'I' for Inactive)
REMARK    1  A    between atoms: C_5  and  O_10
REMARK    2  A    between atoms: O_10  and  C_11
REMARK                            x       y       z     vdW  Elec       q    Type
REMARK                         _______ _______ _______ _____ _____    ______ ____
ROOT
ATOM      1  F   UNL     1     -27.868  60.520 -26.656  0.00  0.00    +0.000 F 
ATOM      2  O   UNL     1     -27.615  62.262 -24.413  0.00  0.00    +0.000 OA
ATOM      3  N   UNL     1     -29.853  61.950 -23.997  0.00  0.00    +0.000 N 
ATOM      4  N   UNL     1     -31.200  60.440 -25.223  0.00  0.00    +0.000 NA
ATOM      5  C   UNL     1     -31.075  61.357 -24.305  0.00  0.00    +0.000 C 
ATOM      6  C   UNL     1     -28.652  61.658 -24.648  0.00  0.00    +0.000 C 
ATOM      7  C   UNL     1     -28.770  60.562 -25.662  0.00  0.00    +0.000 C 
ATOM      8  C   UNL     1     -30.003  60.192 -25.771  0.00  0.00    +0.000 C 
ATOM      9  H   UNL     1     -29.819  62.683 -23.305  0.00  0.00    +0.000 HD
ENDROOT
BRANCH   5  10
ATOM     10  O   UNL     1     -32.091  61.839 -23.552  0.00  0.00    +0.000 OA
BRANCH  10  11
ATOM     11  C   UNL     1     -31.847  62.969 -22.896  0.00  0.00    +0.000 C 
ATOM     12  C   UNL     1     -31.627  64.285 -22.143  0.00  0.00    +0.000 C 
ENDBRANCH  10  11
ENDBRANCH   5  10
TORSDOF 2
ENDMDL
MODEL 7
REMARK VINA RESULT:      -3.2     17.172     18.237
REMARK  Name = 92041_2Ethoxy5fluorouracil.pdbqt.pdb
REMARK  2 active torsions:
REMARK  status: ('A' for Active; 'I' for Inactive)
REMARK    1  A    between atoms: C_5  and  O_10
REMARK    2  A    between atoms: O_10  and  C_11
REMARK                            x       y       z     vdW  Elec       q    Type
REMARK                         _______ _______ _______ _____ _____    ______ ____
ROOT
ATOM      1  F   UNL     1     -35.954  39.690  -5.503  0.00  0.00    +0.000 F 
ATOM      2  O   UNL     1     -33.218  39.809  -6.301  0.00  0.00    +0.000 OA
ATOM      3  N   UNL     1     -33.075  41.863  -5.278  0.00  0.00    +0.000 N 
ATOM      4  N   UNL     1     -34.843  42.812  -4.027  0.00  0.00    +0.000 NA
ATOM      5  C   UNL     1     -33.648  42.895  -4.540  0.00  0.00    +0.000 C 
ATOM      6  C   UNL     1     -33.718  40.658  -5.574  0.00  0.00    +0.000 C 
ATOM      7  C   UNL     1     -35.067  40.525  -4.938  0.00  0.00    +0.000 C 
ATOM      8  C   UNL     1     -35.374  41.619  -4.323  0.00  0.00    +0.000 C 
ATOM      9  H   UNL     1     -32.162  41.994  -5.687  0.00  0.00    +0.000 HD
ENDROOT
BRANCH   5  10
ATOM     10  O   UNL     1     -32.831  43.968  -4.426  0.00  0.00    +0.000 OA
BRANCH  10  11
ATOM     11  C   UNL     1     -32.704  44.724  -5.512  0.00  0.00    +0.000 C 
ATOM     12  C   UNL     1     -32.590  45.554  -6.794  0.00  0.00    +0.000 C 
ENDBRANCH  10  11
ENDBRANCH   5  10
TORSDOF 2
ENDMDL
MODEL 8
REMARK VINA RESULT:      -3.2     14.627     15.623
REMARK  Name = 92041_2Ethoxy5fluorouracil.pdbqt.pdb
REMARK  2 active torsions:
REMARK  status: ('A' for Active; 'I' for Inactive)
REMARK    1  A    between atoms: C_5  and  O_10
REMARK    2  A    between atoms: O_10  and  C_11
REMARK                            x       y       z     vdW  Elec       q    Type
REMARK                         _______ _______ _______ _____ _____    ______ ____
ROOT
ATOM      1  F   UNL     1     -42.383  60.447 -20.118  0.00  0.00    +0.000 F 
ATOM      2  O   UNL     1     -41.316  58.987 -17.913  0.00  0.00    +0.000 OA
ATOM      3  N   UNL     1     -39.694  58.169 -19.321  0.00  0.00    +0.000 N 
ATOM      4  N   UNL     1     -39.454  58.871 -21.566  0.00  0.00    +0.000 NA
ATOM      5  C   UNL     1     -39.094  58.105 -20.575  0.00  0.00    +0.000 C 
ATOM      6  C   UNL     1     -40.753  59.021 -18.999  0.00  0.00    +0.000 C 
ATOM      7  C   UNL     1     -41.135  59.949 -20.110  0.00  0.00    +0.000 C 
ATOM      8  C   UNL     1     -40.444  59.680 -21.168  0.00  0.00    +0.000 C 
ATOM      9  H   UNL     1     -39.403  57.526 -18.600  0.00  0.00    +0.000 HD
ENDROOT
BRANCH   5  10
ATOM     10  O   UNL     1     -38.115  57.173 -20.636  0.00  0.00    +0.000 OA
BRANCH  10  11
ATOM     11  C   UNL     1     -38.131  56.376 -21.700  0.00  0.00    +0.000 C 
ATOM     12  C   UNL     1     -38.115  55.416 -22.894  0.00  0.00    +0.000 C 
ENDBRANCH  10  11
ENDBRANCH   5  10
TORSDOF 2
ENDMDL
MODEL 9
REMARK VINA RESULT:      -3.2     26.453     27.255
REMARK  Name = 92041_2Ethoxy5fluorouracil.pdbqt.pdb
REMARK  2 active torsions:
REMARK  status: ('A' for Active; 'I' for Inactive)
REMARK    1  A    between atoms: C_5  and  O_10
REMARK    2  A    between atoms: O_10  and  C_11
REMARK                            x       y       z     vdW  Elec       q    Type
REMARK                         _______ _______ _______ _____ _____    ______ ____
ROOT
ATOM      1  F   UNL     1     -21.138  36.273  -0.414  0.00  0.00    +0.000 F 
ATOM      2  O   UNL     1     -21.104  38.852   0.804  0.00  0.00    +0.000 OA
ATOM      3  N   UNL     1     -23.268  38.489   1.486  0.00  0.00    +0.000 N 
ATOM      4  N   UNL     1     -24.402  36.439   1.160  0.00  0.00    +0.000 NA
ATOM      5  C   UNL     1     -24.396  37.677   1.567  0.00  0.00    +0.000 C 
ATOM      6  C   UNL     1     -22.047  38.085   0.940  0.00  0.00    +0.000 C 
ATOM      7  C   UNL     1     -22.022  36.646   0.526  0.00  0.00    +0.000 C 
ATOM      8  C   UNL     1     -23.191  36.119   0.687  0.00  0.00    +0.000 C 
ATOM      9  H   UNL     1     -23.329  39.452   1.780  0.00  0.00    +0.000 HD
ENDROOT
BRANCH   5  10
ATOM     10  O   UNL     1     -25.459  38.318   2.106  0.00  0.00    +0.000 OA
BRANCH  10  11
ATOM     11  C   UNL     1     -26.034  37.724   3.148  0.00  0.00    +0.000 C 
ATOM     12  C   UNL     1     -26.699  36.988   4.315  0.00  0.00    +0.000 C 
ENDBRANCH  10  11
ENDBRANCH   5  10
TORSDOF 2
ENDMDL
