MODEL 1
REMARK VINA RESULT:      -4.3      0.000      0.000
REMARK  Name = 95716_6Bromoisatin.pdbqt.pdb
REMARK  0 active torsions:
REMARK  status: ('A' for Active; 'I' for Inactive)
REMARK                            x       y       z     vdW  Elec       q    Type
REMARK                         _______ _______ _______ _____ _____    ______ ____
ROOT
ATOM      1 BR   UNL     1     -26.692  60.703 -30.144  0.00  0.00    +0.000 Br
ATOM      2  O   UNL     1     -30.606  60.479 -24.366  0.00  0.00    +0.000 OA
ATOM      3  O   UNL     1     -33.072  60.520 -26.095  0.00  0.00    +0.000 OA
ATOM      4  N   UNL     1     -31.450  60.588 -27.769  0.00  0.00    +0.000 N 
ATOM      5  C   UNL     1     -30.058  60.599 -27.792  0.00  0.00    +0.000 A 
ATOM      6  C   UNL     1     -29.526  60.559 -26.505  0.00  0.00    +0.000 A 
ATOM      7  C   UNL     1     -30.652  60.520 -25.573  0.00  0.00    +0.000 C 
ATOM      8  C   UNL     1     -29.246  60.642 -28.905  0.00  0.00    +0.000 A 
ATOM      9  C   UNL     1     -28.170  60.561 -26.256  0.00  0.00    +0.000 A 
ATOM     10  C   UNL     1     -31.923  60.541 -26.471  0.00  0.00    +0.000 C 
ATOM     11  C   UNL     1     -27.869  60.645 -28.672  0.00  0.00    +0.000 A 
ATOM     12  C   UNL     1     -27.334  60.605 -27.373  0.00  0.00    +0.000 A 
ATOM     13  H   UNL     1     -32.060  60.611 -28.574  0.00  0.00    +0.000 HD
ENDROOT
TORSDOF 0
ENDMDL
MODEL 2
REMARK VINA RESULT:      -4.1     26.233     27.399
REMARK  Name = 95716_6Bromoisatin.pdbqt.pdb
REMARK  0 active torsions:
REMARK  status: ('A' for Active; 'I' for Inactive)
REMARK                            x       y       z     vdW  Elec       q    Type
REMARK                         _______ _______ _______ _____ _____    ______ ____
ROOT
ATOM      1 BR   UNL     1     -36.309  46.777  -8.775  0.00  0.00    +0.000 Br
ATOM      2  O   UNL     1     -33.994  41.878  -4.372  0.00  0.00    +0.000 OA
ATOM      3  O   UNL     1     -31.954  43.839  -3.340  0.00  0.00    +0.000 OA
ATOM      4  N   UNL     1     -32.991  45.192  -4.931  0.00  0.00    +0.000 N 
ATOM      5  C   UNL     1     -34.035  45.024  -5.838  0.00  0.00    +0.000 A 
ATOM      6  C   UNL     1     -34.573  43.742  -5.763  0.00  0.00    +0.000 A 
ATOM      7  C   UNL     1     -33.828  43.019  -4.733  0.00  0.00    +0.000 C 
ATOM      8  C   UNL     1     -34.524  45.960  -6.723  0.00  0.00    +0.000 A 
ATOM      9  C   UNL     1     -35.620  43.323  -6.558  0.00  0.00    +0.000 A 
ATOM     10  C   UNL     1     -32.776  44.036  -4.204  0.00  0.00    +0.000 C 
ATOM     11  C   UNL     1     -35.584  45.553  -7.537  0.00  0.00    +0.000 A 
ATOM     12  C   UNL     1     -36.127  44.259  -7.461  0.00  0.00    +0.000 A 
ATOM     13  H   UNL     1     -32.446  46.032  -4.799  0.00  0.00    +0.000 HD
ENDROOT
TORSDOF 0
ENDMDL
MODEL 3
REMARK VINA RESULT:      -4.1     34.779     35.848
REMARK  Name = 95716_6Bromoisatin.pdbqt.pdb
REMARK  0 active torsions:
REMARK  status: ('A' for Active; 'I' for Inactive)
REMARK                            x       y       z     vdW  Elec       q    Type
REMARK                         _______ _______ _______ _____ _____    ______ ____
ROOT
ATOM      1 BR   UNL     1     -18.787  53.820   7.968  0.00  0.00    +0.000 Br
ATOM      2  O   UNL     1     -16.004  48.797   3.997  0.00  0.00    +0.000 OA
ATOM      3  O   UNL     1     -16.887  50.313   1.549  0.00  0.00    +0.000 OA
ATOM      4  N   UNL     1     -17.686  51.766   3.187  0.00  0.00    +0.000 N 
ATOM      5  C   UNL     1     -17.679  51.781   4.579  0.00  0.00    +0.000 A 
ATOM      6  C   UNL     1     -17.039  50.658   5.098  0.00  0.00    +0.000 A 
ATOM      7  C   UNL     1     -16.597  49.849   3.963  0.00  0.00    +0.000 C 
ATOM      8  C   UNL     1     -18.214  52.749   5.402  0.00  0.00    +0.000 A 
ATOM      9  C   UNL     1     -16.899  50.436   6.452  0.00  0.00    +0.000 A 
ATOM     10  C   UNL     1     -17.056  50.637   2.701  0.00  0.00    +0.000 C 
ATOM     11  C   UNL     1     -18.081  52.541   6.777  0.00  0.00    +0.000 A 
ATOM     12  C   UNL     1     -17.435  51.407   7.299  0.00  0.00    +0.000 A 
ATOM     13  H   UNL     1     -18.090  52.470   2.585  0.00  0.00    +0.000 HD
ENDROOT
TORSDOF 0
ENDMDL
MODEL 4
REMARK VINA RESULT:      -4.0     12.644     13.181
REMARK  Name = 95716_6Bromoisatin.pdbqt.pdb
REMARK  0 active torsions:
REMARK  status: ('A' for Active; 'I' for Inactive)
REMARK                            x       y       z     vdW  Elec       q    Type
REMARK                         _______ _______ _______ _____ _____    ______ ____
ROOT
ATOM      1 BR   UNL     1     -20.701  52.738 -32.780  0.00  0.00    +0.000 Br
ATOM      2  O   UNL     1     -17.676  56.715 -27.905  0.00  0.00    +0.000 OA
ATOM      3  O   UNL     1     -17.248  54.249 -26.229  0.00  0.00    +0.000 OA
ATOM      4  N   UNL     1     -18.303  53.268 -28.063  0.00  0.00    +0.000 N 
ATOM      5  C   UNL     1     -18.820  53.735 -29.268  0.00  0.00    +0.000 A 
ATOM      6  C   UNL     1     -18.660  55.113 -29.391  0.00  0.00    +0.000 A 
ATOM      7  C   UNL     1     -17.991  55.582 -28.178  0.00  0.00    +0.000 C 
ATOM      8  C   UNL     1     -19.424  52.989 -30.257  0.00  0.00    +0.000 A 
ATOM      9  C   UNL     1     -19.089  55.820 -30.495  0.00  0.00    +0.000 A 
ATOM     10  C   UNL     1     -17.772  54.304 -27.317  0.00  0.00    +0.000 C 
ATOM     11  C   UNL     1     -19.864  53.688 -31.383  0.00  0.00    +0.000 A 
ATOM     12  C   UNL     1     -19.703  55.079 -31.507  0.00  0.00    +0.000 A 
ATOM     13  H   UNL     1     -18.301  52.308 -27.746  0.00  0.00    +0.000 HD
ENDROOT
TORSDOF 0
ENDMDL
MODEL 5
REMARK VINA RESULT:      -4.0     18.439     19.520
REMARK  Name = 95716_6Bromoisatin.pdbqt.pdb
REMARK  0 active torsions:
REMARK  status: ('A' for Active; 'I' for Inactive)
REMARK                            x       y       z     vdW  Elec       q    Type
REMARK                         _______ _______ _______ _____ _____    ______ ____
ROOT
ATOM      1 BR   UNL     1     -33.768  66.141 -11.667  0.00  0.00    +0.000 Br
ATOM      2  O   UNL     1     -34.962  60.844  -7.279  0.00  0.00    +0.000 OA
ATOM      3  O   UNL     1     -32.819  61.930  -5.463  0.00  0.00    +0.000 OA
ATOM      4  N   UNL     1     -32.712  63.532  -7.155  0.00  0.00    +0.000 N 
ATOM      5  C   UNL     1     -33.384  63.742  -8.356  0.00  0.00    +0.000 A 
ATOM      6  C   UNL     1     -34.339  62.754  -8.586  0.00  0.00    +0.000 A 
ATOM      7  C   UNL     1     -34.288  61.832  -7.452  0.00  0.00    +0.000 C 
ATOM      8  C   UNL     1     -33.182  64.770  -9.251  0.00  0.00    +0.000 A 
ATOM      9  C   UNL     1     -35.139  62.736  -9.709  0.00  0.00    +0.000 A 
ATOM     10  C   UNL     1     -33.180  62.398  -6.518  0.00  0.00    +0.000 C 
ATOM     11  C   UNL     1     -33.984  64.767 -10.394  0.00  0.00    +0.000 A 
ATOM     12  C   UNL     1     -34.948  63.770 -10.625  0.00  0.00    +0.000 A 
ATOM     13  H   UNL     1     -31.978  64.112  -6.772  0.00  0.00    +0.000 HD
ENDROOT
TORSDOF 0
ENDMDL
MODEL 6
REMARK VINA RESULT:      -4.0     14.408     15.504
REMARK  Name = 95716_6Bromoisatin.pdbqt.pdb
REMARK  0 active torsions:
REMARK  status: ('A' for Active; 'I' for Inactive)
REMARK                            x       y       z     vdW  Elec       q    Type
REMARK                         _______ _______ _______ _____ _____    ______ ____
ROOT
ATOM      1 BR   UNL     1     -16.908  59.740 -21.748  0.00  0.00    +0.000 Br
ATOM      2  O   UNL     1     -16.108  53.657 -25.081  0.00  0.00    +0.000 OA
ATOM      3  O   UNL     1     -15.116  52.437 -22.512  0.00  0.00    +0.000 OA
ATOM      4  N   UNL     1     -15.513  54.608 -21.757  0.00  0.00    +0.000 N 
ATOM      5  C   UNL     1     -15.982  55.782 -22.339  0.00  0.00    +0.000 A 
ATOM      6  C   UNL     1     -16.279  55.600 -23.687  0.00  0.00    +0.000 A 
ATOM      7  C   UNL     1     -15.982  54.205 -24.011  0.00  0.00    +0.000 C 
ATOM      8  C   UNL     1     -16.156  57.002 -21.722  0.00  0.00    +0.000 A 
ATOM      9  C   UNL     1     -16.761  56.613 -24.490  0.00  0.00    +0.000 A 
ATOM     10  C   UNL     1     -15.471  53.580 -22.681  0.00  0.00    +0.000 C 
ATOM     11  C   UNL     1     -16.643  58.040 -22.519  0.00  0.00    +0.000 A 
ATOM     12  C   UNL     1     -16.942  57.856 -23.880  0.00  0.00    +0.000 A 
ATOM     13  H   UNL     1     -15.233  54.489 -20.793  0.00  0.00    +0.000 HD
ENDROOT
TORSDOF 0
ENDMDL
MODEL 7
REMARK VINA RESULT:      -4.0     35.215     36.278
REMARK  Name = 95716_6Bromoisatin.pdbqt.pdb
REMARK  0 active torsions:
REMARK  status: ('A' for Active; 'I' for Inactive)
REMARK                            x       y       z     vdW  Elec       q    Type
REMARK                         _______ _______ _______ _____ _____    ______ ____
ROOT
ATOM      1 BR   UNL     1     -16.262  48.050   8.412  0.00  0.00    +0.000 Br
ATOM      2  O   UNL     1     -17.923  53.145   3.937  0.00  0.00    +0.000 OA
ATOM      3  O   UNL     1     -17.151  51.331   1.661  0.00  0.00    +0.000 OA
ATOM      4  N   UNL     1     -16.706  49.893   3.443  0.00  0.00    +0.000 N 
ATOM      5  C   UNL     1     -16.804  49.983   4.828  0.00  0.00    +0.000 A 
ATOM      6  C   UNL     1     -17.280  51.230   5.227  0.00  0.00    +0.000 A 
ATOM      7  C   UNL     1     -17.511  52.012   4.013  0.00  0.00    +0.000 C 
ATOM      8  C   UNL     1     -16.488  49.006   5.748  0.00  0.00    +0.000 A 
ATOM      9  C   UNL     1     -17.467  51.571   6.550  0.00  0.00    +0.000 A 
ATOM     10  C   UNL     1     -17.110  51.070   2.841  0.00  0.00    +0.000 C 
ATOM     11  C   UNL     1     -16.671  49.334   7.093  0.00  0.00    +0.000 A 
ATOM     12  C   UNL     1     -17.152  50.593   7.494  0.00  0.00    +0.000 A 
ATOM     13  H   UNL     1     -16.387  49.091   2.918  0.00  0.00    +0.000 HD
ENDROOT
TORSDOF 0
ENDMDL
MODEL 8
REMARK VINA RESULT:      -3.9     18.017     19.105
REMARK  Name = 95716_6Bromoisatin.pdbqt.pdb
REMARK  0 active torsions:
REMARK  status: ('A' for Active; 'I' for Inactive)
REMARK                            x       y       z     vdW  Elec       q    Type
REMARK                         _______ _______ _______ _____ _____    ______ ____
ROOT
ATOM      1 BR   UNL     1     -36.386  46.524 -12.106  0.00  0.00    +0.000 Br
ATOM      2  O   UNL     1     -33.282  48.012 -18.180  0.00  0.00    +0.000 OA
ATOM      3  O   UNL     1     -31.690  45.467 -17.933  0.00  0.00    +0.000 OA
ATOM      4  N   UNL     1     -32.928  45.317 -15.962  0.00  0.00    +0.000 N 
ATOM      5  C   UNL     1     -33.894  46.106 -15.344  0.00  0.00    +0.000 A 
ATOM      6  C   UNL     1     -34.175  47.248 -16.091  0.00  0.00    +0.000 A 
ATOM      7  C   UNL     1     -33.331  47.202 -17.285  0.00  0.00    +0.000 C 
ATOM      8  C   UNL     1     -34.532  45.853 -14.149  0.00  0.00    +0.000 A 
ATOM      9  C   UNL     1     -35.098  48.192 -15.694  0.00  0.00    +0.000 A 
ATOM     10  C   UNL     1     -32.512  45.886 -17.152  0.00  0.00    +0.000 C 
ATOM     11  C   UNL     1     -35.471  46.799 -13.731  0.00  0.00    +0.000 A 
ATOM     12  C   UNL     1     -35.754  47.951 -14.486  0.00  0.00    +0.000 A 
ATOM     13  H   UNL     1     -32.560  44.443 -15.615  0.00  0.00    +0.000 HD
ENDROOT
TORSDOF 0
ENDMDL
MODEL 9
REMARK VINA RESULT:      -3.9     28.810     29.966
REMARK  Name = 95716_6Bromoisatin.pdbqt.pdb
REMARK  0 active torsions:
REMARK  status: ('A' for Active; 'I' for Inactive)
REMARK                            x       y       z     vdW  Elec       q    Type
REMARK                         _______ _______ _______ _____ _____    ______ ____
ROOT
ATOM      1 BR   UNL     1     -14.829  45.333  -3.020  0.00  0.00    +0.000 Br
ATOM      2  O   UNL     1     -11.648  48.845  -8.148  0.00  0.00    +0.000 OA
ATOM      3  O   UNL     1     -12.941  51.375  -7.149  0.00  0.00    +0.000 OA
ATOM      4  N   UNL     1     -13.817  49.877  -5.591  0.00  0.00    +0.000 N 
ATOM      5  C   UNL     1     -13.700  48.508  -5.368  0.00  0.00    +0.000 A 
ATOM      6  C   UNL     1     -12.860  47.908  -6.304  0.00  0.00    +0.000 A 
ATOM      7  C   UNL     1     -12.393  48.962  -7.204  0.00  0.00    +0.000 C 
ATOM      8  C   UNL     1     -14.307  47.774  -4.372  0.00  0.00    +0.000 A 
ATOM      9  C   UNL     1     -12.580  46.558  -6.300  0.00  0.00    +0.000 A 
ATOM     10  C   UNL     1     -13.064  50.266  -6.683  0.00  0.00    +0.000 C 
ATOM     11  C   UNL     1     -14.035  46.405  -4.353  0.00  0.00    +0.000 A 
ATOM     12  C   UNL     1     -13.188  45.801  -5.297  0.00  0.00    +0.000 A 
ATOM     13  H   UNL     1     -14.368  50.525  -5.047  0.00  0.00    +0.000 HD
ENDROOT
TORSDOF 0
ENDMDL
