MODEL 1
REMARK VINA RESULT:      -6.6      0.000      0.000
REMARK  Name = 969516_Curcumin.pdbqt.pdb
REMARK  8 active torsions:
REMARK  status: ('A' for Active; 'I' for Inactive)
REMARK    1  A    between atoms: C_3  and  C_5
REMARK    2  A    between atoms: C_4  and  C_6
REMARK    3  A    between atoms: C_8  and  O_12
REMARK    4  A    between atoms: C_10  and  O_14
REMARK    5  A    between atoms: C_17  and  C_19
REMARK    6  A    between atoms: C_18  and  C_20
REMARK    7  A    between atoms: C_22  and  O_26
REMARK    8  A    between atoms: C_24  and  O_28
REMARK                            x       y       z     vdW  Elec       q    Type
REMARK                         _______ _______ _______ _____ _____    ______ ____
ROOT
ATOM      1  C   UNL     1     -34.485  46.092 -12.810  0.00  0.00    +0.000 C 
ATOM      2  O   UNL     1     -36.399  47.350 -12.897  0.00  0.00    +0.000 OA
ATOM      3  C   UNL     1     -35.420  46.926 -13.491  0.00  0.00    +0.000 C 
ATOM      4  O   UNL     1     -32.753  44.591 -12.769  0.00  0.00    +0.000 OA
ATOM      5  C   UNL     1     -33.554  45.256 -12.129  0.00  0.00    +0.000 C 
ENDROOT
BRANCH   3   7
ATOM      6  C   UNL     1     -35.018  47.547 -16.028  0.00  0.00    +0.000 C 
ATOM      7  C   UNL     1     -35.200  47.266 -14.875  0.00  0.00    +0.000 C 
BRANCH   6   8
ATOM      8  C   UNL     1     -34.802  47.881 -17.398  0.00  0.00    +0.000 A 
ATOM      9  C   UNL     1     -35.230  49.115 -17.888  0.00  0.00    +0.000 A 
ATOM     10  C   UNL     1     -35.027  49.458 -19.228  0.00  0.00    +0.000 A 
ATOM     11  C   UNL     1     -34.166  46.976 -18.244  0.00  0.00    +0.000 A 
ATOM     12  C   UNL     1     -34.387  48.542 -20.068  0.00  0.00    +0.000 A 
ATOM     13  C   UNL     1     -33.958  47.308 -19.579  0.00  0.00    +0.000 A 
BRANCH  10  14
ATOM     14  O   UNL     1     -35.419  50.652 -19.781  0.00  0.00    +0.000 OA
ATOM     15  C   UNL     1     -36.793  50.810 -19.995  0.00  0.00    +0.000 C 
ENDBRANCH  10  14
BRANCH  12  16
ATOM     16  O   UNL     1     -34.144  48.788 -21.391  0.00  0.00    +0.000 OA
ATOM     17  H   UNL     1     -34.032  47.956 -21.880  0.00  0.00    +0.000 HD
ENDBRANCH  12  16
ENDBRANCH   6   8
ENDBRANCH   3   7
BRANCH   5  19
ATOM     18  C   UNL     1     -33.569  45.157  -9.488  0.00  0.00    +0.000 C 
ATOM     19  C   UNL     1     -33.563  45.200 -10.689  0.00  0.00    +0.000 C 
BRANCH  18  20
ATOM     20  C   UNL     1     -33.572  45.109  -8.063  0.00  0.00    +0.000 A 
ATOM     21  C   UNL     1     -34.709  45.498  -7.357  0.00  0.00    +0.000 A 
ATOM     22  C   UNL     1     -34.727  45.456  -5.960  0.00  0.00    +0.000 A 
ATOM     23  C   UNL     1     -32.439  44.672  -7.379  0.00  0.00    +0.000 A 
ATOM     24  C   UNL     1     -33.585  45.016  -5.288  0.00  0.00    +0.000 A 
ATOM     25  C   UNL     1     -32.445  44.626  -5.988  0.00  0.00    +0.000 A 
BRANCH  22  26
ATOM     26  O   UNL     1     -35.803  45.821  -5.188  0.00  0.00    +0.000 OA
ATOM     27  C   UNL     1     -37.064  45.612  -5.771  0.00  0.00    +0.000 C 
ENDBRANCH  22  26
BRANCH  24  28
ATOM     28  O   UNL     1     -33.583  44.967  -3.920  0.00  0.00    +0.000 OA
ATOM     29  H   UNL     1     -34.406  44.537  -3.622  0.00  0.00    +0.000 HD
ENDBRANCH  24  28
ENDBRANCH  18  20
ENDBRANCH   5  19
TORSDOF 8
ENDMDL
MODEL 2
REMARK VINA RESULT:      -6.6      0.131     11.721
REMARK  Name = 969516_Curcumin.pdbqt.pdb
REMARK  8 active torsions:
REMARK  status: ('A' for Active; 'I' for Inactive)
REMARK    1  A    between atoms: C_3  and  C_5
REMARK    2  A    between atoms: C_4  and  C_6
REMARK    3  A    between atoms: C_8  and  O_12
REMARK    4  A    between atoms: C_10  and  O_14
REMARK    5  A    between atoms: C_17  and  C_19
REMARK    6  A    between atoms: C_18  and  C_20
REMARK    7  A    between atoms: C_22  and  O_26
REMARK    8  A    between atoms: C_24  and  O_28
REMARK                            x       y       z     vdW  Elec       q    Type
REMARK                         _______ _______ _______ _____ _____    ______ ____
ROOT
ATOM      1  C   UNL     1     -34.545  46.058 -12.855  0.00  0.00    +0.000 C 
ATOM      2  O   UNL     1     -32.796  44.579 -12.791  0.00  0.00    +0.000 OA
ATOM      3  C   UNL     1     -33.602  45.245 -12.160  0.00  0.00    +0.000 C 
ATOM      4  O   UNL     1     -36.473  47.292 -12.965  0.00  0.00    +0.000 OA
ATOM      5  C   UNL     1     -35.489  46.867 -13.551  0.00  0.00    +0.000 C 
ENDROOT
BRANCH   3   7
ATOM      6  C   UNL     1     -33.607  45.193  -9.518  0.00  0.00    +0.000 C 
ATOM      7  C   UNL     1     -33.605  45.217 -10.719  0.00  0.00    +0.000 C 
BRANCH   6   8
ATOM      8  C   UNL     1     -33.608  45.165  -8.092  0.00  0.00    +0.000 A 
ATOM      9  C   UNL     1     -34.734  45.591  -7.389  0.00  0.00    +0.000 A 
ATOM     10  C   UNL     1     -34.751  45.571  -5.991  0.00  0.00    +0.000 A 
ATOM     11  C   UNL     1     -32.485  44.713  -7.404  0.00  0.00    +0.000 A 
ATOM     12  C   UNL     1     -33.618  45.114  -5.311  0.00  0.00    +0.000 A 
ATOM     13  C   UNL     1     -32.491  44.687  -6.013  0.00  0.00    +0.000 A 
BRANCH  10  14
ATOM     14  O   UNL     1     -35.822  45.973  -5.232  0.00  0.00    +0.000 OA
ATOM     15  C   UNL     1     -37.082  45.551  -5.673  0.00  0.00    +0.000 C 
ENDBRANCH  10  14
BRANCH  12  16
ATOM     16  O   UNL     1     -33.542  45.057  -3.947  0.00  0.00    +0.000 OA
ATOM     17  H   UNL     1     -34.430  45.009  -3.555  0.00  0.00    +0.000 HD
ENDBRANCH  12  16
ENDBRANCH   6   8
ENDBRANCH   3   7
BRANCH   5  19
ATOM     18  C   UNL     1     -35.093  47.441 -16.100  0.00  0.00    +0.000 C 
ATOM     19  C   UNL     1     -35.275  47.180 -14.941  0.00  0.00    +0.000 C 
BRANCH  18  20
ATOM     20  C   UNL     1     -34.874  47.754 -17.474  0.00  0.00    +0.000 A 
ATOM     21  C   UNL     1     -35.251  49.000 -17.971  0.00  0.00    +0.000 A 
ATOM     22  C   UNL     1     -35.042  49.322 -19.315  0.00  0.00    +0.000 A 
ATOM     23  C   UNL     1     -34.282  46.814 -18.316  0.00  0.00    +0.000 A 
ATOM     24  C   UNL     1     -34.448  48.371 -20.148  0.00  0.00    +0.000 A 
ATOM     25  C   UNL     1     -34.069  47.123 -19.656  0.00  0.00    +0.000 A 
BRANCH  22  26
ATOM     26  O   UNL     1     -35.383  50.524 -19.885  0.00  0.00    +0.000 OA
ATOM     27  C   UNL     1     -36.756  50.821 -19.895  0.00  0.00    +0.000 C 
ENDBRANCH  22  26
BRANCH  24  28
ATOM     28  O   UNL     1     -34.234  48.667 -21.466  0.00  0.00    +0.000 OA
ATOM     29  H   UNL     1     -33.361  49.092 -21.554  0.00  0.00    +0.000 HD
ENDBRANCH  24  28
ENDBRANCH  18  20
ENDBRANCH   5  19
TORSDOF 8
ENDMDL
MODEL 3
REMARK VINA RESULT:      -6.0      1.298      2.266
REMARK  Name = 969516_Curcumin.pdbqt.pdb
REMARK  8 active torsions:
REMARK  status: ('A' for Active; 'I' for Inactive)
REMARK    1  A    between atoms: C_3  and  C_5
REMARK    2  A    between atoms: C_4  and  C_6
REMARK    3  A    between atoms: C_8  and  O_12
REMARK    4  A    between atoms: C_10  and  O_14
REMARK    5  A    between atoms: C_17  and  C_19
REMARK    6  A    between atoms: C_18  and  C_20
REMARK    7  A    between atoms: C_22  and  O_26
REMARK    8  A    between atoms: C_24  and  O_28
REMARK                            x       y       z     vdW  Elec       q    Type
REMARK                         _______ _______ _______ _____ _____    ______ ____
ROOT
ATOM      1  C   UNL     1     -34.425  45.956 -12.689  0.00  0.00    +0.000 C 
ATOM      2  O   UNL     1     -36.333  47.226 -12.705  0.00  0.00    +0.000 OA
ATOM      3  C   UNL     1     -35.366  46.814 -13.329  0.00  0.00    +0.000 C 
ATOM      4  O   UNL     1     -32.702  44.445 -12.722  0.00  0.00    +0.000 OA
ATOM      5  C   UNL     1     -33.488  45.095 -12.048  0.00  0.00    +0.000 C 
ENDROOT
BRANCH   3   7
ATOM      6  C   UNL     1     -35.007  47.508 -15.854  0.00  0.00    +0.000 C 
ATOM      7  C   UNL     1     -35.170  47.192 -14.706  0.00  0.00    +0.000 C 
BRANCH   6   8
ATOM      8  C   UNL     1     -34.814  47.884 -17.216  0.00  0.00    +0.000 A 
ATOM      9  C   UNL     1     -34.505  46.913 -18.168  0.00  0.00    +0.000 A 
ATOM     10  C   UNL     1     -34.313  47.264 -19.507  0.00  0.00    +0.000 A 
ATOM     11  C   UNL     1     -34.934  49.218 -17.593  0.00  0.00    +0.000 A 
ATOM     12  C   UNL     1     -34.436  48.607 -19.875  0.00  0.00    +0.000 A 
ATOM     13  C   UNL     1     -34.745  49.580 -18.924  0.00  0.00    +0.000 A 
BRANCH  10  14
ATOM     14  O   UNL     1     -34.009  46.365 -20.499  0.00  0.00    +0.000 OA
ATOM     15  C   UNL     1     -33.598  45.095 -20.074  0.00  0.00    +0.000 C 
ENDBRANCH  10  14
BRANCH  12  16
ATOM     16  O   UNL     1     -34.267  49.046 -21.159  0.00  0.00    +0.000 OA
ATOM     17  H   UNL     1     -34.682  48.433 -21.789  0.00  0.00    +0.000 HD
ENDBRANCH  12  16
ENDBRANCH   6   8
ENDBRANCH   3   7
BRANCH   5  19
ATOM     18  C   UNL     1     -33.453  44.917  -9.413  0.00  0.00    +0.000 C 
ATOM     19  C   UNL     1     -33.471  44.998 -10.611  0.00  0.00    +0.000 C 
BRANCH  18  20
ATOM     20  C   UNL     1     -33.429  44.816  -7.990  0.00  0.00    +0.000 A 
ATOM     21  C   UNL     1     -34.034  43.729  -7.361  0.00  0.00    +0.000 A 
ATOM     22  C   UNL     1     -34.018  43.615  -5.968  0.00  0.00    +0.000 A 
ATOM     23  C   UNL     1     -32.801  45.802  -7.233  0.00  0.00    +0.000 A 
ATOM     24  C   UNL     1     -33.385  44.611  -5.221  0.00  0.00    +0.000 A 
ATOM     25  C   UNL     1     -32.778  45.700  -5.845  0.00  0.00    +0.000 A 
BRANCH  22  26
ATOM     26  O   UNL     1     -34.590  42.579  -5.269  0.00  0.00    +0.000 OA
ATOM     27  C   UNL     1     -33.884  41.366  -5.301  0.00  0.00    +0.000 C 
ENDBRANCH  22  26
BRANCH  24  28
ATOM     28  O   UNL     1     -33.359  44.518  -3.856  0.00  0.00    +0.000 OA
ATOM     29  H   UNL     1     -32.683  43.862  -3.601  0.00  0.00    +0.000 HD
ENDBRANCH  24  28
ENDBRANCH  18  20
ENDBRANCH   5  19
TORSDOF 8
ENDMDL
MODEL 4
REMARK VINA RESULT:      -5.8      7.141     11.426
REMARK  Name = 969516_Curcumin.pdbqt.pdb
REMARK  8 active torsions:
REMARK  status: ('A' for Active; 'I' for Inactive)
REMARK    1  A    between atoms: C_3  and  C_5
REMARK    2  A    between atoms: C_4  and  C_6
REMARK    3  A    between atoms: C_8  and  O_12
REMARK    4  A    between atoms: C_10  and  O_14
REMARK    5  A    between atoms: C_17  and  C_19
REMARK    6  A    between atoms: C_18  and  C_20
REMARK    7  A    between atoms: C_22  and  O_26
REMARK    8  A    between atoms: C_24  and  O_28
REMARK                            x       y       z     vdW  Elec       q    Type
REMARK                         _______ _______ _______ _____ _____    ______ ____
ROOT
ATOM      1  C   UNL     1     -38.936  49.326  -7.208  0.00  0.00    +0.000 C 
ATOM      2  O   UNL     1     -39.072  49.259  -9.495  0.00  0.00    +0.000 OA
ATOM      3  C   UNL     1     -38.503  48.868  -8.487  0.00  0.00    +0.000 C 
ATOM      4  O   UNL     1     -39.027  49.185  -4.923  0.00  0.00    +0.000 OA
ATOM      5  C   UNL     1     -39.374  49.782  -5.932  0.00  0.00    +0.000 C 
ENDROOT
BRANCH   3   7
ATOM      6  C   UNL     1     -36.470  47.188  -8.661  0.00  0.00    +0.000 C 
ATOM      7  C   UNL     1     -37.394  47.952  -8.581  0.00  0.00    +0.000 C 
BRANCH   6   8
ATOM      8  C   UNL     1     -35.372  46.283  -8.755  0.00  0.00    +0.000 A 
ATOM      9  C   UNL     1     -34.406  46.255  -7.750  0.00  0.00    +0.000 A 
ATOM     10  C   UNL     1     -33.323  45.374  -7.827  0.00  0.00    +0.000 A 
ATOM     11  C   UNL     1     -35.265  45.430  -9.850  0.00  0.00    +0.000 A 
ATOM     12  C   UNL     1     -33.227  44.521  -8.931  0.00  0.00    +0.000 A 
ATOM     13  C   UNL     1     -34.192  44.548  -9.937  0.00  0.00    +0.000 A 
BRANCH  10  14
ATOM     14  O   UNL     1     -32.336  45.289  -6.877  0.00  0.00    +0.000 OA
ATOM     15  C   UNL     1     -32.708  44.724  -5.651  0.00  0.00    +0.000 C 
ENDBRANCH  10  14
BRANCH  12  16
ATOM     16  O   UNL     1     -32.205  43.627  -9.093  0.00  0.00    +0.000 OA
ATOM     17  H   UNL     1     -31.628  43.895  -9.828  0.00  0.00    +0.000 HD
ENDBRANCH  12  16
ENDBRANCH   6   8
ENDBRANCH   3   7
BRANCH   5  19
ATOM     18  C   UNL     1     -40.927  51.912  -5.756  0.00  0.00    +0.000 C 
ATOM     19  C   UNL     1     -40.221  50.943  -5.838  0.00  0.00    +0.000 C 
BRANCH  18  20
ATOM     20  C   UNL     1     -41.766  53.061  -5.654  0.00  0.00    +0.000 A 
ATOM     21  C   UNL     1     -41.324  54.289  -6.144  0.00  0.00    +0.000 A 
ATOM     22  C   UNL     1     -42.136  55.424  -6.052  0.00  0.00    +0.000 A 
ATOM     23  C   UNL     1     -43.025  52.954  -5.067  0.00  0.00    +0.000 A 
ATOM     24  C   UNL     1     -43.395  55.301  -5.461  0.00  0.00    +0.000 A 
ATOM     25  C   UNL     1     -43.842  54.076  -4.970  0.00  0.00    +0.000 A 
BRANCH  22  26
ATOM     26  O   UNL     1     -41.778  56.670  -6.508  0.00  0.00    +0.000 OA
ATOM     27  C   UNL     1     -40.700  57.272  -5.840  0.00  0.00    +0.000 C 
ENDBRANCH  22  26
BRANCH  24  28
ATOM     28  O   UNL     1     -44.204  56.401  -5.362  0.00  0.00    +0.000 OA
ATOM     29  H   UNL     1     -44.012  56.855  -4.520  0.00  0.00    +0.000 HD
ENDBRANCH  24  28
ENDBRANCH  18  20
ENDBRANCH   5  19
TORSDOF 8
ENDMDL
MODEL 5
REMARK VINA RESULT:      -5.8     21.774     22.441
REMARK  Name = 969516_Curcumin.pdbqt.pdb
REMARK  8 active torsions:
REMARK  status: ('A' for Active; 'I' for Inactive)
REMARK    1  A    between atoms: C_3  and  C_5
REMARK    2  A    between atoms: C_4  and  C_6
REMARK    3  A    between atoms: C_8  and  O_12
REMARK    4  A    between atoms: C_10  and  O_14
REMARK    5  A    between atoms: C_17  and  C_19
REMARK    6  A    between atoms: C_18  and  C_20
REMARK    7  A    between atoms: C_22  and  O_26
REMARK    8  A    between atoms: C_24  and  O_28
REMARK                            x       y       z     vdW  Elec       q    Type
REMARK                         _______ _______ _______ _____ _____    ______ ____
ROOT
ATOM      1  C   UNL     1     -15.136  54.464 -21.889  0.00  0.00    +0.000 C 
ATOM      2  O   UNL     1     -14.440  52.475 -22.793  0.00  0.00    +0.000 OA
ATOM      3  C   UNL     1     -15.080  53.505 -22.943  0.00  0.00    +0.000 C 
ATOM      4  O   UNL     1     -15.557  56.563 -21.071  0.00  0.00    +0.000 OA
ATOM      5  C   UNL     1     -15.186  55.422 -20.836  0.00  0.00    +0.000 C 
ENDROOT
BRANCH   3   7
ATOM      6  C   UNL     1     -16.368  53.966 -25.204  0.00  0.00    +0.000 C 
ATOM      7  C   UNL     1     -15.782  53.756 -24.177  0.00  0.00    +0.000 C 
BRANCH   6   8
ATOM      8  C   UNL     1     -17.063  54.217 -26.424  0.00  0.00    +0.000 A 
ATOM      9  C   UNL     1     -17.422  55.521 -26.764  0.00  0.00    +0.000 A 
ATOM     10  C   UNL     1     -18.104  55.785 -27.955  0.00  0.00    +0.000 A 
ATOM     11  C   UNL     1     -17.384  53.161 -27.273  0.00  0.00    +0.000 A 
ATOM     12  C   UNL     1     -18.420  54.716 -28.800  0.00  0.00    +0.000 A 
ATOM     13  C   UNL     1     -18.062  53.412 -28.462  0.00  0.00    +0.000 A 
BRANCH  10  14
ATOM     14  O   UNL     1     -18.488  57.040 -28.356  0.00  0.00    +0.000 OA
ATOM     15  C   UNL     1     -17.490  58.022 -28.345  0.00  0.00    +0.000 C 
ENDBRANCH  10  14
BRANCH  12  16
ATOM     16  O   UNL     1     -19.084  54.876 -29.985  0.00  0.00    +0.000 OA
ATOM     17  H   UNL     1     -19.790  54.213 -30.075  0.00  0.00    +0.000 HD
ENDBRANCH  12  16
ENDBRANCH   6   8
ENDBRANCH   3   7
BRANCH   5  19
ATOM     18  C   UNL     1     -14.479  54.724 -18.388  0.00  0.00    +0.000 C 
ATOM     19  C   UNL     1     -14.802  55.040 -19.502  0.00  0.00    +0.000 C 
BRANCH  18  20
ATOM     20  C   UNL     1     -14.091  54.351 -17.068  0.00  0.00    +0.000 A 
ATOM     21  C   UNL     1     -14.710  54.944 -15.968  0.00  0.00    +0.000 A 
ATOM     22  C   UNL     1     -14.341  54.588 -14.668  0.00  0.00    +0.000 A 
ATOM     23  C   UNL     1     -13.095  53.394 -16.879  0.00  0.00    +0.000 A 
ATOM     24  C   UNL     1     -13.342  53.627 -14.493  0.00  0.00    +0.000 A 
ATOM     25  C   UNL     1     -12.719  53.031 -15.589  0.00  0.00    +0.000 A 
BRANCH  22  26
ATOM     26  O   UNL     1     -14.898  55.122 -13.531  0.00  0.00    +0.000 OA
ATOM     27  C   UNL     1     -14.297  56.300 -13.059  0.00  0.00    +0.000 C 
ENDBRANCH  22  26
BRANCH  24  28
ATOM     28  O   UNL     1     -12.967  53.265 -13.228  0.00  0.00    +0.000 OA
ATOM     29  H   UNL     1     -12.243  53.851 -12.937  0.00  0.00    +0.000 HD
ENDBRANCH  24  28
ENDBRANCH  18  20
ENDBRANCH   5  19
TORSDOF 8
ENDMDL
MODEL 6
REMARK VINA RESULT:      -5.8      2.215      3.710
REMARK  Name = 969516_Curcumin.pdbqt.pdb
REMARK  8 active torsions:
REMARK  status: ('A' for Active; 'I' for Inactive)
REMARK    1  A    between atoms: C_3  and  C_5
REMARK    2  A    between atoms: C_4  and  C_6
REMARK    3  A    between atoms: C_8  and  O_12
REMARK    4  A    between atoms: C_10  and  O_14
REMARK    5  A    between atoms: C_17  and  C_19
REMARK    6  A    between atoms: C_18  and  C_20
REMARK    7  A    between atoms: C_22  and  O_26
REMARK    8  A    between atoms: C_24  and  O_28
REMARK                            x       y       z     vdW  Elec       q    Type
REMARK                         _______ _______ _______ _____ _____    ______ ____
ROOT
ATOM      1  C   UNL     1     -34.097  47.025 -15.724  0.00  0.00    +0.000 C 
ATOM      2  O   UNL     1     -32.591  45.878 -17.015  0.00  0.00    +0.000 OA
ATOM      3  C   UNL     1     -33.467  46.727 -16.968  0.00  0.00    +0.000 C 
ATOM      4  O   UNL     1     -35.368  48.355 -14.356  0.00  0.00    +0.000 OA
ATOM      5  C   UNL     1     -34.722  47.324 -14.479  0.00  0.00    +0.000 C 
ENDROOT
BRANCH   3   7
ATOM      6  C   UNL     1     -34.208  48.013 -19.155  0.00  0.00    +0.000 C 
ATOM      7  C   UNL     1     -33.871  47.428 -18.161  0.00  0.00    +0.000 C 
BRANCH   6   8
ATOM      8  C   UNL     1     -34.606  48.709 -20.335  0.00  0.00    +0.000 A 
ATOM      9  C   UNL     1     -35.197  49.967 -20.233  0.00  0.00    +0.000 A 
ATOM     10  C   UNL     1     -35.594  50.663 -21.379  0.00  0.00    +0.000 A 
ATOM     11  C   UNL     1     -34.404  48.131 -21.585  0.00  0.00    +0.000 A 
ATOM     12  C   UNL     1     -35.385  50.072 -22.630  0.00  0.00    +0.000 A 
ATOM     13  C   UNL     1     -34.794  48.814 -22.733  0.00  0.00    +0.000 A 
BRANCH  10  14
ATOM     14  O   UNL     1     -36.180  51.904 -21.358  0.00  0.00    +0.000 OA
ATOM     15  C   UNL     1     -37.561  51.928 -21.129  0.00  0.00    +0.000 C 
ENDBRANCH  10  14
BRANCH  12  16
ATOM     16  O   UNL     1     -35.739  50.676 -23.805  0.00  0.00    +0.000 OA
ATOM     17  H   UNL     1     -35.613  50.068 -24.554  0.00  0.00    +0.000 HD
ENDBRANCH  12  16
ENDBRANCH   6   8
ENDBRANCH   3   7
BRANCH   5  19
ATOM     18  C   UNL     1     -34.484  45.649 -12.451  0.00  0.00    +0.000 C 
ATOM     19  C   UNL     1     -34.591  46.409 -13.374  0.00  0.00    +0.000 C 
BRANCH  18  20
ATOM     20  C   UNL     1     -34.356  44.750 -11.351  0.00  0.00    +0.000 A 
ATOM     21  C   UNL     1     -34.110  45.247 -10.072  0.00  0.00    +0.000 A 
ATOM     22  C   UNL     1     -33.982  44.379  -8.985  0.00  0.00    +0.000 A 
ATOM     23  C   UNL     1     -34.478  43.377 -11.556  0.00  0.00    +0.000 A 
ATOM     24  C   UNL     1     -34.107  43.005  -9.205  0.00  0.00    +0.000 A 
ATOM     25  C   UNL     1     -34.353  42.502 -10.481  0.00  0.00    +0.000 A 
BRANCH  22  26
ATOM     26  O   UNL     1     -33.739  44.784  -7.694  0.00  0.00    +0.000 OA
ATOM     27  C   UNL     1     -33.124  46.039  -7.561  0.00  0.00    +0.000 C 
ENDBRANCH  22  26
BRANCH  24  28
ATOM     28  O   UNL     1     -33.985  42.139  -8.153  0.00  0.00    +0.000 OA
ATOM     29  H   UNL     1     -34.027  42.648  -7.322  0.00  0.00    +0.000 HD
ENDBRANCH  24  28
ENDBRANCH  18  20
ENDBRANCH   5  19
TORSDOF 8
ENDMDL
MODEL 7
REMARK VINA RESULT:      -5.7      7.251     11.244
REMARK  Name = 969516_Curcumin.pdbqt.pdb
REMARK  8 active torsions:
REMARK  status: ('A' for Active; 'I' for Inactive)
REMARK    1  A    between atoms: C_3  and  C_5
REMARK    2  A    between atoms: C_4  and  C_6
REMARK    3  A    between atoms: C_8  and  O_12
REMARK    4  A    between atoms: C_10  and  O_14
REMARK    5  A    between atoms: C_17  and  C_19
REMARK    6  A    between atoms: C_18  and  C_20
REMARK    7  A    between atoms: C_22  and  O_26
REMARK    8  A    between atoms: C_24  and  O_28
REMARK                            x       y       z     vdW  Elec       q    Type
REMARK                         _______ _______ _______ _____ _____    ______ ____
ROOT
ATOM      1  C   UNL     1     -39.090  49.484  -7.136  0.00  0.00    +0.000 C 
ATOM      2  O   UNL     1     -39.114  49.345  -4.849  0.00  0.00    +0.000 OA
ATOM      3  C   UNL     1     -39.500  49.934  -5.847  0.00  0.00    +0.000 C 
ATOM      4  O   UNL     1     -39.285  49.406  -9.419  0.00  0.00    +0.000 OA
ATOM      5  C   UNL     1     -38.683  49.030  -8.424  0.00  0.00    +0.000 C 
ENDROOT
BRANCH   3   7
ATOM      6  C   UNL     1     -41.084  52.038  -5.634  0.00  0.00    +0.000 C 
ATOM      7  C   UNL     1     -40.363  51.082  -5.730  0.00  0.00    +0.000 C 
BRANCH   6   8
ATOM      8  C   UNL     1     -41.941  53.173  -5.519  0.00  0.00    +0.000 A 
ATOM      9  C   UNL     1     -41.647  54.339  -6.224  0.00  0.00    +0.000 A 
ATOM     10  C   UNL     1     -42.476  55.461  -6.123  0.00  0.00    +0.000 A 
ATOM     11  C   UNL     1     -43.067  53.114  -4.703  0.00  0.00    +0.000 A 
ATOM     12  C   UNL     1     -43.605  55.390  -5.301  0.00  0.00    +0.000 A 
ATOM     13  C   UNL     1     -43.900  54.224  -4.595  0.00  0.00    +0.000 A 
BRANCH  10  14
ATOM     14  O   UNL     1     -42.253  56.641  -6.786  0.00  0.00    +0.000 OA
ATOM     15  C   UNL     1     -41.130  56.674  -7.622  0.00  0.00    +0.000 C 
ENDBRANCH  10  14
BRANCH  12  16
ATOM     16  O   UNL     1     -44.474  56.434  -5.139  0.00  0.00    +0.000 OA
ATOM     17  H   UNL     1     -44.157  57.221  -5.614  0.00  0.00    +0.000 HD
ENDBRANCH  12  16
ENDBRANCH   6   8
ENDBRANCH   3   7
BRANCH   5  19
ATOM     18  C   UNL     1     -36.627  47.385  -8.648  0.00  0.00    +0.000 C 
ATOM     19  C   UNL     1     -37.563  48.131  -8.545  0.00  0.00    +0.000 C 
BRANCH  18  20
ATOM     20  C   UNL     1     -35.515  46.501  -8.775  0.00  0.00    +0.000 A 
ATOM     21  C   UNL     1     -34.518  46.494  -7.800  0.00  0.00    +0.000 A 
ATOM     22  C   UNL     1     -33.424  45.632  -7.911  0.00  0.00    +0.000 A 
ATOM     23  C   UNL     1     -35.429  45.645  -9.871  0.00  0.00    +0.000 A 
ATOM     24  C   UNL     1     -33.349  44.779  -9.015  0.00  0.00    +0.000 A 
ATOM     25  C   UNL     1     -34.343  44.782  -9.992  0.00  0.00    +0.000 A 
BRANCH  22  26
ATOM     26  O   UNL     1     -32.399  45.562  -6.998  0.00  0.00    +0.000 OA
ATOM     27  C   UNL     1     -32.732  44.996  -5.757  0.00  0.00    +0.000 C 
ENDBRANCH  22  26
BRANCH  24  28
ATOM     28  O   UNL     1     -32.285  43.928  -9.140  0.00  0.00    +0.000 OA
ATOM     29  H   UNL     1     -31.489  44.369  -8.788  0.00  0.00    +0.000 HD
ENDBRANCH  24  28
ENDBRANCH  18  20
ENDBRANCH   5  19
TORSDOF 8
ENDMDL
MODEL 8
REMARK VINA RESULT:      -5.7     19.199     20.780
REMARK  Name = 969516_Curcumin.pdbqt.pdb
REMARK  8 active torsions:
REMARK  status: ('A' for Active; 'I' for Inactive)
REMARK    1  A    between atoms: C_3  and  C_5
REMARK    2  A    between atoms: C_4  and  C_6
REMARK    3  A    between atoms: C_8  and  O_12
REMARK    4  A    between atoms: C_10  and  O_14
REMARK    5  A    between atoms: C_17  and  C_19
REMARK    6  A    between atoms: C_18  and  C_20
REMARK    7  A    between atoms: C_22  and  O_26
REMARK    8  A    between atoms: C_24  and  O_28
REMARK                            x       y       z     vdW  Elec       q    Type
REMARK                         _______ _______ _______ _____ _____    ______ ____
ROOT
ATOM      1  C   UNL     1     -28.689  62.131 -23.526  0.00  0.00    +0.000 C 
ATOM      2  O   UNL     1     -30.705  61.149 -23.998  0.00  0.00    +0.000 OA
ATOM      3  C   UNL     1     -29.590  61.448 -24.395  0.00  0.00    +0.000 C 
ATOM      4  O   UNL     1     -26.597  62.845 -22.921  0.00  0.00    +0.000 OA
ATOM      5  C   UNL     1     -27.789  62.808 -22.653  0.00  0.00    +0.000 C 
ENDROOT
BRANCH   3   7
ATOM      6  C   UNL     1     -28.837  60.848 -26.856  0.00  0.00    +0.000 C 
ATOM      7  C   UNL     1     -29.179  61.120 -25.737  0.00  0.00    +0.000 C 
BRANCH   6   8
ATOM      8  C   UNL     1     -28.432  60.525 -28.185  0.00  0.00    +0.000 A 
ATOM      9  C   UNL     1     -29.370  60.053 -29.102  0.00  0.00    +0.000 A 
ATOM     10  C   UNL     1     -28.990  59.732 -30.409  0.00  0.00    +0.000 A 
ATOM     11  C   UNL     1     -27.101  60.681 -28.564  0.00  0.00    +0.000 A 
ATOM     12  C   UNL     1     -27.651  59.894 -30.779  0.00  0.00    +0.000 A 
ATOM     13  C   UNL     1     -26.711  60.366 -29.862  0.00  0.00    +0.000 A 
BRANCH  10  14
ATOM     14  O   UNL     1     -29.856  59.265 -31.366  0.00  0.00    +0.000 OA
ATOM     15  C   UNL     1     -30.163  57.900 -31.303  0.00  0.00    +0.000 C 
ENDBRANCH  10  14
BRANCH  12  16
ATOM     16  O   UNL     1     -27.185  59.607 -32.032  0.00  0.00    +0.000 OA
ATOM     17  H   UNL     1     -26.405  59.029 -31.984  0.00  0.00    +0.000 HD
ENDBRANCH  12  16
ENDBRANCH   6   8
ENDBRANCH   3   7
BRANCH   5  19
ATOM     18  C   UNL     1     -28.706  63.984 -20.472  0.00  0.00    +0.000 C 
ATOM     19  C   UNL     1     -28.290  63.448 -21.464  0.00  0.00    +0.000 C 
BRANCH  18  20
ATOM     20  C   UNL     1     -29.195  64.622 -19.294  0.00  0.00    +0.000 A 
ATOM     21  C   UNL     1     -29.103  66.007 -19.165  0.00  0.00    +0.000 A 
ATOM     22  C   UNL     1     -29.579  66.646 -18.017  0.00  0.00    +0.000 A 
ATOM     23  C   UNL     1     -29.763  63.860 -18.275  0.00  0.00    +0.000 A 
ATOM     24  C   UNL     1     -30.146  65.870 -17.003  0.00  0.00    +0.000 A 
ATOM     25  C   UNL     1     -30.239  64.485 -17.126  0.00  0.00    +0.000 A 
BRANCH  22  26
ATOM     26  O   UNL     1     -29.527  68.003 -17.809  0.00  0.00    +0.000 OA
ATOM     27  C   UNL     1     -28.249  68.579 -17.883  0.00  0.00    +0.000 C 
ENDBRANCH  22  26
BRANCH  24  28
ATOM     28  O   UNL     1     -30.616  66.478 -15.871  0.00  0.00    +0.000 OA
ATOM     29  H   UNL     1     -30.021  66.260 -15.129  0.00  0.00    +0.000 HD
ENDBRANCH  24  28
ENDBRANCH  18  20
ENDBRANCH   5  19
TORSDOF 8
ENDMDL
MODEL 9
REMARK VINA RESULT:      -5.6     19.652     20.806
REMARK  Name = 969516_Curcumin.pdbqt.pdb
REMARK  8 active torsions:
REMARK  status: ('A' for Active; 'I' for Inactive)
REMARK    1  A    between atoms: C_3  and  C_5
REMARK    2  A    between atoms: C_4  and  C_6
REMARK    3  A    between atoms: C_8  and  O_12
REMARK    4  A    between atoms: C_10  and  O_14
REMARK    5  A    between atoms: C_17  and  C_19
REMARK    6  A    between atoms: C_18  and  C_20
REMARK    7  A    between atoms: C_22  and  O_26
REMARK    8  A    between atoms: C_24  and  O_28
REMARK                            x       y       z     vdW  Elec       q    Type
REMARK                         _______ _______ _______ _____ _____    ______ ____
ROOT
ATOM      1  C   UNL     1     -28.819  61.976 -23.881  0.00  0.00    +0.000 C 
ATOM      2  O   UNL     1     -30.822  60.900 -24.172  0.00  0.00    +0.000 OA
ATOM      3  C   UNL     1     -29.758  61.242 -24.665  0.00  0.00    +0.000 C 
ATOM      4  O   UNL     1     -26.718  62.789 -23.462  0.00  0.00    +0.000 OA
ATOM      5  C   UNL     1     -27.881  62.705 -23.095  0.00  0.00    +0.000 C 
ENDROOT
BRANCH   3   7
ATOM      6  C   UNL     1     -29.185  60.636 -27.172  0.00  0.00    +0.000 C 
ATOM      7  C   UNL     1     -29.446  60.912 -26.033  0.00  0.00    +0.000 C 
BRANCH   6   8
ATOM      8  C   UNL     1     -28.877  60.308 -28.526  0.00  0.00    +0.000 A 
ATOM      9  C   UNL     1     -27.621  60.613 -29.047  0.00  0.00    +0.000 A 
ATOM     10  C   UNL     1     -27.302  60.298 -30.371  0.00  0.00    +0.000 A 
ATOM     11  C   UNL     1     -29.831  59.683 -29.325  0.00  0.00    +0.000 A 
ATOM     12  C   UNL     1     -28.268  59.671 -31.164  0.00  0.00    +0.000 A 
ATOM     13  C   UNL     1     -29.525  59.364 -30.645  0.00  0.00    +0.000 A 
BRANCH  10  14
ATOM     14  O   UNL     1     -26.088  60.567 -30.952  0.00  0.00    +0.000 OA
ATOM     15  C   UNL     1     -25.873  61.894 -31.344  0.00  0.00    +0.000 C 
ENDBRANCH  10  14
BRANCH  12  16
ATOM     16  O   UNL     1     -28.049  59.324 -32.469  0.00  0.00    +0.000 OA
ATOM     17  H   UNL     1     -27.242  58.788 -32.550  0.00  0.00    +0.000 HD
ENDBRANCH  12  16
ENDBRANCH   6   8
ENDBRANCH   3   7
BRANCH   5  19
ATOM     18  C   UNL     1     -28.664  63.866 -20.855  0.00  0.00    +0.000 C 
ATOM     19  C   UNL     1     -28.310  63.339 -21.875  0.00  0.00    +0.000 C 
BRANCH  18  20
ATOM     20  C   UNL     1     -29.084  64.488 -19.642  0.00  0.00    +0.000 A 
ATOM     21  C   UNL     1     -28.134  64.914 -18.715  0.00  0.00    +0.000 A 
ATOM     22  C   UNL     1     -28.530  65.525 -17.522  0.00  0.00    +0.000 A 
ATOM     23  C   UNL     1     -30.442  64.670 -19.387  0.00  0.00    +0.000 A 
ATOM     24  C   UNL     1     -29.894  65.701 -17.279  0.00  0.00    +0.000 A 
ATOM     25  C   UNL     1     -30.848  65.277 -18.203  0.00  0.00    +0.000 A 
BRANCH  22  26
ATOM     26  O   UNL     1     -27.662  65.973 -16.556  0.00  0.00    +0.000 OA
ATOM     27  C   UNL     1     -26.302  65.721 -16.801  0.00  0.00    +0.000 C 
ENDBRANCH  22  26
BRANCH  24  28
ATOM     28  O   UNL     1     -30.302  66.297 -16.117  0.00  0.00    +0.000 OA
ATOM     29  H   UNL     1     -30.944  67.000 -16.335  0.00  0.00    +0.000 HD
ENDBRANCH  24  28
ENDBRANCH  18  20
ENDBRANCH   5  19
TORSDOF 8
ENDMDL
