MODEL 1
REMARK VINA RESULT:      -3.2      0.000      0.000
REMARK  Name = 971_OxalicAcid.pdbqt.pdb
REMARK  3 active torsions:
REMARK  status: ('A' for Active; 'I' for Inactive)
REMARK    1  A    between atoms: C_2  and  O_3
REMARK    2  A    between atoms: C_2  and  C_6
REMARK    3  A    between atoms: C_6  and  O_7
REMARK                            x       y       z     vdW  Elec       q    Type
REMARK                         _______ _______ _______ _____ _____    ______ ____
ROOT
ATOM      1  O   UNL     1     -26.068  39.050   4.212  0.00  0.00    +0.000 OA
ATOM      2  C   UNL     1     -25.325  39.987   3.999  0.00  0.00    +0.000 C 
ENDROOT
BRANCH   2   3
ATOM      3  O   UNL     1     -24.099  39.817   3.484  0.00  0.00    +0.000 OA
ATOM      4  H   UNL     1     -24.175  40.130   2.560  0.00  0.00    +0.000 HD
ENDBRANCH   2   3
BRANCH   2   6
ATOM      5  O   UNL     1     -26.600  41.888   4.931  0.00  0.00    +0.000 OA
ATOM      6  C   UNL     1     -25.658  41.486   4.277  0.00  0.00    +0.000 C 
BRANCH   6   7
ATOM      7  O   UNL     1     -24.779  42.325   3.710  0.00  0.00    +0.000 OA
ATOM      8  H   UNL     1     -25.016  43.205   4.065  0.00  0.00    +0.000 HD
ENDBRANCH   6   7
ENDBRANCH   2   6
TORSDOF 3
ENDMDL
MODEL 2
REMARK VINA RESULT:      -3.2     22.569     23.350
REMARK  Name = 971_OxalicAcid.pdbqt.pdb
REMARK  3 active torsions:
REMARK  status: ('A' for Active; 'I' for Inactive)
REMARK    1  A    between atoms: C_2  and  O_3
REMARK    2  A    between atoms: C_2  and  C_6
REMARK    3  A    between atoms: C_6  and  O_7
REMARK                            x       y       z     vdW  Elec       q    Type
REMARK                         _______ _______ _______ _____ _____    ______ ____
ROOT
ATOM      1  O   UNL     1     -38.110  59.440  -4.622  0.00  0.00    +0.000 OA
ATOM      2  C   UNL     1     -37.347  58.569  -4.990  0.00  0.00    +0.000 C 
ENDROOT
BRANCH   2   3
ATOM      3  O   UNL     1     -37.312  57.363  -4.406  0.00  0.00    +0.000 OA
ATOM      4  H   UNL     1     -37.236  57.557  -3.450  0.00  0.00    +0.000 HD
ENDBRANCH   2   3
BRANCH   2   6
ATOM      5  O   UNL     1     -36.149  59.696  -6.835  0.00  0.00    +0.000 OA
ATOM      6  C   UNL     1     -36.320  58.702  -6.158  0.00  0.00    +0.000 C 
BRANCH   6   7
ATOM      7  O   UNL     1     -35.616  57.579  -6.356  0.00  0.00    +0.000 OA
ATOM      8  H   UNL     1     -35.350  57.295  -5.459  0.00  0.00    +0.000 HD
ENDBRANCH   6   7
ENDBRANCH   2   6
TORSDOF 3
ENDMDL
MODEL 3
REMARK VINA RESULT:      -3.1     13.030     13.390
REMARK  Name = 971_OxalicAcid.pdbqt.pdb
REMARK  3 active torsions:
REMARK  status: ('A' for Active; 'I' for Inactive)
REMARK    1  A    between atoms: C_2  and  O_3
REMARK    2  A    between atoms: C_2  and  C_6
REMARK    3  A    between atoms: C_6  and  O_7
REMARK                            x       y       z     vdW  Elec       q    Type
REMARK                         _______ _______ _______ _____ _____    ______ ____
ROOT
ATOM      1  O   UNL     1     -33.776  45.017  -4.831  0.00  0.00    +0.000 OA
ATOM      2  C   UNL     1     -32.853  44.648  -5.530  0.00  0.00    +0.000 C 
ENDROOT
BRANCH   2   3
ATOM      3  O   UNL     1     -32.029  43.660  -5.152  0.00  0.00    +0.000 OA
ATOM      4  H   UNL     1     -32.076  43.009  -5.881  0.00  0.00    +0.000 HD
ENDBRANCH   2   3
BRANCH   2   6
ATOM      5  O   UNL     1     -32.773  46.349  -7.320  0.00  0.00    +0.000 OA
ATOM      6  C   UNL     1     -32.485  45.236  -6.927  0.00  0.00    +0.000 C 
BRANCH   6   7
ATOM      7  O   UNL     1     -31.795  44.373  -7.686  0.00  0.00    +0.000 OA
ATOM      8  H   UNL     1     -31.236  44.939  -8.255  0.00  0.00    +0.000 HD
ENDBRANCH   6   7
ENDBRANCH   2   6
TORSDOF 3
ENDMDL
MODEL 4
REMARK VINA RESULT:      -3.1     11.108     11.720
REMARK  Name = 971_OxalicAcid.pdbqt.pdb
REMARK  3 active torsions:
REMARK  status: ('A' for Active; 'I' for Inactive)
REMARK    1  A    between atoms: C_2  and  O_3
REMARK    2  A    between atoms: C_2  and  C_6
REMARK    3  A    between atoms: C_6  and  O_7
REMARK                            x       y       z     vdW  Elec       q    Type
REMARK                         _______ _______ _______ _____ _____    ______ ____
ROOT
ATOM      1  O   UNL     1     -30.287  51.005   6.358  0.00  0.00    +0.000 OA
ATOM      2  C   UNL     1     -30.069  51.399   5.230  0.00  0.00    +0.000 C 
ENDROOT
BRANCH   2   3
ATOM      3  O   UNL     1     -29.283  52.458   4.988  0.00  0.00    +0.000 OA
ATOM      4  H   UNL     1     -28.663  52.480   5.744  0.00  0.00    +0.000 HD
ENDBRANCH   2   3
BRANCH   2   6
ATOM      5  O   UNL     1     -30.374  51.120   2.793  0.00  0.00    +0.000 OA
ATOM      6  C   UNL     1     -30.642  50.766   3.924  0.00  0.00    +0.000 C 
BRANCH   6   7
ATOM      7  O   UNL     1     -31.490  49.756   4.169  0.00  0.00    +0.000 OA
ATOM      8  H   UNL     1     -31.632  49.339   3.296  0.00  0.00    +0.000 HD
ENDBRANCH   6   7
ENDBRANCH   2   6
TORSDOF 3
ENDMDL
MODEL 5
REMARK VINA RESULT:      -3.0     11.103     11.502
REMARK  Name = 971_OxalicAcid.pdbqt.pdb
REMARK  3 active torsions:
REMARK  status: ('A' for Active; 'I' for Inactive)
REMARK    1  A    between atoms: C_2  and  O_3
REMARK    2  A    between atoms: C_2  and  C_6
REMARK    3  A    between atoms: C_6  and  O_7
REMARK                            x       y       z     vdW  Elec       q    Type
REMARK                         _______ _______ _______ _____ _____    ______ ____
ROOT
ATOM      1  O   UNL     1     -34.017  44.904  -4.895  0.00  0.00    +0.000 OA
ATOM      2  C   UNL     1     -33.055  44.261  -4.524  0.00  0.00    +0.000 C 
ENDROOT
BRANCH   2   3
ATOM      3  O   UNL     1     -32.085  43.885  -5.369  0.00  0.00    +0.000 OA
ATOM      4  H   UNL     1     -32.530  43.287  -6.003  0.00  0.00    +0.000 HD
ENDBRANCH   2   3
BRANCH   2   6
ATOM      5  O   UNL     1     -33.485  42.990  -2.448  0.00  0.00    +0.000 OA
ATOM      6  C   UNL     1     -32.797  43.783  -3.061  0.00  0.00    +0.000 C 
BRANCH   6   7
ATOM      7  O   UNL     1     -31.709  44.346  -2.518  0.00  0.00    +0.000 OA
ATOM      8  H   UNL     1     -32.048  45.135  -2.051  0.00  0.00    +0.000 HD
ENDBRANCH   6   7
ENDBRANCH   2   6
TORSDOF 3
ENDMDL
MODEL 6
REMARK VINA RESULT:      -3.0     13.541     13.841
REMARK  Name = 971_OxalicAcid.pdbqt.pdb
REMARK  3 active torsions:
REMARK  status: ('A' for Active; 'I' for Inactive)
REMARK    1  A    between atoms: C_2  and  O_3
REMARK    2  A    between atoms: C_2  and  C_6
REMARK    3  A    between atoms: C_6  and  O_7
REMARK                            x       y       z     vdW  Elec       q    Type
REMARK                         _______ _______ _______ _____ _____    ______ ____
ROOT
ATOM      1  O   UNL     1     -33.766  44.994  -8.300  0.00  0.00    +0.000 OA
ATOM      2  C   UNL     1     -32.811  44.699  -7.610  0.00  0.00    +0.000 C 
ENDROOT
BRANCH   2   3
ATOM      3  O   UNL     1     -31.684  44.199  -8.137  0.00  0.00    +0.000 OA
ATOM      4  H   UNL     1     -31.838  44.212  -9.103  0.00  0.00    +0.000 HD
ENDBRANCH   2   3
BRANCH   2   6
ATOM      5  O   UNL     1     -33.252  45.736  -5.411  0.00  0.00    +0.000 OA
ATOM      6  C   UNL     1     -32.736  44.846  -6.059  0.00  0.00    +0.000 C 
BRANCH   6   7
ATOM      7  O   UNL     1     -32.026  43.868  -5.480  0.00  0.00    +0.000 OA
ATOM      8  H   UNL     1     -32.265  43.063  -5.981  0.00  0.00    +0.000 HD
ENDBRANCH   6   7
ENDBRANCH   2   6
TORSDOF 3
ENDMDL
MODEL 7
REMARK VINA RESULT:      -3.0     22.753     23.639
REMARK  Name = 971_OxalicAcid.pdbqt.pdb
REMARK  3 active torsions:
REMARK  status: ('A' for Active; 'I' for Inactive)
REMARK    1  A    between atoms: C_2  and  O_3
REMARK    2  A    between atoms: C_2  and  C_6
REMARK    3  A    between atoms: C_6  and  O_7
REMARK                            x       y       z     vdW  Elec       q    Type
REMARK                         _______ _______ _______ _____ _____    ______ ____
ROOT
ATOM      1  O   UNL     1     -37.612  58.426  -6.656  0.00  0.00    +0.000 OA
ATOM      2  C   UNL     1     -36.451  58.548  -6.321  0.00  0.00    +0.000 C 
ENDROOT
BRANCH   2   3
ATOM      3  O   UNL     1     -35.616  57.500  -6.265  0.00  0.00    +0.000 OA
ATOM      4  H   UNL     1     -36.167  56.734  -6.521  0.00  0.00    +0.000 HD
ENDBRANCH   2   3
BRANCH   2   6
ATOM      5  O   UNL     1     -36.070  60.577  -4.963  0.00  0.00    +0.000 OA
ATOM      6  C   UNL     1     -35.763  59.888  -5.915  0.00  0.00    +0.000 C 
BRANCH   6   7
ATOM      7  O   UNL     1     -34.763  60.227  -6.742  0.00  0.00    +0.000 OA
ATOM      8  H   UNL     1     -34.692  59.473  -7.362  0.00  0.00    +0.000 HD
ENDBRANCH   6   7
ENDBRANCH   2   6
TORSDOF 3
ENDMDL
MODEL 8
REMARK VINA RESULT:      -2.9     37.186     37.742
REMARK  Name = 971_OxalicAcid.pdbqt.pdb
REMARK  3 active torsions:
REMARK  status: ('A' for Active; 'I' for Inactive)
REMARK    1  A    between atoms: C_2  and  O_3
REMARK    2  A    between atoms: C_2  and  C_6
REMARK    3  A    between atoms: C_6  and  O_7
REMARK                            x       y       z     vdW  Elec       q    Type
REMARK                         _______ _______ _______ _____ _____    ______ ____
ROOT
ATOM      1  O   UNL     1     -25.786  50.619 -33.744  0.00  0.00    +0.000 OA
ATOM      2  C   UNL     1     -26.036  50.913 -32.591  0.00  0.00    +0.000 C 
ENDROOT
BRANCH   2   3
ATOM      3  O   UNL     1     -27.150  50.491 -31.978  0.00  0.00    +0.000 OA
ATOM      4  H   UNL     1     -26.882  50.357 -31.047  0.00  0.00    +0.000 HD
ENDBRANCH   2   3
BRANCH   2   6
ATOM      5  O   UNL     1     -24.464  52.737 -32.035  0.00  0.00    +0.000 OA
ATOM      6  C   UNL     1     -25.138  51.794 -31.669  0.00  0.00    +0.000 C 
BRANCH   6   7
ATOM      7  O   UNL     1     -25.176  51.405 -30.387  0.00  0.00    +0.000 OA
ATOM      8  H   UNL     1     -26.028  50.933 -30.299  0.00  0.00    +0.000 HD
ENDBRANCH   6   7
ENDBRANCH   2   6
TORSDOF 3
ENDMDL
MODEL 9
REMARK VINA RESULT:      -2.9     14.020     14.493
REMARK  Name = 971_OxalicAcid.pdbqt.pdb
REMARK  3 active torsions:
REMARK  status: ('A' for Active; 'I' for Inactive)
REMARK    1  A    between atoms: C_2  and  O_3
REMARK    2  A    between atoms: C_2  and  C_6
REMARK    3  A    between atoms: C_6  and  O_7
REMARK                            x       y       z     vdW  Elec       q    Type
REMARK                         _______ _______ _______ _____ _____    ______ ____
ROOT
ATOM      1  O   UNL     1     -27.384  39.198  -9.790  0.00  0.00    +0.000 OA
ATOM      2  C   UNL     1     -26.581  39.882 -10.394  0.00  0.00    +0.000 C 
ENDROOT
BRANCH   2   3
ATOM      3  O   UNL     1     -26.922  40.571 -11.492  0.00  0.00    +0.000 OA
ATOM      4  H   UNL     1     -27.265  41.421 -11.151  0.00  0.00    +0.000 HD
ENDBRANCH   2   3
BRANCH   2   6
ATOM      5  O   UNL     1     -24.136  39.601 -10.616  0.00  0.00    +0.000 OA
ATOM      6  C   UNL     1     -25.081  40.066 -10.009  0.00  0.00    +0.000 C 
BRANCH   6   7
ATOM      7  O   UNL     1     -24.918  40.812  -8.907  0.00  0.00    +0.000 OA
ATOM      8  H   UNL     1     -24.928  40.168  -8.172  0.00  0.00    +0.000 HD
ENDBRANCH   6   7
ENDBRANCH   2   6
TORSDOF 3
ENDMDL
