MODEL 1
REMARK VINA RESULT:      -6.2      0.000      0.000
REMARK  Name = 9852185_GambogicAcid.pdbqt.pdb
REMARK  10 active torsions:
REMARK  status: ('A' for Active; 'I' for Inactive)
REMARK    1  A    between atoms: C_8  and  C_30
REMARK    2  A    between atoms: C_20  and  C_38
REMARK    3  A    between atoms: C_21  and  O_28
REMARK    4  A    between atoms: C_25  and  C_43
REMARK    5  A    between atoms: C_31  and  C_32
REMARK    6  A    between atoms: C_32  and  C_35
REMARK    7  A    between atoms: C_35  and  O_36
REMARK    8  A    between atoms: C_39  and  C_40
REMARK    9  A    between atoms: C_43  and  C_44
REMARK   10  A    between atoms: C_45  and  C_46
REMARK                            x       y       z     vdW  Elec       q    Type
REMARK                         _______ _______ _______ _____ _____    ______ ____
ROOT
ATOM      1  O   UNL     1     -15.213  45.199   7.176  0.00  0.00    +0.000 OA
ATOM      2  O   UNL     1     -15.842  47.768   6.034  0.00  0.00    +0.000 OA
ATOM      3  O   UNL     1     -13.636  43.447   5.051  0.00  0.00    +0.000 OA
ATOM      4  O   UNL     1     -15.984  48.151   1.937  0.00  0.00    +0.000 OA
ATOM      5  O   UNL     1     -17.635  52.120   6.688  0.00  0.00    +0.000 OA
ATOM      6  C   UNL     1     -15.719  46.569   5.280  0.00  0.00    +0.000 C 
ATOM      7  C   UNL     1     -16.895  45.562   5.546  0.00  0.00    +0.000 C 
ATOM      8  C   UNL     1     -14.649  45.594   5.916  0.00  0.00    +0.000 C 
ATOM      9  C   UNL     1     -16.639  45.142   6.998  0.00  0.00    +0.000 C 
ATOM     10  C   UNL     1     -16.809  44.526   4.516  0.00  0.00    +0.000 C 
ATOM     11  C   UNL     1     -15.549  44.335   3.819  0.00  0.00    +0.000 C 
ATOM     12  C   UNL     1     -15.445  46.793   3.783  0.00  0.00    +0.000 C 
ATOM     13  C   UNL     1     -14.471  44.331   4.940  0.00  0.00    +0.000 C 
ATOM     14  C   UNL     1     -15.313  45.553   3.088  0.00  0.00    +0.000 C 
ATOM     15  C   UNL     1     -17.098  43.702   7.272  0.00  0.00    +0.000 C 
ATOM     16  C   UNL     1     -17.329  46.121   7.961  0.00  0.00    +0.000 C 
ATOM     17  C   UNL     1     -15.936  48.017   3.152  0.00  0.00    +0.000 C 
ATOM     18  C   UNL     1     -16.333  48.898   5.437  0.00  0.00    +0.000 A 
ATOM     19  C   UNL     1     -16.405  49.081   4.049  0.00  0.00    +0.000 A 
ATOM     20  C   UNL     1     -16.740  49.933   6.307  0.00  0.00    +0.000 A 
ATOM     21  C   UNL     1     -16.907  50.279   3.514  0.00  0.00    +0.000 A 
ATOM     22  C   UNL     1     -17.236  51.132   5.784  0.00  0.00    +0.000 A 
ATOM     23  C   UNL     1     -17.319  51.289   4.378  0.00  0.00    +0.000 A 
ATOM     24  C   UNL     1     -17.831  52.547   3.974  0.00  0.00    +0.000 C 
ATOM     25  C   UNL     1     -18.100  53.440   6.200  0.00  0.00    +0.000 C 
ATOM     26  C   UNL     1     -18.139  53.410   4.737  0.00  0.00    +0.000 C 
ATOM     27  C   UNL     1     -17.096  54.492   6.734  0.00  0.00    +0.000 C 
ENDROOT
BRANCH  21  28
ATOM     28  O   UNL     1     -17.010  50.503   2.167  0.00  0.00    +0.000 OA
ATOM     29  H   UNL     1     -17.765  51.107   1.985  0.00  0.00    +0.000 HD
ENDBRANCH  21  28
BRANCH   8  30
ATOM     30  C   UNL     1     -13.356  46.254   6.145  0.00  0.00    +0.000 C 
ATOM     31  C   UNL     1     -12.031  46.986   6.409  0.00  0.00    +0.000 C 
BRANCH  31  32
ATOM     32  C   UNL     1     -10.936  47.656   6.632  0.00  0.00    +0.000 C 
ATOM     33  C   UNL     1      -9.908  46.931   7.480  0.00  0.00    +0.000 C 
BRANCH  32  35
ATOM     34  O   UNL     1      -9.692  49.598   5.919  0.00  0.00    +0.000 OA
ATOM     35  C   UNL     1     -10.757  49.017   6.058  0.00  0.00    +0.000 C 
BRANCH  35  36
ATOM     36  O   UNL     1     -11.906  49.612   5.672  0.00  0.00    +0.000 OA
ATOM     37  H   UNL     1     -11.691  50.566   5.607  0.00  0.00    +0.000 HD
ENDBRANCH  35  36
ENDBRANCH  32  35
ENDBRANCH  31  32
ENDBRANCH   8  30
BRANCH  20  38
ATOM     38  C   UNL     1     -16.647  49.752   7.727  0.00  0.00    +0.000 C 
ATOM     39  C   UNL     1     -16.570  49.536   9.246  0.00  0.00    +0.000 C 
BRANCH  39  40
ATOM     40  C   UNL     1     -16.514  49.335  10.525  0.00  0.00    +0.000 C 
ATOM     41  C   UNL     1     -17.755  48.922  11.259  0.00  0.00    +0.000 C 
ATOM     42  C   UNL     1     -15.184  49.276  11.212  0.00  0.00    +0.000 C 
ENDBRANCH  39  40
ENDBRANCH  20  38
BRANCH  25  43
ATOM     43  C   UNL     1     -19.440  53.664   6.775  0.00  0.00    +0.000 C 
BRANCH  43  44
ATOM     44  C   UNL     1     -20.835  53.890   7.370  0.00  0.00    +0.000 C 
ATOM     45  C   UNL     1     -22.233  54.116   7.964  0.00  0.00    +0.000 C 
BRANCH  45  46
ATOM     46  C   UNL     1     -23.412  54.315   8.466  0.00  0.00    +0.000 C 
ATOM     47  C   UNL     1     -23.674  53.967   9.899  0.00  0.00    +0.000 C 
ATOM     48  C   UNL     1     -24.546  54.718   7.576  0.00  0.00    +0.000 C 
ENDBRANCH  45  46
ENDBRANCH  43  44
ENDBRANCH  25  43
TORSDOF 10
ENDMDL
MODEL 2
REMARK VINA RESULT:      -6.2      6.764     11.483
REMARK  Name = 9852185_GambogicAcid.pdbqt.pdb
REMARK  10 active torsions:
REMARK  status: ('A' for Active; 'I' for Inactive)
REMARK    1  A    between atoms: C_8  and  C_30
REMARK    2  A    between atoms: C_20  and  C_38
REMARK    3  A    between atoms: C_21  and  O_28
REMARK    4  A    between atoms: C_25  and  C_43
REMARK    5  A    between atoms: C_31  and  C_32
REMARK    6  A    between atoms: C_32  and  C_35
REMARK    7  A    between atoms: C_35  and  O_36
REMARK    8  A    between atoms: C_39  and  C_40
REMARK    9  A    between atoms: C_43  and  C_44
REMARK   10  A    between atoms: C_45  and  C_46
REMARK                            x       y       z     vdW  Elec       q    Type
REMARK                         _______ _______ _______ _____ _____    ______ ____
ROOT
ATOM      1  O   UNL     1     -14.453  42.619   1.754  0.00  0.00    +0.000 OA
ATOM      2  O   UNL     1     -13.579  44.670  -0.070  0.00  0.00    +0.000 OA
ATOM      3  O   UNL     1     -12.996  42.988   4.549  0.00  0.00    +0.000 OA
ATOM      4  O   UNL     1      -9.964  46.526   0.595  0.00  0.00    +0.000 OA
ATOM      5  O   UNL     1     -14.061  46.724  -4.328  0.00  0.00    +0.000 OA
ATOM      6  C   UNL     1     -12.777  44.139   0.976  0.00  0.00    +0.000 C 
ATOM      7  C   UNL     1     -12.329  42.658   0.704  0.00  0.00    +0.000 C 
ATOM      8  C   UNL     1     -13.655  43.717   2.221  0.00  0.00    +0.000 C 
ATOM      9  C   UNL     1     -13.655  41.896   0.800  0.00  0.00    +0.000 C 
ATOM     10  C   UNL     1     -11.291  42.340   1.686  0.00  0.00    +0.000 C 
ATOM     11  C   UNL     1     -11.205  43.140   2.896  0.00  0.00    +0.000 C 
ATOM     12  C   UNL     1     -11.614  45.051   1.401  0.00  0.00    +0.000 C 
ATOM     13  C   UNL     1     -12.670  43.256   3.404  0.00  0.00    +0.000 C 
ATOM     14  C   UNL     1     -10.859  44.470   2.466  0.00  0.00    +0.000 C 
ATOM     15  C   UNL     1     -13.462  40.465   1.325  0.00  0.00    +0.000 C 
ATOM     16  C   UNL     1     -14.357  41.879  -0.567  0.00  0.00    +0.000 C 
ATOM     17  C   UNL     1     -11.036  45.963   0.415  0.00  0.00    +0.000 C 
ATOM     18  C   UNL     1     -13.017  45.497  -1.004  0.00  0.00    +0.000 A 
ATOM     19  C   UNL     1     -11.790  46.154  -0.831  0.00  0.00    +0.000 A 
ATOM     20  C   UNL     1     -13.770  45.710  -2.179  0.00  0.00    +0.000 A 
ATOM     21  C   UNL     1     -11.288  47.002  -1.832  0.00  0.00    +0.000 A 
ATOM     22  C   UNL     1     -13.282  46.556  -3.180  0.00  0.00    +0.000 A 
ATOM     23  C   UNL     1     -12.030  47.195  -2.993  0.00  0.00    +0.000 A 
ATOM     24  C   UNL     1     -11.649  48.029  -4.073  0.00  0.00    +0.000 C 
ATOM     25  C   UNL     1     -13.636  47.665  -5.393  0.00  0.00    +0.000 C 
ATOM     26  C   UNL     1     -12.324  48.208  -5.039  0.00  0.00    +0.000 C 
ATOM     27  C   UNL     1     -14.721  48.768  -5.472  0.00  0.00    +0.000 C 
ENDROOT
BRANCH  21  28
ATOM     28  O   UNL     1     -10.090  47.655  -1.717  0.00  0.00    +0.000 OA
ATOM     29  H   UNL     1      -9.673  47.439  -0.853  0.00  0.00    +0.000 HD
ENDBRANCH  21  28
BRANCH   8  30
ATOM     30  C   UNL     1     -14.536  44.801   2.678  0.00  0.00    +0.000 C 
ATOM     31  C   UNL     1     -15.420  45.970   3.140  0.00  0.00    +0.000 C 
BRANCH  31  32
ATOM     32  C   UNL     1     -16.122  46.992   3.539  0.00  0.00    +0.000 C 
ATOM     33  C   UNL     1     -16.684  46.870   4.943  0.00  0.00    +0.000 C 
BRANCH  32  35
ATOM     34  O   UNL     1     -15.829  49.279   2.823  0.00  0.00    +0.000 OA
ATOM     35  C   UNL     1     -16.309  48.169   2.648  0.00  0.00    +0.000 C 
BRANCH  35  36
ATOM     36  O   UNL     1     -17.083  47.930   1.568  0.00  0.00    +0.000 OA
ATOM     37  H   UNL     1     -17.199  48.803   1.138  0.00  0.00    +0.000 HD
ENDBRANCH  35  36
ENDBRANCH  32  35
ENDBRANCH  31  32
ENDBRANCH   8  30
BRANCH  20  38
ATOM     38  C   UNL     1     -15.035  45.054  -2.348  0.00  0.00    +0.000 C 
ATOM     39  C   UNL     1     -16.374  44.329  -2.545  0.00  0.00    +0.000 C 
BRANCH  39  40
ATOM     40  C   UNL     1     -17.495  43.701  -2.720  0.00  0.00    +0.000 C 
ATOM     41  C   UNL     1     -18.670  44.438  -3.289  0.00  0.00    +0.000 C 
ATOM     42  C   UNL     1     -17.540  42.210  -2.587  0.00  0.00    +0.000 C 
ENDBRANCH  39  40
ENDBRANCH  20  38
BRANCH  25  43
ATOM     43  C   UNL     1     -13.586  46.896  -6.651  0.00  0.00    +0.000 C 
BRANCH  43  44
ATOM     44  C   UNL     1     -13.542  46.098  -7.960  0.00  0.00    +0.000 C 
ATOM     45  C   UNL     1     -13.497  45.297  -9.269  0.00  0.00    +0.000 C 
BRANCH  45  46
ATOM     46  C   UNL     1     -13.451  44.624 -10.376  0.00  0.00    +0.000 C 
ATOM     47  C   UNL     1     -13.601  43.134 -10.342  0.00  0.00    +0.000 C 
ATOM     48  C   UNL     1     -13.073  45.307 -11.654  0.00  0.00    +0.000 C 
ENDBRANCH  45  46
ENDBRANCH  43  44
ENDBRANCH  25  43
TORSDOF 10
ENDMDL
MODEL 3
REMARK VINA RESULT:      -5.7     23.430     27.749
REMARK  Name = 9852185_GambogicAcid.pdbqt.pdb
REMARK  10 active torsions:
REMARK  status: ('A' for Active; 'I' for Inactive)
REMARK    1  A    between atoms: C_8  and  C_30
REMARK    2  A    between atoms: C_20  and  C_38
REMARK    3  A    between atoms: C_21  and  O_28
REMARK    4  A    between atoms: C_25  and  C_43
REMARK    5  A    between atoms: C_31  and  C_32
REMARK    6  A    between atoms: C_32  and  C_35
REMARK    7  A    between atoms: C_35  and  O_36
REMARK    8  A    between atoms: C_39  and  C_40
REMARK    9  A    between atoms: C_43  and  C_44
REMARK   10  A    between atoms: C_45  and  C_46
REMARK                            x       y       z     vdW  Elec       q    Type
REMARK                         _______ _______ _______ _____ _____    ______ ____
ROOT
ATOM      1  O   UNL     1     -30.601  68.178  -5.025  0.00  0.00    +0.000 OA
ATOM      2  O   UNL     1     -31.795  66.066  -6.576  0.00  0.00    +0.000 OA
ATOM      3  O   UNL     1     -28.605  66.935  -2.893  0.00  0.00    +0.000 OA
ATOM      4  O   UNL     1     -31.930  62.263  -5.004  0.00  0.00    +0.000 OA
ATOM      5  O   UNL     1     -34.585  64.853 -10.228  0.00  0.00    +0.000 OA
ATOM      6  C   UNL     1     -31.374  65.922  -5.227  0.00  0.00    +0.000 C 
ATOM      7  C   UNL     1     -32.283  66.715  -4.220  0.00  0.00    +0.000 C 
ATOM      8  C   UNL     1     -30.118  66.830  -4.914  0.00  0.00    +0.000 C 
ATOM      9  C   UNL     1     -31.968  68.172  -4.578  0.00  0.00    +0.000 C 
ATOM     10  C   UNL     1     -31.931  66.256  -2.876  0.00  0.00    +0.000 C 
ATOM     11  C   UNL     1     -30.645  65.611  -2.672  0.00  0.00    +0.000 C 
ATOM     12  C   UNL     1     -31.127  64.466  -4.796  0.00  0.00    +0.000 C 
ATOM     13  C   UNL     1     -29.622  66.513  -3.419  0.00  0.00    +0.000 C 
ATOM     14  C   UNL     1     -30.688  64.393  -3.439  0.00  0.00    +0.000 C 
ATOM     15  C   UNL     1     -32.079  69.102  -3.361  0.00  0.00    +0.000 C 
ATOM     16  C   UNL     1     -32.892  68.651  -5.709  0.00  0.00    +0.000 C 
ATOM     17  C   UNL     1     -31.879  63.399  -5.454  0.00  0.00    +0.000 C 
ATOM     18  C   UNL     1     -32.526  65.071  -7.169  0.00  0.00    +0.000 A 
ATOM     19  C   UNL     1     -32.608  63.761  -6.677  0.00  0.00    +0.000 A 
ATOM     20  C   UNL     1     -33.187  65.417  -8.368  0.00  0.00    +0.000 A 
ATOM     21  C   UNL     1     -33.367  62.792  -7.353  0.00  0.00    +0.000 A 
ATOM     22  C   UNL     1     -33.942  64.458  -9.052  0.00  0.00    +0.000 A 
ATOM     23  C   UNL     1     -34.027  63.144  -8.527  0.00  0.00    +0.000 A 
ATOM     24  C   UNL     1     -34.814  62.265  -9.313  0.00  0.00    +0.000 C 
ATOM     25  C   UNL     1     -35.338  63.867 -11.040  0.00  0.00    +0.000 C 
ATOM     26  C   UNL     1     -35.335  62.584 -10.336  0.00  0.00    +0.000 C 
ATOM     27  C   UNL     1     -34.624  63.781 -12.412  0.00  0.00    +0.000 C 
ENDROOT
BRANCH  21  28
ATOM     28  O   UNL     1     -33.490  61.503  -6.908  0.00  0.00    +0.000 OA
ATOM     29  H   UNL     1     -34.255  61.068  -7.348  0.00  0.00    +0.000 HD
ENDBRANCH  21  28
BRANCH   8  30
ATOM     30  C   UNL     1     -29.024  66.624  -5.874  0.00  0.00    +0.000 C 
ATOM     31  C   UNL     1     -27.895  66.455  -6.901  0.00  0.00    +0.000 C 
BRANCH  31  32
ATOM     32  C   UNL     1     -26.966  66.344  -7.809  0.00  0.00    +0.000 C 
ATOM     33  C   UNL     1     -27.477  66.255  -9.235  0.00  0.00    +0.000 C 
BRANCH  32  35
ATOM     34  O   UNL     1     -24.847  67.314  -7.178  0.00  0.00    +0.000 OA
ATOM     35  C   UNL     1     -25.531  66.330  -7.417  0.00  0.00    +0.000 C 
BRANCH  35  36
ATOM     36  O   UNL     1     -24.990  65.096  -7.334  0.00  0.00    +0.000 OA
ATOM     37  H   UNL     1     -24.517  64.965  -8.183  0.00  0.00    +0.000 HD
ENDBRANCH  35  36
ENDBRANCH  32  35
ENDBRANCH  31  32
ENDBRANCH   8  30
BRANCH  20  38
ATOM     38  C   UNL     1     -33.087  66.752  -8.882  0.00  0.00    +0.000 C 
ATOM     39  C   UNL     1     -33.009  68.178  -9.445  0.00  0.00    +0.000 C 
BRANCH  39  40
ATOM     40  C   UNL     1     -32.962  69.382  -9.926  0.00  0.00    +0.000 C 
ATOM     41  C   UNL     1     -32.981  69.582 -11.411  0.00  0.00    +0.000 C 
ATOM     42  C   UNL     1     -33.139  70.555  -9.010  0.00  0.00    +0.000 C 
ENDBRANCH  39  40
ENDBRANCH  20  38
BRANCH  25  43
ATOM     43  C   UNL     1     -36.705  64.397 -11.199  0.00  0.00    +0.000 C 
BRANCH  43  44
ATOM     44  C   UNL     1     -38.128  64.945 -11.372  0.00  0.00    +0.000 C 
ATOM     45  C   UNL     1     -39.552  65.492 -11.546  0.00  0.00    +0.000 C 
BRANCH  45  46
ATOM     46  C   UNL     1     -40.752  65.956 -11.700  0.00  0.00    +0.000 C 
ATOM     47  C   UNL     1     -41.031  66.937 -12.797  0.00  0.00    +0.000 C 
ATOM     48  C   UNL     1     -41.809  65.654 -10.683  0.00  0.00    +0.000 C 
ENDBRANCH  45  46
ENDBRANCH  43  44
ENDBRANCH  25  43
TORSDOF 10
ENDMDL
MODEL 4
REMARK VINA RESULT:      -5.7     16.093     20.206
REMARK  Name = 9852185_GambogicAcid.pdbqt.pdb
REMARK  10 active torsions:
REMARK  status: ('A' for Active; 'I' for Inactive)
REMARK    1  A    between atoms: C_8  and  C_30
REMARK    2  A    between atoms: C_20  and  C_38
REMARK    3  A    between atoms: C_21  and  O_28
REMARK    4  A    between atoms: C_25  and  C_43
REMARK    5  A    between atoms: C_31  and  C_32
REMARK    6  A    between atoms: C_32  and  C_35
REMARK    7  A    between atoms: C_35  and  O_36
REMARK    8  A    between atoms: C_39  and  C_40
REMARK    9  A    between atoms: C_43  and  C_44
REMARK   10  A    between atoms: C_45  and  C_46
REMARK                            x       y       z     vdW  Elec       q    Type
REMARK                         _______ _______ _______ _____ _____    ______ ____
ROOT
ATOM      1  O   UNL     1     -31.713  63.232   7.672  0.00  0.00    +0.000 OA
ATOM      2  O   UNL     1     -29.973  62.731   5.433  0.00  0.00    +0.000 OA
ATOM      3  O   UNL     1     -32.952  60.493   8.691  0.00  0.00    +0.000 OA
ATOM      4  O   UNL     1     -30.497  59.296   3.224  0.00  0.00    +0.000 OA
ATOM      5  O   UNL     1     -26.845  64.481   2.311  0.00  0.00    +0.000 OA
ATOM      6  C   UNL     1     -31.111  61.942   5.749  0.00  0.00    +0.000 C 
ATOM      7  C   UNL     1     -32.464  62.696   5.490  0.00  0.00    +0.000 C 
ATOM      8  C   UNL     1     -31.361  61.887   7.309  0.00  0.00    +0.000 C 
ATOM      9  C   UNL     1     -32.435  63.791   6.562  0.00  0.00    +0.000 C 
ATOM     10  C   UNL     1     -33.531  61.697   5.570  0.00  0.00    +0.000 C 
ATOM     11  C   UNL     1     -33.270  60.451   6.270  0.00  0.00    +0.000 C 
ATOM     12  C   UNL     1     -31.084  60.528   5.143  0.00  0.00    +0.000 C 
ATOM     13  C   UNL     1     -32.574  60.874   7.594  0.00  0.00    +0.000 C 
ATOM     14  C   UNL     1     -32.244  59.781   5.514  0.00  0.00    +0.000 C 
ATOM     15  C   UNL     1     -33.844  64.164   7.045  0.00  0.00    +0.000 C 
ATOM     16  C   UNL     1     -31.700  65.032   6.030  0.00  0.00    +0.000 C 
ATOM     17  C   UNL     1     -30.357  60.311   3.893  0.00  0.00    +0.000 C 
ATOM     18  C   UNL     1     -29.321  62.537   4.245  0.00  0.00    +0.000 A 
ATOM     19  C   UNL     1     -29.462  61.389   3.453  0.00  0.00    +0.000 A 
ATOM     20  C   UNL     1     -28.430  63.559   3.851  0.00  0.00    +0.000 A 
ATOM     21  C   UNL     1     -28.745  61.258   2.253  0.00  0.00    +0.000 A 
ATOM     22  C   UNL     1     -27.706  63.437   2.660  0.00  0.00    +0.000 A 
ATOM     23  C   UNL     1     -27.878  62.276   1.865  0.00  0.00    +0.000 A 
ATOM     24  C   UNL     1     -27.087  62.268   0.689  0.00  0.00    +0.000 C 
ATOM     25  C   UNL     1     -25.995  64.380   1.101  0.00  0.00    +0.000 C 
ATOM     26  C   UNL     1     -26.323  63.136   0.402  0.00  0.00    +0.000 C 
ATOM     27  C   UNL     1     -24.524  64.404   1.587  0.00  0.00    +0.000 C 
ENDROOT
BRANCH  21  28
ATOM     28  O   UNL     1     -28.857  60.163   1.437  0.00  0.00    +0.000 OA
ATOM     29  H   UNL     1     -28.000  59.682   1.405  0.00  0.00    +0.000 HD
ENDBRANCH  21  28
BRANCH   8  30
ATOM     30  C   UNL     1     -30.162  61.479   8.055  0.00  0.00    +0.000 C 
ATOM     31  C   UNL     1     -28.942  61.029   8.873  0.00  0.00    +0.000 C 
BRANCH  31  32
ATOM     32  C   UNL     1     -27.939  60.649   9.613  0.00  0.00    +0.000 C 
ATOM     33  C   UNL     1     -28.245  60.546  11.096  0.00  0.00    +0.000 C 
BRANCH  32  35
ATOM     34  O   UNL     1     -25.814  61.156   8.586  0.00  0.00    +0.000 OA
ATOM     35  C   UNL     1     -26.624  60.336   8.993  0.00  0.00    +0.000 C 
BRANCH  35  36
ATOM     36  O   UNL     1     -26.354  59.017   8.898  0.00  0.00    +0.000 OA
ATOM     37  H   UNL     1     -26.938  58.687   8.183  0.00  0.00    +0.000 HD
ENDBRANCH  35  36
ENDBRANCH  32  35
ENDBRANCH  31  32
ENDBRANCH   8  30
BRANCH  20  38
ATOM     38  C   UNL     1     -28.270  64.725   4.672  0.00  0.00    +0.000 C 
ATOM     39  C   UNL     1     -28.129  65.981   5.544  0.00  0.00    +0.000 C 
BRANCH  39  40
ATOM     40  C   UNL     1     -28.030  67.044   6.280  0.00  0.00    +0.000 C 
ATOM     41  C   UNL     1     -29.266  67.823   6.615  0.00  0.00    +0.000 C 
ATOM     42  C   UNL     1     -26.743  67.343   6.985  0.00  0.00    +0.000 C 
ENDBRANCH  39  40
ENDBRANCH  20  38
BRANCH  25  43
ATOM     43  C   UNL     1     -26.286  65.564   0.271  0.00  0.00    +0.000 C 
BRANCH  43  44
ATOM     44  C   UNL     1     -26.584  66.800  -0.587  0.00  0.00    +0.000 C 
ATOM     45  C   UNL     1     -26.885  68.036  -1.446  0.00  0.00    +0.000 C 
BRANCH  45  46
ATOM     46  C   UNL     1     -27.137  69.076  -2.178  0.00  0.00    +0.000 C 
ATOM     47  C   UNL     1     -26.348  69.308  -3.430  0.00  0.00    +0.000 C 
ATOM     48  C   UNL     1     -28.081  70.128  -1.685  0.00  0.00    +0.000 C 
ENDBRANCH  45  46
ENDBRANCH  43  44
ENDBRANCH  25  43
TORSDOF 10
ENDMDL
MODEL 5
REMARK VINA RESULT:      -5.5     21.824     24.926
REMARK  Name = 9852185_GambogicAcid.pdbqt.pdb
REMARK  10 active torsions:
REMARK  status: ('A' for Active; 'I' for Inactive)
REMARK    1  A    between atoms: C_8  and  C_30
REMARK    2  A    between atoms: C_20  and  C_38
REMARK    3  A    between atoms: C_21  and  O_28
REMARK    4  A    between atoms: C_25  and  C_43
REMARK    5  A    between atoms: C_31  and  C_32
REMARK    6  A    between atoms: C_32  and  C_35
REMARK    7  A    between atoms: C_35  and  O_36
REMARK    8  A    between atoms: C_39  and  C_40
REMARK    9  A    between atoms: C_43  and  C_44
REMARK   10  A    between atoms: C_45  and  C_46
REMARK                            x       y       z     vdW  Elec       q    Type
REMARK                         _______ _______ _______ _____ _____    ______ ____
ROOT
ATOM      1  O   UNL     1     -38.079  39.474  -3.619  0.00  0.00    +0.000 OA
ATOM      2  O   UNL     1     -36.442  41.685  -4.472  0.00  0.00    +0.000 OA
ATOM      3  O   UNL     1     -37.592  38.917  -0.532  0.00  0.00    +0.000 OA
ATOM      4  O   UNL     1     -33.071  42.628  -2.304  0.00  0.00    +0.000 OA
ATOM      5  O   UNL     1     -35.276  44.707  -7.949  0.00  0.00    +0.000 OA
ATOM      6  C   UNL     1     -36.089  40.788  -3.427  0.00  0.00    +0.000 C 
ATOM      7  C   UNL     1     -35.737  39.351  -3.954  0.00  0.00    +0.000 C 
ATOM      8  C   UNL     1     -37.367  40.267  -2.656  0.00  0.00    +0.000 C 
ATOM      9  C   UNL     1     -37.094  38.850  -4.460  0.00  0.00    +0.000 C 
ATOM     10  C   UNL     1     -35.120  38.629  -2.840  0.00  0.00    +0.000 C 
ATOM     11  C   UNL     1     -35.351  39.102  -1.486  0.00  0.00    +0.000 C 
ATOM     12  C   UNL     1     -35.041  41.345  -2.449  0.00  0.00    +0.000 C 
ATOM     13  C   UNL     1     -36.881  39.372  -1.414  0.00  0.00    +0.000 C 
ATOM     14  C   UNL     1     -34.744  40.406  -1.414  0.00  0.00    +0.000 C 
ATOM     15  C   UNL     1     -37.237  37.328  -4.317  0.00  0.00    +0.000 C 
ATOM     16  C   UNL     1     -37.305  39.277  -5.921  0.00  0.00    +0.000 C 
ATOM     17  C   UNL     1     -34.078  42.332  -2.934  0.00  0.00    +0.000 C 
ATOM     18  C   UNL     1     -35.520  42.582  -4.937  0.00  0.00    +0.000 A 
ATOM     19  C   UNL     1     -34.356  42.940  -4.242  0.00  0.00    +0.000 A 
ATOM     20  C   UNL     1     -35.818  43.194  -6.175  0.00  0.00    +0.000 A 
ATOM     21  C   UNL     1     -33.466  43.883  -4.781  0.00  0.00    +0.000 A 
ATOM     22  C   UNL     1     -34.941  44.139  -6.717  0.00  0.00    +0.000 A 
ATOM     23  C   UNL     1     -33.760  44.472  -6.007  0.00  0.00    +0.000 A 
ATOM     24  C   UNL     1     -32.958  45.443  -6.657  0.00  0.00    +0.000 C 
ATOM     25  C   UNL     1     -34.428  45.768  -8.543  0.00  0.00    +0.000 C 
ATOM     26  C   UNL     1     -33.255  45.960  -7.689  0.00  0.00    +0.000 C 
ATOM     27  C   UNL     1     -35.303  47.044  -8.626  0.00  0.00    +0.000 C 
ENDROOT
BRANCH  21  28
ATOM     28  O   UNL     1     -32.310  44.257  -4.148  0.00  0.00    +0.000 OA
ATOM     29  H   UNL     1     -32.114  45.201  -4.342  0.00  0.00    +0.000 HD
ENDBRANCH  21  28
BRANCH   8  30
ATOM     30  C   UNL     1     -38.230  41.364  -2.195  0.00  0.00    +0.000 C 
ATOM     31  C   UNL     1     -39.127  42.491  -1.661  0.00  0.00    +0.000 C 
BRANCH  31  32
ATOM     32  C   UNL     1     -39.903  43.414  -1.165  0.00  0.00    +0.000 C 
ATOM     33  C   UNL     1     -41.380  43.068  -1.159  0.00  0.00    +0.000 C 
BRANCH  32  35
ATOM     34  O   UNL     1     -39.816  45.793  -0.766  0.00  0.00    +0.000 OA
ATOM     35  C   UNL     1     -39.324  44.681  -0.644  0.00  0.00    +0.000 C 
BRANCH  35  36
ATOM     36  O   UNL     1     -38.154  44.529   0.012  0.00  0.00    +0.000 OA
ATOM     37  H   UNL     1     -37.898  43.594  -0.133  0.00  0.00    +0.000 HD
ENDBRANCH  35  36
ENDBRANCH  32  35
ENDBRANCH  31  32
ENDBRANCH   8  30
BRANCH  20  38
ATOM     38  C   UNL     1     -37.019  42.843  -6.876  0.00  0.00    +0.000 C 
ATOM     39  C   UNL     1     -38.317  42.496  -7.620  0.00  0.00    +0.000 C 
BRANCH  39  40
ATOM     40  C   UNL     1     -39.418  42.222  -8.247  0.00  0.00    +0.000 C 
ATOM     41  C   UNL     1     -40.258  43.344  -8.780  0.00  0.00    +0.000 C 
ATOM     42  C   UNL     1     -39.715  40.809  -8.645  0.00  0.00    +0.000 C 
ENDBRANCH  39  40
ENDBRANCH  20  38
BRANCH  25  43
ATOM     43  C   UNL     1     -34.049  45.310  -9.893  0.00  0.00    +0.000 C 
BRANCH  43  44
ATOM     44  C   UNL     1     -33.649  44.830 -11.293  0.00  0.00    +0.000 C 
ATOM     45  C   UNL     1     -33.247  44.349 -12.695  0.00  0.00    +0.000 C 
BRANCH  45  46
ATOM     46  C   UNL     1     -32.904  43.950 -13.880  0.00  0.00    +0.000 C 
ATOM     47  C   UNL     1     -33.185  42.538 -14.295  0.00  0.00    +0.000 C 
ATOM     48  C   UNL     1     -32.077  44.836 -14.759  0.00  0.00    +0.000 C 
ENDBRANCH  45  46
ENDBRANCH  43  44
ENDBRANCH  25  43
TORSDOF 10
ENDMDL
MODEL 6
REMARK VINA RESULT:      -5.5     14.777     19.103
REMARK  Name = 9852185_GambogicAcid.pdbqt.pdb
REMARK  10 active torsions:
REMARK  status: ('A' for Active; 'I' for Inactive)
REMARK    1  A    between atoms: C_8  and  C_30
REMARK    2  A    between atoms: C_20  and  C_38
REMARK    3  A    between atoms: C_21  and  O_28
REMARK    4  A    between atoms: C_25  and  C_43
REMARK    5  A    between atoms: C_31  and  C_32
REMARK    6  A    between atoms: C_32  and  C_35
REMARK    7  A    between atoms: C_35  and  O_36
REMARK    8  A    between atoms: C_39  and  C_40
REMARK    9  A    between atoms: C_43  and  C_44
REMARK   10  A    between atoms: C_45  and  C_46
REMARK                            x       y       z     vdW  Elec       q    Type
REMARK                         _______ _______ _______ _____ _____    ______ ____
ROOT
ATOM      1  O   UNL     1     -10.277  45.833  -7.023  0.00  0.00    +0.000 OA
ATOM      2  O   UNL     1     -11.426  46.946  -9.418  0.00  0.00    +0.000 OA
ATOM      3  O   UNL     1      -9.218  48.175  -5.162  0.00  0.00    +0.000 OA
ATOM      4  O   UNL     1     -10.282  50.716 -10.617  0.00  0.00    +0.000 OA
ATOM      5  O   UNL     1     -13.793  46.176 -13.467  0.00  0.00    +0.000 OA
ATOM      6  C   UNL     1     -10.367  47.550  -8.687  0.00  0.00    +0.000 C 
ATOM      7  C   UNL     1      -9.018  46.755  -8.806  0.00  0.00    +0.000 C 
ATOM      8  C   UNL     1     -10.488  47.248  -7.140  0.00  0.00    +0.000 C 
ATOM      9  C   UNL     1      -9.335  45.463  -8.045  0.00  0.00    +0.000 C 
ATOM     10  C   UNL     1      -7.966  47.619  -8.267  0.00  0.00    +0.000 C 
ATOM     11  C   UNL     1      -8.341  48.706  -7.378  0.00  0.00    +0.000 C 
ATOM     12  C   UNL     1     -10.204  49.057  -8.947  0.00  0.00    +0.000 C 
ATOM     13  C   UNL     1      -9.342  48.070  -6.372  0.00  0.00    +0.000 C 
ATOM     14  C   UNL     1      -9.138  49.606  -8.170  0.00  0.00    +0.000 C 
ATOM     15  C   UNL     1      -8.092  44.877  -7.360  0.00  0.00    +0.000 C 
ATOM     16  C   UNL     1      -9.966  44.431  -8.993  0.00  0.00    +0.000 C 
ATOM     17  C   UNL     1     -10.610  49.597 -10.243  0.00  0.00    +0.000 C 
ATOM     18  C   UNL     1     -11.774  47.444 -10.645  0.00  0.00    +0.000 A 
ATOM     19  C   UNL     1     -11.412  48.718 -11.104  0.00  0.00    +0.000 A 
ATOM     20  C   UNL     1     -12.583  46.609 -11.447  0.00  0.00    +0.000 A 
ATOM     21  C   UNL     1     -11.824  49.163 -12.371  0.00  0.00    +0.000 A 
ATOM     22  C   UNL     1     -13.003  47.044 -12.708  0.00  0.00    +0.000 A 
ATOM     23  C   UNL     1     -12.610  48.329 -13.161  0.00  0.00    +0.000 A 
ATOM     24  C   UNL     1     -13.102  48.655 -14.449  0.00  0.00    +0.000 C 
ATOM     25  C   UNL     1     -14.332  46.605 -14.779  0.00  0.00    +0.000 C 
ATOM     26  C   UNL     1     -13.807  47.936 -15.087  0.00  0.00    +0.000 C 
ATOM     27  C   UNL     1     -15.876  46.604 -14.648  0.00  0.00    +0.000 C 
ENDROOT
BRANCH  21  28
ATOM     28  O   UNL     1     -11.487  50.392 -12.871  0.00  0.00    +0.000 OA
ATOM     29  H   UNL     1     -12.296  50.940 -12.983  0.00  0.00    +0.000 HD
ENDBRANCH  21  28
BRANCH   8  30
ATOM     30  C   UNL     1     -11.813  47.590  -6.604  0.00  0.00    +0.000 C 
ATOM     31  C   UNL     1     -13.175  47.975  -6.004  0.00  0.00    +0.000 C 
BRANCH  31  32
ATOM     32  C   UNL     1     -14.303  48.308  -5.445  0.00  0.00    +0.000 C 
ATOM     33  C   UNL     1     -14.827  47.314  -4.425  0.00  0.00    +0.000 C 
BRANCH  32  35
ATOM     34  O   UNL     1     -14.426  50.564  -6.299  0.00  0.00    +0.000 OA
ATOM     35  C   UNL     1     -14.972  49.587  -5.807  0.00  0.00    +0.000 C 
BRANCH  35  36
ATOM     36  O   UNL     1     -16.297  49.614  -5.549  0.00  0.00    +0.000 OA
ATOM     37  H   UNL     1     -16.411  49.075  -4.738  0.00  0.00    +0.000 HD
ENDBRANCH  35  36
ENDBRANCH  32  35
ENDBRANCH  31  32
ENDBRANCH   8  30
BRANCH  20  38
ATOM     38  C   UNL     1     -12.970  45.313 -10.969  0.00  0.00    +0.000 C 
ATOM     39  C   UNL     1     -13.391  43.939 -10.429  0.00  0.00    +0.000 C 
BRANCH  39  40
ATOM     40  C   UNL     1     -13.755  42.787  -9.957  0.00  0.00    +0.000 C 
ATOM     41  C   UNL     1     -14.486  41.826 -10.845  0.00  0.00    +0.000 C 
ATOM     42  C   UNL     1     -13.237  42.331  -8.627  0.00  0.00    +0.000 C 
ENDBRANCH  39  40
ENDBRANCH  20  38
BRANCH  25  43
ATOM     43  C   UNL     1     -13.895  45.605 -15.771  0.00  0.00    +0.000 C 
BRANCH  43  44
ATOM     44  C   UNL     1     -13.446  44.559 -16.799  0.00  0.00    +0.000 C 
ATOM     45  C   UNL     1     -12.995  43.514 -17.830  0.00  0.00    +0.000 C 
BRANCH  45  46
ATOM     46  C   UNL     1     -12.622  42.632 -18.704  0.00  0.00    +0.000 C 
ATOM     47  C   UNL     1     -11.269  42.000 -18.585  0.00  0.00    +0.000 C 
ATOM     48  C   UNL     1     -13.459  42.380 -19.919  0.00  0.00    +0.000 C 
ENDBRANCH  45  46
ENDBRANCH  43  44
ENDBRANCH  25  43
TORSDOF 10
ENDMDL
MODEL 7
REMARK VINA RESULT:      -5.5     22.174     26.342
REMARK  Name = 9852185_GambogicAcid.pdbqt.pdb
REMARK  10 active torsions:
REMARK  status: ('A' for Active; 'I' for Inactive)
REMARK    1  A    between atoms: C_8  and  C_30
REMARK    2  A    between atoms: C_20  and  C_38
REMARK    3  A    between atoms: C_21  and  O_28
REMARK    4  A    between atoms: C_25  and  C_43
REMARK    5  A    between atoms: C_31  and  C_32
REMARK    6  A    between atoms: C_32  and  C_35
REMARK    7  A    between atoms: C_35  and  O_36
REMARK    8  A    between atoms: C_39  and  C_40
REMARK    9  A    between atoms: C_43  and  C_44
REMARK   10  A    between atoms: C_45  and  C_46
REMARK                            x       y       z     vdW  Elec       q    Type
REMARK                         _______ _______ _______ _____ _____    ______ ____
ROOT
ATOM      1  O   UNL     1     -38.588  45.155  -8.840  0.00  0.00    +0.000 OA
ATOM      2  O   UNL     1     -39.046  46.644  -6.417  0.00  0.00    +0.000 OA
ATOM      3  O   UNL     1     -37.262  47.045 -11.017  0.00  0.00    +0.000 OA
ATOM      4  O   UNL     1     -39.335  50.746  -6.619  0.00  0.00    +0.000 OA
ATOM      5  O   UNL     1     -40.431  46.585  -1.872  0.00  0.00    +0.000 OA
ATOM      6  C   UNL     1     -39.059  47.215  -7.718  0.00  0.00    +0.000 C 
ATOM      7  C   UNL     1     -40.303  46.766  -8.566  0.00  0.00    +0.000 C 
ATOM      8  C   UNL     1     -38.048  46.476  -8.684  0.00  0.00    +0.000 C 
ATOM      9  C   UNL     1     -40.020  45.277  -8.793  0.00  0.00    +0.000 C 
ATOM     10  C   UNL     1     -40.352  47.635  -9.743  0.00  0.00    +0.000 C 
ATOM     11  C   UNL     1     -39.144  48.334 -10.147  0.00  0.00    +0.000 C 
ATOM     12  C   UNL     1     -38.833  48.737  -7.739  0.00  0.00    +0.000 C 
ATOM     13  C   UNL     1     -38.021  47.260 -10.086  0.00  0.00    +0.000 C 
ATOM     14  C   UNL     1     -38.838  49.245  -9.074  0.00  0.00    +0.000 C 
ATOM     15  C   UNL     1     -40.587  44.779 -10.130  0.00  0.00    +0.000 C 
ATOM     16  C   UNL     1     -40.580  44.448  -7.627  0.00  0.00    +0.000 C 
ATOM     17  C   UNL     1     -39.245  49.527  -6.580  0.00  0.00    +0.000 C 
ATOM     18  C   UNL     1     -39.464  47.386  -5.346  0.00  0.00    +0.000 A 
ATOM     19  C   UNL     1     -39.582  48.783  -5.359  0.00  0.00    +0.000 A 
ATOM     20  C   UNL     1     -39.743  46.666  -4.163  0.00  0.00    +0.000 A 
ATOM     21  C   UNL     1     -40.003  49.473  -4.211  0.00  0.00    +0.000 A 
ATOM     22  C   UNL     1     -40.158  47.345  -3.013  0.00  0.00    +0.000 A 
ATOM     23  C   UNL     1     -40.289  48.756  -3.053  0.00  0.00    +0.000 A 
ATOM     24  C   UNL     1     -40.710  49.325  -1.826  0.00  0.00    +0.000 C 
ATOM     25  C   UNL     1     -40.803  47.249  -0.599  0.00  0.00    +0.000 C 
ATOM     26  C   UNL     1     -40.909  48.689  -0.837  0.00  0.00    +0.000 C 
ATOM     27  C   UNL     1     -39.690  46.908   0.423  0.00  0.00    +0.000 C 
ENDROOT
BRANCH  21  28
ATOM     28  O   UNL     1     -40.146  50.835  -4.176  0.00  0.00    +0.000 OA
ATOM     29  H   UNL     1     -41.059  51.082  -4.446  0.00  0.00    +0.000 HD
ENDBRANCH  21  28
BRANCH   8  30
ATOM     30  C   UNL     1     -36.695  46.387  -8.118  0.00  0.00    +0.000 C 
ATOM     31  C   UNL     1     -35.287  46.240  -7.520  0.00  0.00    +0.000 C 
BRANCH  31  32
ATOM     32  C   UNL     1     -34.111  46.069  -6.986  0.00  0.00    +0.000 C 
ATOM     33  C   UNL     1     -32.956  46.623  -7.799  0.00  0.00    +0.000 C 
BRANCH  32  35
ATOM     34  O   UNL     1     -34.791  44.625  -5.174  0.00  0.00    +0.000 OA
ATOM     35  C   UNL     1     -33.976  45.389  -5.670  0.00  0.00    +0.000 C 
BRANCH  35  36
ATOM     36  O   UNL     1     -32.833  45.677  -5.011  0.00  0.00    +0.000 OA
ATOM     37  H   UNL     1     -32.932  45.258  -4.130  0.00  0.00    +0.000 HD
ENDBRANCH  35  36
ENDBRANCH  32  35
ENDBRANCH  31  32
ENDBRANCH   8  30
BRANCH  20  38
ATOM     38  C   UNL     1     -39.603  45.239  -4.144  0.00  0.00    +0.000 C 
ATOM     39  C   UNL     1     -39.428  43.713  -4.141  0.00  0.00    +0.000 C 
BRANCH  39  40
ATOM     40  C   UNL     1     -39.261  42.427  -4.146  0.00  0.00    +0.000 C 
ATOM     41  C   UNL     1     -38.353  41.800  -3.131  0.00  0.00    +0.000 C 
ATOM     42  C   UNL     1     -40.150  41.565  -4.989  0.00  0.00    +0.000 C 
ENDBRANCH  39  40
ENDBRANCH  20  38
BRANCH  25  43
ATOM     43  C   UNL     1     -42.092  46.671  -0.174  0.00  0.00    +0.000 C 
BRANCH  43  44
ATOM     44  C   UNL     1     -43.435  46.071   0.260  0.00  0.00    +0.000 C 
ATOM     45  C   UNL     1     -44.778  45.468   0.697  0.00  0.00    +0.000 C 
BRANCH  45  46
ATOM     46  C   UNL     1     -45.910  44.953   1.062  0.00  0.00    +0.000 C 
ATOM     47  C   UNL     1     -45.959  44.045   2.253  0.00  0.00    +0.000 C 
ATOM     48  C   UNL     1     -47.122  45.118   0.200  0.00  0.00    +0.000 C 
ENDBRANCH  45  46
ENDBRANCH  43  44
ENDBRANCH  25  43
TORSDOF 10
ENDMDL
MODEL 8
REMARK VINA RESULT:      -5.5     19.645     26.163
REMARK  Name = 9852185_GambogicAcid.pdbqt.pdb
REMARK  10 active torsions:
REMARK  status: ('A' for Active; 'I' for Inactive)
REMARK    1  A    between atoms: C_8  and  C_30
REMARK    2  A    between atoms: C_20  and  C_38
REMARK    3  A    between atoms: C_21  and  O_28
REMARK    4  A    between atoms: C_25  and  C_43
REMARK    5  A    between atoms: C_31  and  C_32
REMARK    6  A    between atoms: C_32  and  C_35
REMARK    7  A    between atoms: C_35  and  O_36
REMARK    8  A    between atoms: C_39  and  C_40
REMARK    9  A    between atoms: C_43  and  C_44
REMARK   10  A    between atoms: C_45  and  C_46
REMARK                            x       y       z     vdW  Elec       q    Type
REMARK                         _______ _______ _______ _____ _____    ______ ____
ROOT
ATOM      1  O   UNL     1     -29.343  68.201  -8.996  0.00  0.00    +0.000 OA
ATOM      2  O   UNL     1     -30.310  66.601  -6.804  0.00  0.00    +0.000 OA
ATOM      3  O   UNL     1     -31.384  68.027 -11.421  0.00  0.00    +0.000 OA
ATOM      4  O   UNL     1     -32.960  63.547  -7.576  0.00  0.00    +0.000 OA
ATOM      5  O   UNL     1     -29.751  65.224  -2.290  0.00  0.00    +0.000 OA
ATOM      6  C   UNL     1     -30.569  66.318  -8.172  0.00  0.00    +0.000 C 
ATOM      7  C   UNL     1     -29.290  65.832  -8.944  0.00  0.00    +0.000 C 
ATOM      8  C   UNL     1     -30.667  67.643  -9.029  0.00  0.00    +0.000 C 
ATOM      9  C   UNL     1     -28.423  67.096  -8.962  0.00  0.00    +0.000 C 
ATOM     10  C   UNL     1     -29.745  65.304 -10.231  0.00  0.00    +0.000 C 
ATOM     11  C   UNL     1     -31.047  65.709 -10.733  0.00  0.00    +0.000 C 
ATOM     12  C   UNL     1     -31.793  65.416  -8.406  0.00  0.00    +0.000 C 
ATOM     13  C   UNL     1     -31.093  67.249 -10.527  0.00  0.00    +0.000 C 
ATOM     14  C   UNL     1     -32.010  65.185  -9.799  0.00  0.00    +0.000 C 
ATOM     15  C   UNL     1     -27.538  67.171 -10.215  0.00  0.00    +0.000 C 
ATOM     16  C   UNL     1     -27.565  67.167  -7.690  0.00  0.00    +0.000 C 
ATOM     17  C   UNL     1     -32.173  64.460  -7.368  0.00  0.00    +0.000 C 
ATOM     18  C   UNL     1     -30.643  65.683  -5.845  0.00  0.00    +0.000 A 
ATOM     19  C   UNL     1     -31.538  64.625  -6.053  0.00  0.00    +0.000 A 
ATOM     20  C   UNL     1     -30.061  65.876  -4.573  0.00  0.00    +0.000 A 
ATOM     21  C   UNL     1     -31.841  63.732  -5.011  0.00  0.00    +0.000 A 
ATOM     22  C   UNL     1     -30.361  64.996  -3.527  0.00  0.00    +0.000 A 
ATOM     23  C   UNL     1     -31.253  63.920  -3.764  0.00  0.00    +0.000 A 
ATOM     24  C   UNL     1     -31.479  63.106  -2.627  0.00  0.00    +0.000 C 
ATOM     25  C   UNL     1     -30.083  64.374  -1.122  0.00  0.00    +0.000 C 
ATOM     26  C   UNL     1     -30.993  63.314  -1.558  0.00  0.00    +0.000 C 
ATOM     27  C   UNL     1     -30.733  65.302  -0.066  0.00  0.00    +0.000 C 
ENDROOT
BRANCH  21  28
ATOM     28  O   UNL     1     -32.697  62.675  -5.166  0.00  0.00    +0.000 OA
ATOM     29  H   UNL     1     -32.452  62.161  -5.968  0.00  0.00    +0.000 HD
ENDBRANCH  21  28
BRANCH   8  30
ATOM     30  C   UNL     1     -31.617  68.609  -8.460  0.00  0.00    +0.000 C 
ATOM     31  C   UNL     1     -32.576  69.628  -7.825  0.00  0.00    +0.000 C 
BRANCH  31  32
ATOM     32  C   UNL     1     -33.366  70.480  -7.235  0.00  0.00    +0.000 C 
ATOM     33  C   UNL     1     -33.423  71.850  -7.884  0.00  0.00    +0.000 C 
BRANCH  32  35
ATOM     34  O   UNL     1     -35.239  70.508  -5.711  0.00  0.00    +0.000 OA
ATOM     35  C   UNL     1     -34.141  70.076  -6.031  0.00  0.00    +0.000 C 
BRANCH  35  36
ATOM     36  O   UNL     1     -33.530  69.150  -5.261  0.00  0.00    +0.000 OA
ATOM     37  H   UNL     1     -32.570  69.315  -5.375  0.00  0.00    +0.000 HD
ENDBRANCH  35  36
ENDBRANCH  32  35
ENDBRANCH  31  32
ENDBRANCH   8  30
BRANCH  20  38
ATOM     38  C   UNL     1     -29.161  66.971  -4.355  0.00  0.00    +0.000 C 
ATOM     39  C   UNL     1     -28.181  68.126  -4.101  0.00  0.00    +0.000 C 
BRANCH  39  40
ATOM     40  C   UNL     1     -27.340  69.087  -3.878  0.00  0.00    +0.000 C 
ATOM     41  C   UNL     1     -27.849  70.491  -3.742  0.00  0.00    +0.000 C 
ATOM     42  C   UNL     1     -25.923  68.766  -3.517  0.00  0.00    +0.000 C 
ENDBRANCH  39  40
ENDBRANCH  20  38
BRANCH  25  43
ATOM     43  C   UNL     1     -28.811  63.824  -0.616  0.00  0.00    +0.000 C 
BRANCH  43  44
ATOM     44  C   UNL     1     -27.490  63.256  -0.082  0.00  0.00    +0.000 C 
ATOM     45  C   UNL     1     -26.168  62.685   0.451  0.00  0.00    +0.000 C 
BRANCH  45  46
ATOM     46  C   UNL     1     -25.056  62.199   0.906  0.00  0.00    +0.000 C 
ATOM     47  C   UNL     1     -24.953  61.815   2.350  0.00  0.00    +0.000 C 
ATOM     48  C   UNL     1     -23.833  62.190   0.042  0.00  0.00    +0.000 C 
ENDBRANCH  45  46
ENDBRANCH  43  44
ENDBRANCH  25  43
TORSDOF 10
ENDMDL
MODEL 9
REMARK VINA RESULT:      -5.4     21.953     24.924
REMARK  Name = 9852185_GambogicAcid.pdbqt.pdb
REMARK  10 active torsions:
REMARK  status: ('A' for Active; 'I' for Inactive)
REMARK    1  A    between atoms: C_8  and  C_30
REMARK    2  A    between atoms: C_20  and  C_38
REMARK    3  A    between atoms: C_21  and  O_28
REMARK    4  A    between atoms: C_25  and  C_43
REMARK    5  A    between atoms: C_31  and  C_32
REMARK    6  A    between atoms: C_32  and  C_35
REMARK    7  A    between atoms: C_35  and  O_36
REMARK    8  A    between atoms: C_39  and  C_40
REMARK    9  A    between atoms: C_43  and  C_44
REMARK   10  A    between atoms: C_45  and  C_46
REMARK                            x       y       z     vdW  Elec       q    Type
REMARK                         _______ _______ _______ _____ _____    ______ ____
ROOT
ATOM      1  O   UNL     1     -37.257  43.285 -10.264  0.00  0.00    +0.000 OA
ATOM      2  O   UNL     1     -35.795  42.886  -7.815  0.00  0.00    +0.000 OA
ATOM      3  O   UNL     1     -35.248  44.102 -12.582  0.00  0.00    +0.000 OA
ATOM      4  O   UNL     1     -32.121  44.690  -7.364  0.00  0.00    +0.000 OA
ATOM      5  O   UNL     1     -35.886  41.515  -3.266  0.00  0.00    +0.000 OA
ATOM      6  C   UNL     1     -35.404  43.792  -8.837  0.00  0.00    +0.000 C 
ATOM      7  C   UNL     1     -36.358  45.035  -8.944  0.00  0.00    +0.000 C 
ATOM      8  C   UNL     1     -35.821  43.264 -10.268  0.00  0.00    +0.000 C 
ATOM      9  C   UNL     1     -37.658  44.404  -9.454  0.00  0.00    +0.000 C 
ATOM     10  C   UNL     1     -35.692  46.010  -9.810  0.00  0.00    +0.000 C 
ATOM     11  C   UNL     1     -34.647  45.548 -10.708  0.00  0.00    +0.000 C 
ATOM     12  C   UNL     1     -33.915  44.176  -8.801  0.00  0.00    +0.000 C 
ATOM     13  C   UNL     1     -35.229  44.269 -11.373  0.00  0.00    +0.000 C 
ATOM     14  C   UNL     1     -33.583  45.072  -9.863  0.00  0.00    +0.000 C 
ATOM     15  C   UNL     1     -38.462  45.370 -10.336  0.00  0.00    +0.000 C 
ATOM     16  C   UNL     1     -38.510  43.916  -8.272  0.00  0.00    +0.000 C 
ATOM     17  C   UNL     1     -33.214  44.162  -7.518  0.00  0.00    +0.000 C 
ATOM     18  C   UNL     1     -35.150  42.905  -6.608  0.00  0.00    +0.000 A 
ATOM     19  C   UNL     1     -33.900  43.504  -6.398  0.00  0.00    +0.000 A 
ATOM     20  C   UNL     1     -35.796  42.232  -5.548  0.00  0.00    +0.000 A 
ATOM     21  C   UNL     1     -33.296  43.466  -5.130  0.00  0.00    +0.000 A 
ATOM     22  C   UNL     1     -35.201  42.184  -4.283  0.00  0.00    +0.000 A 
ATOM     23  C   UNL     1     -33.945  42.813  -4.087  0.00  0.00    +0.000 A 
ATOM     24  C   UNL     1     -33.445  42.689  -2.767  0.00  0.00    +0.000 C 
ATOM     25  C   UNL     1     -35.276  41.363  -1.923  0.00  0.00    +0.000 C 
ATOM     26  C   UNL     1     -34.005  42.089  -1.903  0.00  0.00    +0.000 C 
ATOM     27  C   UNL     1     -35.083  39.844  -1.690  0.00  0.00    +0.000 C 
ENDROOT
BRANCH  21  28
ATOM     28  O   UNL     1     -32.083  44.047  -4.870  0.00  0.00    +0.000 OA
ATOM     29  H   UNL     1     -32.134  45.015  -5.033  0.00  0.00    +0.000 HD
ENDBRANCH  21  28
BRANCH   8  30
ATOM     30  C   UNL     1     -35.354  41.892 -10.517  0.00  0.00    +0.000 C 
ATOM     31  C   UNL     1     -34.816  40.475 -10.764  0.00  0.00    +0.000 C 
BRANCH  31  32
ATOM     32  C   UNL     1     -34.308  39.295 -10.983  0.00  0.00    +0.000 C 
ATOM     33  C   UNL     1     -34.924  38.543 -12.149  0.00  0.00    +0.000 C 
BRANCH  32  35
ATOM     34  O   UNL     1     -32.933  37.608  -9.938  0.00  0.00    +0.000 OA
ATOM     35  C   UNL     1     -33.199  38.784 -10.133  0.00  0.00    +0.000 C 
BRANCH  35  36
ATOM     36  O   UNL     1     -32.454  39.750  -9.553  0.00  0.00    +0.000 OA
ATOM     37  H   UNL     1     -32.854  39.884  -8.668  0.00  0.00    +0.000 HD
ENDBRANCH  35  36
ENDBRANCH  32  35
ENDBRANCH  31  32
ENDBRANCH   8  30
BRANCH  20  38
ATOM     38  C   UNL     1     -37.066  41.602  -5.768  0.00  0.00    +0.000 C 
ATOM     39  C   UNL     1     -38.424  40.937  -6.033  0.00  0.00    +0.000 C 
BRANCH  39  40
ATOM     40  C   UNL     1     -39.568  40.378  -6.278  0.00  0.00    +0.000 C 
ATOM     41  C   UNL     1     -39.724  38.901  -6.071  0.00  0.00    +0.000 C 
ATOM     42  C   UNL     1     -40.775  41.231  -6.523  0.00  0.00    +0.000 C 
ENDBRANCH  39  40
ENDBRANCH  20  38
BRANCH  25  43
ATOM     43  C   UNL     1     -36.235  41.919  -0.950  0.00  0.00    +0.000 C 
BRANCH  43  44
ATOM     44  C   UNL     1     -37.231  42.491   0.067  0.00  0.00    +0.000 C 
ATOM     45  C   UNL     1     -38.229  43.064   1.084  0.00  0.00    +0.000 C 
BRANCH  45  46
ATOM     46  C   UNL     1     -39.071  43.554   1.939  0.00  0.00    +0.000 C 
ATOM     47  C   UNL     1     -40.527  43.617   1.591  0.00  0.00    +0.000 C 
ATOM     48  C   UNL     1     -38.573  44.214   3.186  0.00  0.00    +0.000 C 
ENDBRANCH  45  46
ENDBRANCH  43  44
ENDBRANCH  25  43
TORSDOF 10
ENDMDL
