MODEL 1
REMARK VINA RESULT:      -7.0      0.000      0.000
REMARK  Name = AFLATOXIN.pdbqt.pdb
REMARK  1 active torsions:
REMARK  status: ('A' for Active; 'I' for Inactive)
REMARK    1  A    between atoms: C_15  and  O_23
REMARK                            x       y       z     vdW  Elec       q    Type
REMARK                         _______ _______ _______ _____ _____    ______ ____
ROOT
ATOM      1  O   UNL     1     -32.428  44.387  -8.129  0.00  0.00    +0.000 OA
ATOM      2  O   UNL     1     -32.438  44.355  -5.658  0.00  0.00    +0.000 OA
ATOM      3  O   UNL     1     -36.128  47.297  -8.046  0.00  0.00    +0.000 OA
ATOM      4  O   UNL     1     -39.503  47.831 -11.679  0.00  0.00    +0.000 OA
ATOM      5  O   UNL     1     -37.742  48.863  -7.910  0.00  0.00    +0.000 OA
ATOM      6  O   UNL     1     -39.667  48.972  -9.747  0.00  0.00    +0.000 OA
ATOM      7  C   UNL     1     -33.640  45.951  -6.885  0.00  0.00    +0.000 C 
ATOM      8  C   UNL     1     -34.261  45.824  -8.188  0.00  0.00    +0.000 A 
ATOM      9  C   UNL     1     -32.473  45.034  -6.890  0.00  0.00    +0.000 C 
ATOM     10  C   UNL     1     -33.469  44.904  -8.883  0.00  0.00    +0.000 A 
ATOM     11  C   UNL     1     -35.382  46.373  -8.781  0.00  0.00    +0.000 A 
ATOM     12  C   UNL     1     -35.738  46.025 -10.084  0.00  0.00    +0.000 A 
ATOM     13  C   UNL     1     -34.232  45.821  -5.602  0.00  0.00    +0.000 C 
ATOM     14  C   UNL     1     -36.977  46.626 -10.608  0.00  0.00    +0.000 A 
ATOM     15  C   UNL     1     -34.890  45.120 -10.782  0.00  0.00    +0.000 A 
ATOM     16  C   UNL     1     -33.766  44.529 -10.173  0.00  0.00    +0.000 A 
ATOM     17  C   UNL     1     -37.502  46.266 -11.870  0.00  0.00    +0.000 A 
ATOM     18  C   UNL     1     -37.706  47.544  -9.909  0.00  0.00    +0.000 A 
ATOM     19  C   UNL     1     -33.486  45.003  -5.149  0.00  0.00    +0.000 C 
ATOM     20  C   UNL     1     -38.749  46.942 -12.281  0.00  0.00    +0.000 A 
ATOM     21  C   UNL     1     -37.226  47.971  -8.567  0.00  0.00    +0.000 A 
ATOM     22  C   UNL     1     -39.022  48.178 -10.423  0.00  0.00    +0.000 A 
ENDROOT
BRANCH  15  23
ATOM     23  O   UNL     1     -35.190  44.715 -12.065  0.00  0.00    +0.000 OA
ATOM     24  C   UNL     1     -34.133  45.012 -12.941  0.00  0.00    +0.000 C 
ENDBRANCH  15  23
TORSDOF 1
ENDMDL
MODEL 2
REMARK VINA RESULT:      -6.7     25.509     27.444
REMARK  Name = AFLATOXIN.pdbqt.pdb
REMARK  1 active torsions:
REMARK  status: ('A' for Active; 'I' for Inactive)
REMARK    1  A    between atoms: C_15  and  O_23
REMARK                            x       y       z     vdW  Elec       q    Type
REMARK                         _______ _______ _______ _____ _____    ______ ____
ROOT
ATOM      1  O   UNL     1     -18.425  56.531 -29.173  0.00  0.00    +0.000 OA
ATOM      2  O   UNL     1     -19.470  54.813 -30.608  0.00  0.00    +0.000 OA
ATOM      3  O   UNL     1     -16.483  53.106 -26.590  0.00  0.00    +0.000 OA
ATOM      4  O   UNL     1     -15.087  53.484 -21.817  0.00  0.00    +0.000 OA
ATOM      5  O   UNL     1     -15.412  51.415 -25.557  0.00  0.00    +0.000 OA
ATOM      6  O   UNL     1     -14.887  51.550 -22.950  0.00  0.00    +0.000 OA
ATOM      7  C   UNL     1     -17.742  54.297 -29.110  0.00  0.00    +0.000 C 
ATOM      8  C   UNL     1     -17.426  54.906 -27.834  0.00  0.00    +0.000 A 
ATOM      9  C   UNL     1     -18.362  55.362 -29.937  0.00  0.00    +0.000 C 
ATOM     10  C   UNL     1     -17.829  56.240 -27.956  0.00  0.00    +0.000 A 
ATOM     11  C   UNL     1     -16.881  54.444 -26.651  0.00  0.00    +0.000 A 
ATOM     12  C   UNL     1     -16.718  55.299 -25.563  0.00  0.00    +0.000 A 
ATOM     13  C   UNL     1     -18.487  53.118 -29.372  0.00  0.00    +0.000 C 
ATOM     14  C   UNL     1     -16.176  54.699 -24.331  0.00  0.00    +0.000 A 
ATOM     15  C   UNL     1     -17.097  56.662 -25.729  0.00  0.00    +0.000 A 
ATOM     16  C   UNL     1     -17.685  57.133 -26.918  0.00  0.00    +0.000 A 
ATOM     17  C   UNL     1     -16.068  55.435 -23.129  0.00  0.00    +0.000 A 
ATOM     18  C   UNL     1     -15.765  53.399 -24.262  0.00  0.00    +0.000 A 
ATOM     19  C   UNL     1     -19.278  53.579 -30.140  0.00  0.00    +0.000 C 
ATOM     20  C   UNL     1     -15.507  54.718 -21.967  0.00  0.00    +0.000 A 
ATOM     21  C   UNL     1     -15.852  52.553 -25.482  0.00  0.00    +0.000 A 
ATOM     22  C   UNL     1     -15.210  52.732 -22.980  0.00  0.00    +0.000 A 
ENDROOT
BRANCH  15  23
ATOM     23  O   UNL     1     -16.983  57.559 -24.690  0.00  0.00    +0.000 OA
ATOM     24  C   UNL     1     -16.364  58.745 -25.121  0.00  0.00    +0.000 C 
ENDBRANCH  15  23
TORSDOF 1
ENDMDL
MODEL 3
REMARK VINA RESULT:      -6.6      5.923     10.586
REMARK  Name = AFLATOXIN.pdbqt.pdb
REMARK  1 active torsions:
REMARK  status: ('A' for Active; 'I' for Inactive)
REMARK    1  A    between atoms: C_15  and  O_23
REMARK                            x       y       z     vdW  Elec       q    Type
REMARK                         _______ _______ _______ _____ _____    ______ ____
ROOT
ATOM      1  O   UNL     1     -34.909  47.717 -15.785  0.00  0.00    +0.000 OA
ATOM      2  O   UNL     1     -35.632  48.863 -17.852  0.00  0.00    +0.000 OA
ATOM      3  O   UNL     1     -31.508  45.573 -18.237  0.00  0.00    +0.000 OA
ATOM      4  O   UNL     1     -29.359  41.229 -17.064  0.00  0.00    +0.000 OA
ATOM      5  O   UNL     1     -29.773  44.776 -19.433  0.00  0.00    +0.000 OA
ATOM      6  O   UNL     1     -28.799  42.349 -18.932  0.00  0.00    +0.000 OA
ATOM      7  C   UNL     1     -33.563  47.773 -17.694  0.00  0.00    +0.000 C 
ATOM      8  C   UNL     1     -33.201  46.606 -16.916  0.00  0.00    +0.000 A 
ATOM      9  C   UNL     1     -34.640  48.459 -16.939  0.00  0.00    +0.000 C 
ATOM     10  C   UNL     1     -34.018  46.655 -15.782  0.00  0.00    +0.000 A 
ATOM     11  C   UNL     1     -32.309  45.565 -17.093  0.00  0.00    +0.000 A 
ATOM     12  C   UNL     1     -32.204  44.551 -16.142  0.00  0.00    +0.000 A 
ATOM     13  C   UNL     1     -33.937  47.848 -19.061  0.00  0.00    +0.000 C 
ATOM     14  C   UNL     1     -31.263  43.460 -16.446  0.00  0.00    +0.000 A 
ATOM     15  C   UNL     1     -33.018  44.650 -14.977  0.00  0.00    +0.000 A 
ATOM     16  C   UNL     1     -33.953  45.688 -14.805  0.00  0.00    +0.000 A 
ATOM     17  C   UNL     1     -31.149  42.321 -15.616  0.00  0.00    +0.000 A 
ATOM     18  C   UNL     1     -30.460  43.464 -17.550  0.00  0.00    +0.000 A 
ATOM     19  C   UNL     1     -34.972  48.431 -18.926  0.00  0.00    +0.000 C 
ATOM     20  C   UNL     1     -30.167  41.300 -16.032  0.00  0.00    +0.000 A 
ATOM     21  C   UNL     1     -30.524  44.623 -18.480  0.00  0.00    +0.000 A 
ATOM     22  C   UNL     1     -29.475  42.325 -17.910  0.00  0.00    +0.000 A 
ENDROOT
BRANCH  15  23
ATOM     23  O   UNL     1     -32.982  43.674 -14.005  0.00  0.00    +0.000 OA
ATOM     24  C   UNL     1     -33.187  44.231 -12.731  0.00  0.00    +0.000 C 
ENDBRANCH  15  23
TORSDOF 1
ENDMDL
MODEL 4
REMARK VINA RESULT:      -6.5      6.417     10.824
REMARK  Name = AFLATOXIN.pdbqt.pdb
REMARK  1 active torsions:
REMARK  status: ('A' for Active; 'I' for Inactive)
REMARK    1  A    between atoms: C_15  and  O_23
REMARK                            x       y       z     vdW  Elec       q    Type
REMARK                         _______ _______ _______ _____ _____    ______ ____
ROOT
ATOM      1  O   UNL     1     -35.920  50.458 -19.197  0.00  0.00    +0.000 OA
ATOM      2  O   UNL     1     -35.997  49.923 -21.608  0.00  0.00    +0.000 OA
ATOM      3  O   UNL     1     -33.035  46.796 -18.538  0.00  0.00    +0.000 OA
ATOM      4  O   UNL     1     -32.456  44.265 -14.280  0.00  0.00    +0.000 OA
ATOM      5  O   UNL     1     -31.482  45.174 -18.354  0.00  0.00    +0.000 OA
ATOM      6  O   UNL     1     -31.352  43.683 -16.151  0.00  0.00    +0.000 OA
ATOM      7  C   UNL     1     -34.387  48.994 -20.180  0.00  0.00    +0.000 C 
ATOM      8  C   UNL     1     -34.494  48.665 -18.773  0.00  0.00    +0.000 A 
ATOM      9  C   UNL     1     -35.295  50.144 -20.408  0.00  0.00    +0.000 C 
ATOM     10  C   UNL     1     -35.396  49.596 -18.248  0.00  0.00    +0.000 A 
ATOM     11  C   UNL     1     -33.940  47.690 -17.964  0.00  0.00    +0.000 A 
ATOM     12  C   UNL     1     -34.266  47.623 -16.610  0.00  0.00    +0.000 A 
ATOM     13  C   UNL     1     -34.544  48.144 -21.306  0.00  0.00    +0.000 C 
ATOM     14  C   UNL     1     -33.664  46.518 -15.844  0.00  0.00    +0.000 A 
ATOM     15  C   UNL     1     -35.154  48.610 -16.094  0.00  0.00    +0.000 A 
ATOM     16  C   UNL     1     -35.749  49.584 -16.917  0.00  0.00    +0.000 A 
ATOM     17  C   UNL     1     -34.004  46.277 -14.493  0.00  0.00    +0.000 A 
ATOM     18  C   UNL     1     -32.764  45.648 -16.386  0.00  0.00    +0.000 A 
ATOM     19  C   UNL     1     -35.365  48.784 -21.893  0.00  0.00    +0.000 C 
ATOM     20  C   UNL     1     -33.329  45.139 -13.838  0.00  0.00    +0.000 A 
ATOM     21  C   UNL     1     -32.358  45.827 -17.807  0.00  0.00    +0.000 A 
ATOM     22  C   UNL     1     -32.128  44.465 -15.615  0.00  0.00    +0.000 A 
ENDROOT
BRANCH  15  23
ATOM     23  O   UNL     1     -35.536  48.593 -14.770  0.00  0.00    +0.000 OA
ATOM     24  C   UNL     1     -36.703  49.352 -14.578  0.00  0.00    +0.000 C 
ENDBRANCH  15  23
TORSDOF 1
ENDMDL
MODEL 5
REMARK VINA RESULT:      -6.3      8.221     12.099
REMARK  Name = AFLATOXIN.pdbqt.pdb
REMARK  1 active torsions:
REMARK  status: ('A' for Active; 'I' for Inactive)
REMARK    1  A    between atoms: C_15  and  O_23
REMARK                            x       y       z     vdW  Elec       q    Type
REMARK                         _______ _______ _______ _____ _____    ______ ____
ROOT
ATOM      1  O   UNL     1     -36.789  51.194 -22.233  0.00  0.00    +0.000 OA
ATOM      2  O   UNL     1     -35.991  49.803 -24.112  0.00  0.00    +0.000 OA
ATOM      3  O   UNL     1     -34.232  48.565 -19.280  0.00  0.00    +0.000 OA
ATOM      4  O   UNL     1     -35.138  47.917 -14.419  0.00  0.00    +0.000 OA
ATOM      5  O   UNL     1     -32.804  47.407 -17.978  0.00  0.00    +0.000 OA
ATOM      6  O   UNL     1     -33.426  46.877 -15.443  0.00  0.00    +0.000 OA
ATOM      7  C   UNL     1     -34.969  49.747 -22.003  0.00  0.00    +0.000 C 
ATOM      8  C   UNL     1     -35.561  49.947 -20.695  0.00  0.00    +0.000 A 
ATOM      9  C   UNL     1     -35.768  50.564 -22.950  0.00  0.00    +0.000 C 
ATOM     10  C   UNL     1     -36.615  50.843 -20.904  0.00  0.00    +0.000 A 
ATOM     11  C   UNL     1     -35.306  49.446 -19.433  0.00  0.00    +0.000 A 
ATOM     12  C   UNL     1     -36.090  49.829 -18.346  0.00  0.00    +0.000 A 
ATOM     13  C   UNL     1     -34.694  48.528 -22.677  0.00  0.00    +0.000 C 
ATOM     14  C   UNL     1     -35.771  49.201 -17.052  0.00  0.00    +0.000 A 
ATOM     15  C   UNL     1     -37.128  50.775 -18.580  0.00  0.00    +0.000 A 
ATOM     16  C   UNL     1     -37.417  51.264 -19.868  0.00  0.00    +0.000 A 
ATOM     17  C   UNL     1     -36.561  49.422 -15.902  0.00  0.00    +0.000 A 
ATOM     18  C   UNL     1     -34.713  48.354 -16.883  0.00  0.00    +0.000 A 
ATOM     19  C   UNL     1     -35.269  48.761 -23.698  0.00  0.00    +0.000 C 
ATOM     20  C   UNL     1     -36.134  48.734 -14.667  0.00  0.00    +0.000 A 
ATOM     21  C   UNL     1     -33.835  48.061 -18.048  0.00  0.00    +0.000 A 
ATOM     22  C   UNL     1     -34.363  47.661 -15.543  0.00  0.00    +0.000 A 
ENDROOT
BRANCH  15  23
ATOM     23  O   UNL     1     -37.956  51.184 -17.556  0.00  0.00    +0.000 OA
ATOM     24  C   UNL     1     -38.638  52.361 -17.908  0.00  0.00    +0.000 C 
ENDBRANCH  15  23
TORSDOF 1
ENDMDL
MODEL 6
REMARK VINA RESULT:      -6.2     25.866     27.455
REMARK  Name = AFLATOXIN.pdbqt.pdb
REMARK  1 active torsions:
REMARK  status: ('A' for Active; 'I' for Inactive)
REMARK    1  A    between atoms: C_15  and  O_23
REMARK                            x       y       z     vdW  Elec       q    Type
REMARK                         _______ _______ _______ _____ _____    ______ ____
ROOT
ATOM      1  O   UNL     1     -18.488  54.683 -29.963  0.00  0.00    +0.000 OA
ATOM      2  O   UNL     1     -18.532  56.924 -31.004  0.00  0.00    +0.000 OA
ATOM      3  O   UNL     1     -17.411  56.685 -25.840  0.00  0.00    +0.000 OA
ATOM      4  O   UNL     1     -14.999  54.487 -22.069  0.00  0.00    +0.000 OA
ATOM      5  O   UNL     1     -17.128  57.742 -23.870  0.00  0.00    +0.000 OA
ATOM      6  O   UNL     1     -15.638  56.641 -21.958  0.00  0.00    +0.000 OA
ATOM      7  C   UNL     1     -18.551  56.633 -28.678  0.00  0.00    +0.000 C 
ATOM      8  C   UNL     1     -17.948  55.582 -27.883  0.00  0.00    +0.000 A 
ATOM      9  C   UNL     1     -18.892  56.021 -29.986  0.00  0.00    +0.000 C 
ATOM     10  C   UNL     1     -17.974  54.446 -28.698  0.00  0.00    +0.000 A 
ATOM     11  C   UNL     1     -17.397  55.524 -26.616  0.00  0.00    +0.000 A 
ATOM     12  C   UNL     1     -16.864  54.332 -26.129  0.00  0.00    +0.000 A 
ATOM     13  C   UNL     1     -18.044  57.926 -28.973  0.00  0.00    +0.000 C 
ATOM     14  C   UNL     1     -16.254  54.385 -24.788  0.00  0.00    +0.000 A 
ATOM     15  C   UNL     1     -16.943  53.182 -26.964  0.00  0.00    +0.000 A 
ATOM     16  C   UNL     1     -17.471  53.240 -28.268  0.00  0.00    +0.000 A 
ATOM     17  C   UNL     1     -15.583  53.273 -24.231  0.00  0.00    +0.000 A 
ATOM     18  C   UNL     1     -16.277  55.507 -24.011  0.00  0.00    +0.000 A 
ATOM     19  C   UNL     1     -18.131  57.878 -30.164  0.00  0.00    +0.000 C 
ATOM     20  C   UNL     1     -15.017  53.456 -22.880  0.00  0.00    +0.000 A 
ATOM     21  C   UNL     1     -16.957  56.725 -24.527  0.00  0.00    +0.000 A 
ATOM     22  C   UNL     1     -15.629  55.602 -22.608  0.00  0.00    +0.000 A 
ENDROOT
BRANCH  15  23
ATOM     23  O   UNL     1     -16.419  51.974 -26.555  0.00  0.00    +0.000 OA
ATOM     24  C   UNL     1     -17.303  50.922 -26.849  0.00  0.00    +0.000 C 
ENDBRANCH  15  23
TORSDOF 1
ENDMDL
MODEL 7
REMARK VINA RESULT:      -6.1     25.234     26.076
REMARK  Name = AFLATOXIN.pdbqt.pdb
REMARK  1 active torsions:
REMARK  status: ('A' for Active; 'I' for Inactive)
REMARK    1  A    between atoms: C_15  and  O_23
REMARK                            x       y       z     vdW  Elec       q    Type
REMARK                         _______ _______ _______ _____ _____    ______ ____
ROOT
ATOM      1  O   UNL     1     -15.725  57.427 -20.084  0.00  0.00    +0.000 OA
ATOM      2  O   UNL     1     -13.980  56.850 -18.432  0.00  0.00    +0.000 OA
ATOM      3  O   UNL     1     -15.050  53.257 -22.163  0.00  0.00    +0.000 OA
ATOM      4  O   UNL     1     -16.020  52.183 -26.935  0.00  0.00    +0.000 OA
ATOM      5  O   UNL     1     -14.825  51.157 -22.949  0.00  0.00    +0.000 OA
ATOM      6  O   UNL     1     -15.123  50.657 -25.547  0.00  0.00    +0.000 OA
ATOM      7  C   UNL     1     -14.943  55.239 -19.836  0.00  0.00    +0.000 C 
ATOM      8  C   UNL     1     -15.458  55.390 -21.182  0.00  0.00    +0.000 A 
ATOM      9  C   UNL     1     -15.143  56.548 -19.166  0.00  0.00    +0.000 C 
ATOM     10  C   UNL     1     -15.935  56.703 -21.246  0.00  0.00    +0.000 A 
ATOM     11  C   UNL     1     -15.528  54.563 -22.287  0.00  0.00    +0.000 A 
ATOM     12  C   UNL     1     -16.081  55.022 -23.482  0.00  0.00    +0.000 A 
ATOM     13  C   UNL     1     -13.668  54.778 -19.419  0.00  0.00    +0.000 C 
ATOM     14  C   UNL     1     -16.064  54.082 -24.617  0.00  0.00    +0.000 A 
ATOM     15  C   UNL     1     -16.597  56.349 -23.506  0.00  0.00    +0.000 A 
ATOM     16  C   UNL     1     -16.499  57.209 -22.395  0.00  0.00    +0.000 A 
ATOM     17  C   UNL     1     -16.492  54.466 -25.908  0.00  0.00    +0.000 A 
ATOM     18  C   UNL     1     -15.617  52.797 -24.505  0.00  0.00    +0.000 A 
ATOM     19  C   UNL     1     -13.367  55.703 -18.725  0.00  0.00    +0.000 C 
ATOM     20  C   UNL     1     -16.426  53.430 -26.958  0.00  0.00    +0.000 A 
ATOM     21  C   UNL     1     -15.141  52.315 -23.181  0.00  0.00    +0.000 A 
ATOM     22  C   UNL     1     -15.567  51.791 -25.681  0.00  0.00    +0.000 A 
ENDROOT
BRANCH  15  23
ATOM     23  O   UNL     1     -17.140  56.876 -24.658  0.00  0.00    +0.000 OA
ATOM     24  C   UNL     1     -16.523  58.095 -24.986  0.00  0.00    +0.000 C 
ENDBRANCH  15  23
TORSDOF 1
ENDMDL
MODEL 8
REMARK VINA RESULT:      -6.0     23.169     24.055
REMARK  Name = AFLATOXIN.pdbqt.pdb
REMARK  1 active torsions:
REMARK  status: ('A' for Active; 'I' for Inactive)
REMARK    1  A    between atoms: C_15  and  O_23
REMARK                            x       y       z     vdW  Elec       q    Type
REMARK                         _______ _______ _______ _____ _____    ______ ____
ROOT
ATOM      1  O   UNL     1     -15.395  46.217   2.704  0.00  0.00    +0.000 OA
ATOM      2  O   UNL     1     -16.065  44.199   3.963  0.00  0.00    +0.000 OA
ATOM      3  O   UNL     1     -16.750  48.868   6.352  0.00  0.00    +0.000 OA
ATOM      4  O   UNL     1     -18.186  53.638   6.120  0.00  0.00    +0.000 OA
ATOM      5  O   UNL     1     -17.204  50.035   8.225  0.00  0.00    +0.000 OA
ATOM      6  O   UNL     1     -18.192  52.503   8.062  0.00  0.00    +0.000 OA
ATOM      7  C   UNL     1     -15.820  46.286   5.001  0.00  0.00    +0.000 C 
ATOM      8  C   UNL     1     -16.043  47.610   4.456  0.00  0.00    +0.000 A 
ATOM      9  C   UNL     1     -15.398  45.434   3.863  0.00  0.00    +0.000 C 
ATOM     10  C   UNL     1     -15.740  47.501   3.095  0.00  0.00    +0.000 A 
ATOM     11  C   UNL     1     -16.475  48.812   4.984  0.00  0.00    +0.000 A 
ATOM     12  C   UNL     1     -16.609  49.937   4.171  0.00  0.00    +0.000 A 
ATOM     13  C   UNL     1     -16.696  45.488   5.782  0.00  0.00    +0.000 C 
ATOM     14  C   UNL     1     -17.124  51.156   4.817  0.00  0.00    +0.000 A 
ATOM     15  C   UNL     1     -16.252  49.807   2.799  0.00  0.00    +0.000 A 
ATOM     16  C   UNL     1     -15.845  48.578   2.245  0.00  0.00    +0.000 A 
ATOM     17  C   UNL     1     -17.409  52.327   4.078  0.00  0.00    +0.000 A 
ATOM     18  C   UNL     1     -17.380  51.231   6.157  0.00  0.00    +0.000 A 
ATOM     19  C   UNL     1     -16.673  44.498   5.112  0.00  0.00    +0.000 C 
ATOM     20  C   UNL     1     -17.920  53.481   4.845  0.00  0.00    +0.000 A 
ATOM     21  C   UNL     1     -17.114  50.039   7.006  0.00  0.00    +0.000 A 
ATOM     22  C   UNL     1     -17.940  52.490   6.863  0.00  0.00    +0.000 A 
ENDROOT
BRANCH  15  23
ATOM     23  O   UNL     1     -16.379  50.872   1.932  0.00  0.00    +0.000 OA
ATOM     24  C   UNL     1     -15.119  51.409   1.616  0.00  0.00    +0.000 C 
ENDBRANCH  15  23
TORSDOF 1
ENDMDL
MODEL 9
REMARK VINA RESULT:      -5.8     23.274     24.775
REMARK  Name = AFLATOXIN.pdbqt.pdb
REMARK  1 active torsions:
REMARK  status: ('A' for Active; 'I' for Inactive)
REMARK    1  A    between atoms: C_15  and  O_23
REMARK                            x       y       z     vdW  Elec       q    Type
REMARK                         _______ _______ _______ _____ _____    ______ ____
ROOT
ATOM      1  O   UNL     1     -17.265  51.388   7.734  0.00  0.00    +0.000 OA
ATOM      2  O   UNL     1     -18.303  53.128   6.320  0.00  0.00    +0.000 OA
ATOM      3  O   UNL     1     -16.327  48.884   3.858  0.00  0.00    +0.000 OA
ATOM      4  O   UNL     1     -15.712  43.939   3.656  0.00  0.00    +0.000 OA
ATOM      5  O   UNL     1     -15.714  47.868   1.943  0.00  0.00    +0.000 OA
ATOM      6  O   UNL     1     -15.621  45.211   1.803  0.00  0.00    +0.000 OA
ATOM      7  C   UNL     1     -16.950  51.440   5.419  0.00  0.00    +0.000 C 
ATOM      8  C   UNL     1     -16.764  50.077   5.874  0.00  0.00    +0.000 A 
ATOM      9  C   UNL     1     -17.253  52.244   6.629  0.00  0.00    +0.000 C 
ATOM     10  C   UNL     1     -16.934  50.128   7.262  0.00  0.00    +0.000 A 
ATOM     11  C   UNL     1     -16.502  48.875   5.244  0.00  0.00    +0.000 A 
ATOM     12  C   UNL     1     -16.396  47.696   5.981  0.00  0.00    +0.000 A 
ATOM     13  C   UNL     1     -17.810  51.927   4.401  0.00  0.00    +0.000 C 
ATOM     14  C   UNL     1     -16.166  46.460   5.212  0.00  0.00    +0.000 A 
ATOM     15  C   UNL     1     -16.531  47.785   7.395  0.00  0.00    +0.000 A 
ATOM     16  C   UNL     1     -16.832  48.999   8.042  0.00  0.00    +0.000 A 
ATOM     17  C   UNL     1     -16.151  45.190   5.832  0.00  0.00    +0.000 A 
ATOM     18  C   UNL     1     -15.974  46.456   3.860  0.00  0.00    +0.000 A 
ATOM     19  C   UNL     1     -18.382  52.759   5.041  0.00  0.00    +0.000 C 
ATOM     20  C   UNL     1     -15.909  44.030   4.950  0.00  0.00    +0.000 A 
ATOM     21  C   UNL     1     -15.983  47.752   3.130  0.00  0.00    +0.000 A 
ATOM     22  C   UNL     1     -15.751  45.175   3.021  0.00  0.00    +0.000 A 
ENDROOT
BRANCH  15  23
ATOM     23  O   UNL     1     -16.458  46.658   8.185  0.00  0.00    +0.000 OA
ATOM     24  C   UNL     1     -17.398  46.718   9.227  0.00  0.00    +0.000 C 
ENDBRANCH  15  23
TORSDOF 1
ENDMDL
