MODEL 1
REMARK VINA RESULT:      -6.2      0.000      0.000
REMARK  Name = Belinostat.pdbqt.pdb
REMARK  6 active torsions:
REMARK  status: ('A' for Active; 'I' for Inactive)
REMARK    1  A    between atoms: C_1  and  S_7
REMARK    2  A    between atoms: C_3  and  C_18
REMARK    3  A    between atoms: S_7  and  N_10
REMARK    4  A    between atoms: N_10  and  C_12
REMARK    5  A    between atoms: C_19  and  C_20
REMARK    6  A    between atoms: N_22  and  O_24
REMARK                            x       y       z     vdW  Elec       q    Type
REMARK                         _______ _______ _______ _____ _____    ______ ____
ROOT
ATOM      1  C   UNL     1     -38.829  48.900  -8.603  0.00  0.00    +0.000 A 
ATOM      2  C   UNL     1     -37.641  48.335  -8.154  0.00  0.00    +0.000 A 
ATOM      3  C   UNL     1     -36.952  47.460  -8.988  0.00  0.00    +0.000 A 
ATOM      4  C   UNL     1     -39.325  48.633  -9.875  0.00  0.00    +0.000 A 
ATOM      5  C   UNL     1     -37.443  47.169 -10.260  0.00  0.00    +0.000 A 
ATOM      6  C   UNL     1     -38.629  47.757 -10.703  0.00  0.00    +0.000 A 
ENDROOT
BRANCH   1   7
ATOM      7  S   UNL     1     -39.686  50.037  -7.575  0.00  0.00    +0.000 S 
ATOM      8  O   UNL     1     -41.017  49.506  -7.374  0.00  0.00    +0.000 OA
ATOM      9  O   UNL     1     -39.483  51.367  -8.106  0.00  0.00    +0.000 OA
BRANCH   7  10
ATOM     10  N   UNL     1     -38.895  49.903  -6.105  0.00  0.00    +0.000 N 
ATOM     11  H   UNL     1     -37.951  50.289  -6.096  0.00  0.00    +0.000 HD
BRANCH  10  12
ATOM     12  C   UNL     1     -39.569  49.670  -4.873  0.00  0.00    +0.000 A 
ATOM     13  C   UNL     1     -39.718  48.399  -4.324  0.00  0.00    +0.000 A 
ATOM     14  C   UNL     1     -40.314  48.235  -3.075  0.00  0.00    +0.000 A 
ATOM     15  C   UNL     1     -40.739  49.349  -2.358  0.00  0.00    +0.000 A 
ATOM     16  C   UNL     1     -40.560  50.625  -2.885  0.00  0.00    +0.000 A 
ATOM     17  C   UNL     1     -39.965  50.784  -4.133  0.00  0.00    +0.000 A 
ENDBRANCH  10  12
ENDBRANCH   7  10
ENDBRANCH   1   7
BRANCH   3  18
ATOM     18  C   UNL     1     -35.738  46.860  -8.538  0.00  0.00    +0.000 C 
ATOM     19  C   UNL     1     -34.715  46.355  -8.163  0.00  0.00    +0.000 C 
BRANCH  19  20
ATOM     20  C   UNL     1     -33.486  45.750  -7.713  0.00  0.00    +0.000 C 
ATOM     21  O   UNL     1     -33.034  46.011  -6.604  0.00  0.00    +0.000 OA
ATOM     22  N   UNL     1     -32.891  44.884  -8.587  0.00  0.00    +0.000 N 
ATOM     23  H   UNL     1     -33.280  44.614  -9.482  0.00  0.00    +0.000 HD
BRANCH  22  24
ATOM     24  O   UNL     1     -31.711  44.235  -8.161  0.00  0.00    +0.000 OA
ATOM     25  H   UNL     1     -31.988  43.815  -7.318  0.00  0.00    +0.000 HD
ENDBRANCH  22  24
ENDBRANCH  19  20
ENDBRANCH   3  18
TORSDOF 6
ENDMDL
MODEL 2
REMARK VINA RESULT:      -6.0      3.047      7.217
REMARK  Name = Belinostat.pdbqt.pdb
REMARK  6 active torsions:
REMARK  status: ('A' for Active; 'I' for Inactive)
REMARK    1  A    between atoms: C_1  and  S_7
REMARK    2  A    between atoms: C_3  and  C_18
REMARK    3  A    between atoms: S_7  and  N_10
REMARK    4  A    between atoms: N_10  and  C_12
REMARK    5  A    between atoms: C_19  and  C_20
REMARK    6  A    between atoms: N_22  and  O_24
REMARK                            x       y       z     vdW  Elec       q    Type
REMARK                         _______ _______ _______ _____ _____    ______ ____
ROOT
ATOM      1  C   UNL     1     -35.373  45.735 -10.590  0.00  0.00    +0.000 A 
ATOM      2  C   UNL     1     -36.074  46.431  -9.612  0.00  0.00    +0.000 A 
ATOM      3  C   UNL     1     -37.219  47.134  -9.973  0.00  0.00    +0.000 A 
ATOM      4  C   UNL     1     -35.808  45.701 -11.911  0.00  0.00    +0.000 A 
ATOM      5  C   UNL     1     -37.660  47.123 -11.296  0.00  0.00    +0.000 A 
ATOM      6  C   UNL     1     -36.955  46.406 -12.263  0.00  0.00    +0.000 A 
ENDROOT
BRANCH   1   7
ATOM      7  S   UNL     1     -33.949  44.811 -10.137  0.00  0.00    +0.000 S 
ATOM      8  O   UNL     1     -33.085  44.770 -11.297  0.00  0.00    +0.000 OA
ATOM      9  O   UNL     1     -34.387  43.596  -9.486  0.00  0.00    +0.000 OA
BRANCH   7  10
ATOM     10  N   UNL     1     -33.189  45.795  -9.015  0.00  0.00    +0.000 N 
ATOM     11  H   UNL     1     -32.927  46.714  -9.367  0.00  0.00    +0.000 HD
BRANCH  10  12
ATOM     12  C   UNL     1     -33.259  45.576  -7.610  0.00  0.00    +0.000 A 
ATOM     13  C   UNL     1     -34.308  46.048  -6.824  0.00  0.00    +0.000 A 
ATOM     14  C   UNL     1     -34.370  45.736  -5.468  0.00  0.00    +0.000 A 
ATOM     15  C   UNL     1     -33.393  44.925  -4.897  0.00  0.00    +0.000 A 
ATOM     16  C   UNL     1     -32.362  44.419  -5.684  0.00  0.00    +0.000 A 
ATOM     17  C   UNL     1     -32.304  44.735  -7.039  0.00  0.00    +0.000 A 
ENDBRANCH  10  12
ENDBRANCH   7  10
ENDBRANCH   1   7
BRANCH   3  18
ATOM     18  C   UNL     1     -37.943  47.866  -8.986  0.00  0.00    +0.000 C 
ATOM     19  C   UNL     1     -38.551  48.485  -8.156  0.00  0.00    +0.000 C 
BRANCH  19  20
ATOM     20  C   UNL     1     -39.281  49.229  -7.159  0.00  0.00    +0.000 C 
ATOM     21  O   UNL     1     -40.278  48.749  -6.632  0.00  0.00    +0.000 OA
ATOM     22  N   UNL     1     -38.785  50.465  -6.854  0.00  0.00    +0.000 N 
ATOM     23  H   UNL     1     -37.931  50.853  -7.238  0.00  0.00    +0.000 HD
BRANCH  22  24
ATOM     24  O   UNL     1     -39.446  51.204  -5.848  0.00  0.00    +0.000 OA
ATOM     25  H   UNL     1     -40.170  51.644  -6.343  0.00  0.00    +0.000 HD
ENDBRANCH  22  24
ENDBRANCH  19  20
ENDBRANCH   3  18
TORSDOF 6
ENDMDL
MODEL 3
REMARK VINA RESULT:      -5.7     16.304     18.240
REMARK  Name = Belinostat.pdbqt.pdb
REMARK  6 active torsions:
REMARK  status: ('A' for Active; 'I' for Inactive)
REMARK    1  A    between atoms: C_1  and  S_7
REMARK    2  A    between atoms: C_3  and  C_18
REMARK    3  A    between atoms: S_7  and  N_10
REMARK    4  A    between atoms: N_10  and  C_12
REMARK    5  A    between atoms: C_19  and  C_20
REMARK    6  A    between atoms: N_22  and  O_24
REMARK                            x       y       z     vdW  Elec       q    Type
REMARK                         _______ _______ _______ _____ _____    ______ ____
ROOT
ATOM      1  C   UNL     1     -29.034  63.690  -0.805  0.00  0.00    +0.000 A 
ATOM      2  C   UNL     1     -29.900  63.230  -1.790  0.00  0.00    +0.000 A 
ATOM      3  C   UNL     1     -29.994  63.933  -2.988  0.00  0.00    +0.000 A 
ATOM      4  C   UNL     1     -28.241  64.816  -1.002  0.00  0.00    +0.000 A 
ATOM      5  C   UNL     1     -29.217  65.072  -3.195  0.00  0.00    +0.000 A 
ATOM      6  C   UNL     1     -28.340  65.512  -2.203  0.00  0.00    +0.000 A 
ENDROOT
BRANCH   1   7
ATOM      7  S   UNL     1     -28.877  62.789   0.694  0.00  0.00    +0.000 S 
ATOM      8  O   UNL     1     -28.600  63.750   1.740  0.00  0.00    +0.000 OA
ATOM      9  O   UNL     1     -27.995  61.667   0.457  0.00  0.00    +0.000 OA
BRANCH   7  10
ATOM     10  N   UNL     1     -30.429  62.222   0.970  0.00  0.00    +0.000 N 
ATOM     11  H   UNL     1     -30.920  61.911   0.133  0.00  0.00    +0.000 HD
BRANCH  10  12
ATOM     12  C   UNL     1     -30.893  61.808   2.251  0.00  0.00    +0.000 A 
ATOM     13  C   UNL     1     -30.343  60.730   2.941  0.00  0.00    +0.000 A 
ATOM     14  C   UNL     1     -30.780  60.418   4.226  0.00  0.00    +0.000 A 
ATOM     15  C   UNL     1     -31.752  61.203   4.839  0.00  0.00    +0.000 A 
ATOM     16  C   UNL     1     -32.280  62.304   4.169  0.00  0.00    +0.000 A 
ATOM     17  C   UNL     1     -31.841  62.612   2.884  0.00  0.00    +0.000 A 
ENDBRANCH  10  12
ENDBRANCH   7  10
ENDBRANCH   1   7
BRANCH   3  18
ATOM     18  C   UNL     1     -30.888  63.484  -4.005  0.00  0.00    +0.000 C 
ATOM     19  C   UNL     1     -31.638  63.107  -4.864  0.00  0.00    +0.000 C 
BRANCH  19  20
ATOM     20  C   UNL     1     -32.538  62.654  -5.895  0.00  0.00    +0.000 C 
ATOM     21  O   UNL     1     -33.264  61.685  -5.705  0.00  0.00    +0.000 OA
ATOM     22  N   UNL     1     -32.524  63.372  -7.058  0.00  0.00    +0.000 N 
ATOM     23  H   UNL     1     -31.973  64.208  -7.210  0.00  0.00    +0.000 HD
BRANCH  22  24
ATOM     24  O   UNL     1     -33.428  62.987  -8.073  0.00  0.00    +0.000 OA
ATOM     25  H   UNL     1     -34.241  62.772  -7.568  0.00  0.00    +0.000 HD
ENDBRANCH  22  24
ENDBRANCH  19  20
ENDBRANCH   3  18
TORSDOF 6
ENDMDL
MODEL 4
REMARK VINA RESULT:      -5.6     22.237     24.780
REMARK  Name = Belinostat.pdbqt.pdb
REMARK  6 active torsions:
REMARK  status: ('A' for Active; 'I' for Inactive)
REMARK    1  A    between atoms: C_1  and  S_7
REMARK    2  A    between atoms: C_3  and  C_18
REMARK    3  A    between atoms: S_7  and  N_10
REMARK    4  A    between atoms: N_10  and  C_12
REMARK    5  A    between atoms: C_19  and  C_20
REMARK    6  A    between atoms: N_22  and  O_24
REMARK                            x       y       z     vdW  Elec       q    Type
REMARK                         _______ _______ _______ _____ _____    ______ ____
ROOT
ATOM      1  C   UNL     1     -13.457  48.174  -4.551  0.00  0.00    +0.000 A 
ATOM      2  C   UNL     1     -14.376  47.154  -4.329  0.00  0.00    +0.000 A 
ATOM      3  C   UNL     1     -14.252  46.371  -3.186  0.00  0.00    +0.000 A 
ATOM      4  C   UNL     1     -12.440  48.446  -3.642  0.00  0.00    +0.000 A 
ATOM      5  C   UNL     1     -13.229  46.620  -2.272  0.00  0.00    +0.000 A 
ATOM      6  C   UNL     1     -12.324  47.658  -2.500  0.00  0.00    +0.000 A 
ENDROOT
BRANCH   1   7
ATOM      7  S   UNL     1     -13.628  49.195  -5.969  0.00  0.00    +0.000 S 
ATOM      8  O   UNL     1     -13.014  50.466  -5.653  0.00  0.00    +0.000 OA
ATOM      9  O   UNL     1     -15.000  49.118  -6.419  0.00  0.00    +0.000 OA
BRANCH   7  10
ATOM     10  N   UNL     1     -12.635  48.457  -7.099  0.00  0.00    +0.000 N 
ATOM     11  H   UNL     1     -11.960  49.081  -7.540  0.00  0.00    +0.000 HD
BRANCH  10  12
ATOM     12  C   UNL     1     -12.434  47.050  -7.164  0.00  0.00    +0.000 A 
ATOM     13  C   UNL     1     -11.391  46.405  -6.503  0.00  0.00    +0.000 A 
ATOM     14  C   UNL     1     -11.288  45.017  -6.531  0.00  0.00    +0.000 A 
ATOM     15  C   UNL     1     -12.248  44.263  -7.200  0.00  0.00    +0.000 A 
ATOM     16  C   UNL     1     -13.314  44.898  -7.832  0.00  0.00    +0.000 A 
ATOM     17  C   UNL     1     -13.412  46.287  -7.802  0.00  0.00    +0.000 A 
ENDBRANCH  10  12
ENDBRANCH   7  10
ENDBRANCH   1   7
BRANCH   3  18
ATOM     18  C   UNL     1     -15.177  45.311  -2.949  0.00  0.00    +0.000 C 
ATOM     19  C   UNL     1     -15.958  44.420  -2.752  0.00  0.00    +0.000 C 
BRANCH  19  20
ATOM     20  C   UNL     1     -16.895  43.350  -2.517  0.00  0.00    +0.000 C 
ATOM     21  O   UNL     1     -18.090  43.510  -2.738  0.00  0.00    +0.000 OA
ATOM     22  N   UNL     1     -16.362  42.180  -2.052  0.00  0.00    +0.000 N 
ATOM     23  H   UNL     1     -15.372  42.013  -1.919  0.00  0.00    +0.000 HD
BRANCH  22  24
ATOM     24  O   UNL     1     -17.243  41.094  -1.855  0.00  0.00    +0.000 OA
ATOM     25  H   UNL     1     -17.157  40.591  -2.694  0.00  0.00    +0.000 HD
ENDBRANCH  22  24
ENDBRANCH  19  20
ENDBRANCH   3  18
TORSDOF 6
ENDMDL
MODEL 5
REMARK VINA RESULT:      -5.6     16.355     19.475
REMARK  Name = Belinostat.pdbqt.pdb
REMARK  6 active torsions:
REMARK  status: ('A' for Active; 'I' for Inactive)
REMARK    1  A    between atoms: C_1  and  S_7
REMARK    2  A    between atoms: C_3  and  C_18
REMARK    3  A    between atoms: S_7  and  N_10
REMARK    4  A    between atoms: N_10  and  C_12
REMARK    5  A    between atoms: C_19  and  C_20
REMARK    6  A    between atoms: N_22  and  O_24
REMARK                            x       y       z     vdW  Elec       q    Type
REMARK                         _______ _______ _______ _____ _____    ______ ____
ROOT
ATOM      1  C   UNL     1     -21.029  37.542  -8.247  0.00  0.00    +0.000 A 
ATOM      2  C   UNL     1     -21.104  37.744  -6.873  0.00  0.00    +0.000 A 
ATOM      3  C   UNL     1     -20.084  38.443  -6.236  0.00  0.00    +0.000 A 
ATOM      4  C   UNL     1     -19.974  38.049  -8.999  0.00  0.00    +0.000 A 
ATOM      5  C   UNL     1     -19.011  38.945  -6.973  0.00  0.00    +0.000 A 
ATOM      6  C   UNL     1     -18.958  38.749  -8.354  0.00  0.00    +0.000 A 
ENDROOT
BRANCH   1   7
ATOM      7  S   UNL     1     -22.330  36.696  -9.067  0.00  0.00    +0.000 S 
ATOM      8  O   UNL     1     -23.453  36.657  -8.154  0.00  0.00    +0.000 OA
ATOM      9  O   UNL     1     -21.790  35.483  -9.641  0.00  0.00    +0.000 OA
BRANCH   7  10
ATOM     10  N   UNL     1     -22.759  37.746 -10.300  0.00  0.00    +0.000 N 
ATOM     11  H   UNL     1     -22.323  37.542 -11.199  0.00  0.00    +0.000 HD
BRANCH  10  12
ATOM     12  C   UNL     1     -23.914  38.577 -10.253  0.00  0.00    +0.000 A 
ATOM     13  C   UNL     1     -23.905  39.848  -9.683  0.00  0.00    +0.000 A 
ATOM     14  C   UNL     1     -25.041  40.653  -9.737  0.00  0.00    +0.000 A 
ATOM     15  C   UNL     1     -26.184  40.198 -10.387  0.00  0.00    +0.000 A 
ATOM     16  C   UNL     1     -26.188  38.943 -10.990  0.00  0.00    +0.000 A 
ATOM     17  C   UNL     1     -25.051  38.142 -10.934  0.00  0.00    +0.000 A 
ENDBRANCH  10  12
ENDBRANCH   7  10
ENDBRANCH   1   7
BRANCH   3  18
ATOM     18  C   UNL     1     -20.138  38.647  -4.825  0.00  0.00    +0.000 C 
ATOM     19  C   UNL     1     -20.185  38.822  -3.638  0.00  0.00    +0.000 C 
BRANCH  19  20
ATOM     20  C   UNL     1     -20.242  39.032  -2.213  0.00  0.00    +0.000 C 
ATOM     21  O   UNL     1     -19.215  39.221  -1.571  0.00  0.00    +0.000 OA
ATOM     22  N   UNL     1     -21.489  39.012  -1.655  0.00  0.00    +0.000 N 
ATOM     23  H   UNL     1     -22.351  38.915  -2.179  0.00  0.00    +0.000 HD
BRANCH  22  24
ATOM     24  O   UNL     1     -21.588  39.262  -0.269  0.00  0.00    +0.000 OA
ATOM     25  H   UNL     1     -20.737  39.709  -0.068  0.00  0.00    +0.000 HD
ENDBRANCH  22  24
ENDBRANCH  19  20
ENDBRANCH   3  18
TORSDOF 6
ENDMDL
MODEL 6
REMARK VINA RESULT:      -5.5      9.072     12.035
REMARK  Name = Belinostat.pdbqt.pdb
REMARK  6 active torsions:
REMARK  status: ('A' for Active; 'I' for Inactive)
REMARK    1  A    between atoms: C_1  and  S_7
REMARK    2  A    between atoms: C_3  and  C_18
REMARK    3  A    between atoms: S_7  and  N_10
REMARK    4  A    between atoms: N_10  and  C_12
REMARK    5  A    between atoms: C_19  and  C_20
REMARK    6  A    between atoms: N_22  and  O_24
REMARK                            x       y       z     vdW  Elec       q    Type
REMARK                         _______ _______ _______ _____ _____    ______ ____
ROOT
ATOM      1  C   UNL     1     -34.153  46.582 -14.975  0.00  0.00    +0.000 A 
ATOM      2  C   UNL     1     -33.201  46.088 -15.859  0.00  0.00    +0.000 A 
ATOM      3  C   UNL     1     -32.365  45.056 -15.444  0.00  0.00    +0.000 A 
ATOM      4  C   UNL     1     -34.308  46.048 -13.700  0.00  0.00    +0.000 A 
ATOM      5  C   UNL     1     -32.496  44.520 -14.163  0.00  0.00    +0.000 A 
ATOM      6  C   UNL     1     -33.468  45.015 -13.293  0.00  0.00    +0.000 A 
ENDROOT
BRANCH   1   7
ATOM      7  S   UNL     1     -35.241  47.856 -15.502  0.00  0.00    +0.000 S 
ATOM      8  O   UNL     1     -35.481  48.709 -14.358  0.00  0.00    +0.000 OA
ATOM      9  O   UNL     1     -36.336  47.246 -16.223  0.00  0.00    +0.000 OA
BRANCH   7  10
ATOM     10  N   UNL     1     -34.306  48.747 -16.569  0.00  0.00    +0.000 N 
ATOM     11  H   UNL     1     -33.356  48.927 -16.249  0.00  0.00    +0.000 HD
BRANCH  10  12
ATOM     12  C   UNL     1     -34.621  48.894 -17.950  0.00  0.00    +0.000 A 
ATOM     13  C   UNL     1     -35.289  50.006 -18.457  0.00  0.00    +0.000 A 
ATOM     14  C   UNL     1     -35.500  50.138 -19.827  0.00  0.00    +0.000 A 
ATOM     15  C   UNL     1     -35.018  49.168 -20.701  0.00  0.00    +0.000 A 
ATOM     16  C   UNL     1     -34.318  48.072 -20.204  0.00  0.00    +0.000 A 
ATOM     17  C   UNL     1     -34.110  47.943 -18.833  0.00  0.00    +0.000 A 
ENDBRANCH  10  12
ENDBRANCH   7  10
ENDBRANCH   1   7
BRANCH   3  18
ATOM     18  C   UNL     1     -31.372  44.547 -16.332  0.00  0.00    +0.000 C 
ATOM     19  C   UNL     1     -30.535  44.117 -17.078  0.00  0.00    +0.000 C 
BRANCH  19  20
ATOM     20  C   UNL     1     -29.529  43.600 -17.972  0.00  0.00    +0.000 C 
ATOM     21  O   UNL     1     -28.827  42.653 -17.638  0.00  0.00    +0.000 OA
ATOM     22  N   UNL     1     -29.430  44.223 -19.185  0.00  0.00    +0.000 N 
ATOM     23  H   UNL     1     -30.041  44.968 -19.499  0.00  0.00    +0.000 HD
BRANCH  22  24
ATOM     24  O   UNL     1     -28.489  43.713 -20.106  0.00  0.00    +0.000 OA
ATOM     25  H   UNL     1     -28.752  44.149 -20.946  0.00  0.00    +0.000 HD
ENDBRANCH  22  24
ENDBRANCH  19  20
ENDBRANCH   3  18
TORSDOF 6
ENDMDL
MODEL 7
REMARK VINA RESULT:      -5.5      6.345      9.452
REMARK  Name = Belinostat.pdbqt.pdb
REMARK  6 active torsions:
REMARK  status: ('A' for Active; 'I' for Inactive)
REMARK    1  A    between atoms: C_1  and  S_7
REMARK    2  A    between atoms: C_3  and  C_18
REMARK    3  A    between atoms: S_7  and  N_10
REMARK    4  A    between atoms: N_10  and  C_12
REMARK    5  A    between atoms: C_19  and  C_20
REMARK    6  A    between atoms: N_22  and  O_24
REMARK                            x       y       z     vdW  Elec       q    Type
REMARK                         _______ _______ _______ _____ _____    ______ ____
ROOT
ATOM      1  C   UNL     1     -34.677  45.388 -12.677  0.00  0.00    +0.000 A 
ATOM      2  C   UNL     1     -34.060  45.178 -11.449  0.00  0.00    +0.000 A 
ATOM      3  C   UNL     1     -34.718  45.569 -10.287  0.00  0.00    +0.000 A 
ATOM      4  C   UNL     1     -35.946  45.951 -12.765  0.00  0.00    +0.000 A 
ATOM      5  C   UNL     1     -35.985  46.148 -10.359  0.00  0.00    +0.000 A 
ATOM      6  C   UNL     1     -36.598  46.337 -11.598  0.00  0.00    +0.000 A 
ENDROOT
BRANCH   1   7
ATOM      7  S   UNL     1     -33.874  44.862 -14.147  0.00  0.00    +0.000 S 
ATOM      8  O   UNL     1     -34.909  44.540 -15.104  0.00  0.00    +0.000 OA
ATOM      9  O   UNL     1     -32.860  43.895 -13.787  0.00  0.00    +0.000 OA
BRANCH   7  10
ATOM     10  N   UNL     1     -33.131  46.257 -14.703  0.00  0.00    +0.000 N 
ATOM     11  H   UNL     1     -32.187  46.403 -14.350  0.00  0.00    +0.000 HD
BRANCH  10  12
ATOM     12  C   UNL     1     -33.564  46.964 -15.860  0.00  0.00    +0.000 A 
ATOM     13  C   UNL     1     -33.196  46.595 -17.152  0.00  0.00    +0.000 A 
ATOM     14  C   UNL     1     -33.714  47.271 -18.254  0.00  0.00    +0.000 A 
ATOM     15  C   UNL     1     -34.626  48.305 -18.068  0.00  0.00    +0.000 A 
ATOM     16  C   UNL     1     -35.027  48.655 -16.782  0.00  0.00    +0.000 A 
ATOM     17  C   UNL     1     -34.506  47.977 -15.683  0.00  0.00    +0.000 A 
ENDBRANCH  10  12
ENDBRANCH   7  10
ENDBRANCH   1   7
BRANCH   3  18
ATOM     18  C   UNL     1     -34.094  45.374  -9.019  0.00  0.00    +0.000 C 
ATOM     19  C   UNL     1     -33.566  45.209  -7.953  0.00  0.00    +0.000 C 
BRANCH  19  20
ATOM     20  C   UNL     1     -32.932  45.011  -6.673  0.00  0.00    +0.000 C 
ATOM     21  O   UNL     1     -32.654  45.970  -5.962  0.00  0.00    +0.000 OA
ATOM     22  N   UNL     1     -32.681  43.714  -6.324  0.00  0.00    +0.000 N 
ATOM     23  H   UNL     1     -32.956  42.908  -6.874  0.00  0.00    +0.000 HD
BRANCH  22  24
ATOM     24  O   UNL     1     -32.105  43.478  -5.057  0.00  0.00    +0.000 OA
ATOM     25  H   UNL     1     -31.932  42.512  -5.075  0.00  0.00    +0.000 HD
ENDBRANCH  22  24
ENDBRANCH  19  20
ENDBRANCH   3  18
TORSDOF 6
ENDMDL
MODEL 8
REMARK VINA RESULT:      -5.5      1.578      2.047
REMARK  Name = Belinostat.pdbqt.pdb
REMARK  6 active torsions:
REMARK  status: ('A' for Active; 'I' for Inactive)
REMARK    1  A    between atoms: C_1  and  S_7
REMARK    2  A    between atoms: C_3  and  C_18
REMARK    3  A    between atoms: S_7  and  N_10
REMARK    4  A    between atoms: N_10  and  C_12
REMARK    5  A    between atoms: C_19  and  C_20
REMARK    6  A    between atoms: N_22  and  O_24
REMARK                            x       y       z     vdW  Elec       q    Type
REMARK                         _______ _______ _______ _____ _____    ______ ____
ROOT
ATOM      1  C   UNL     1     -39.999  50.289  -7.590  0.00  0.00    +0.000 A 
ATOM      2  C   UNL     1     -38.853  49.502  -7.558  0.00  0.00    +0.000 A 
ATOM      3  C   UNL     1     -38.498  48.781  -8.694  0.00  0.00    +0.000 A 
ATOM      4  C   UNL     1     -40.777  50.393  -8.738  0.00  0.00    +0.000 A 
ATOM      5  C   UNL     1     -39.276  48.862  -9.848  0.00  0.00    +0.000 A 
ATOM      6  C   UNL     1     -40.414  49.670  -9.870  0.00  0.00    +0.000 A 
ENDROOT
BRANCH   1   7
ATOM      7  S   UNL     1     -40.434  51.235  -6.176  0.00  0.00    +0.000 S 
ATOM      8  O   UNL     1     -41.793  50.877  -5.828  0.00  0.00    +0.000 OA
ATOM      9  O   UNL     1     -40.063  52.612  -6.422  0.00  0.00    +0.000 OA
BRANCH   7  10
ATOM     10  N   UNL     1     -39.455  50.606  -4.972  0.00  0.00    +0.000 N 
ATOM     11  H   UNL     1     -38.598  51.133  -4.806  0.00  0.00    +0.000 HD
BRANCH  10  12
ATOM     12  C   UNL     1     -39.920  49.694  -3.983  0.00  0.00    +0.000 A 
ATOM     13  C   UNL     1     -39.951  48.316  -4.182  0.00  0.00    +0.000 A 
ATOM     14  C   UNL     1     -40.338  47.462  -3.152  0.00  0.00    +0.000 A 
ATOM     15  C   UNL     1     -40.671  47.984  -1.906  0.00  0.00    +0.000 A 
ATOM     16  C   UNL     1     -40.608  49.358  -1.689  0.00  0.00    +0.000 A 
ATOM     17  C   UNL     1     -40.221  50.208  -2.721  0.00  0.00    +0.000 A 
ENDBRANCH  10  12
ENDBRANCH   7  10
ENDBRANCH   1   7
BRANCH   3  18
ATOM     18  C   UNL     1     -37.334  47.956  -8.675  0.00  0.00    +0.000 C 
ATOM     19  C   UNL     1     -36.353  47.263  -8.656  0.00  0.00    +0.000 C 
BRANCH  19  20
ATOM     20  C   UNL     1     -35.176  46.431  -8.633  0.00  0.00    +0.000 C 
ATOM     21  O   UNL     1     -34.980  45.607  -9.518  0.00  0.00    +0.000 OA
ATOM     22  N   UNL     1     -34.322  46.633  -7.585  0.00  0.00    +0.000 N 
ATOM     23  H   UNL     1     -34.440  47.348  -6.877  0.00  0.00    +0.000 HD
BRANCH  22  24
ATOM     24  O   UNL     1     -33.134  45.870  -7.555  0.00  0.00    +0.000 OA
ATOM     25  H   UNL     1     -32.470  46.516  -7.230  0.00  0.00    +0.000 HD
ENDBRANCH  22  24
ENDBRANCH  19  20
ENDBRANCH   3  18
TORSDOF 6
ENDMDL
MODEL 9
REMARK VINA RESULT:      -5.5     23.658     25.174
REMARK  Name = Belinostat.pdbqt.pdb
REMARK  6 active torsions:
REMARK  status: ('A' for Active; 'I' for Inactive)
REMARK    1  A    between atoms: C_1  and  S_7
REMARK    2  A    between atoms: C_3  and  C_18
REMARK    3  A    between atoms: S_7  and  N_10
REMARK    4  A    between atoms: N_10  and  C_12
REMARK    5  A    between atoms: C_19  and  C_20
REMARK    6  A    between atoms: N_22  and  O_24
REMARK                            x       y       z     vdW  Elec       q    Type
REMARK                         _______ _______ _______ _____ _____    ______ ____
ROOT
ATOM      1  C   UNL     1     -16.866  50.526   3.941  0.00  0.00    +0.000 A 
ATOM      2  C   UNL     1     -17.429  51.661   4.514  0.00  0.00    +0.000 A 
ATOM      3  C   UNL     1     -17.599  51.706   5.894  0.00  0.00    +0.000 A 
ATOM      4  C   UNL     1     -16.443  49.453   4.718  0.00  0.00    +0.000 A 
ATOM      5  C   UNL     1     -17.195  50.633   6.687  0.00  0.00    +0.000 A 
ATOM      6  C   UNL     1     -16.615  49.507   6.098  0.00  0.00    +0.000 A 
ENDROOT
BRANCH   1   7
ATOM      7  S   UNL     1     -16.609  50.474   2.205  0.00  0.00    +0.000 S 
ATOM      8  O   UNL     1     -17.590  51.353   1.604  0.00  0.00    +0.000 OA
ATOM      9  O   UNL     1     -16.504  49.087   1.805  0.00  0.00    +0.000 OA
BRANCH   7  10
ATOM     10  N   UNL     1     -15.122  51.219   2.009  0.00  0.00    +0.000 N 
ATOM     11  H   UNL     1     -14.347  50.579   1.843  0.00  0.00    +0.000 HD
BRANCH  10  12
ATOM     12  C   UNL     1     -14.975  52.597   1.683  0.00  0.00    +0.000 A 
ATOM     13  C   UNL     1     -15.138  53.615   2.621  0.00  0.00    +0.000 A 
ATOM     14  C   UNL     1     -14.902  54.942   2.269  0.00  0.00    +0.000 A 
ATOM     15  C   UNL     1     -14.475  55.254   0.981  0.00  0.00    +0.000 A 
ATOM     16  C   UNL     1     -14.276  54.238   0.051  0.00  0.00    +0.000 A 
ATOM     17  C   UNL     1     -14.513  52.913   0.406  0.00  0.00    +0.000 A 
ENDBRANCH  10  12
ENDBRANCH   7  10
ENDBRANCH   1   7
BRANCH   3  18
ATOM     18  C   UNL     1     -18.188  52.857   6.498  0.00  0.00    +0.000 C 
ATOM     19  C   UNL     1     -18.685  53.826   7.004  0.00  0.00    +0.000 C 
BRANCH  19  20
ATOM     20  C   UNL     1     -19.281  54.991   7.610  0.00  0.00    +0.000 C 
ATOM     21  O   UNL     1     -18.586  55.805   8.208  0.00  0.00    +0.000 OA
ATOM     22  N   UNL     1     -20.634  55.115   7.463  0.00  0.00    +0.000 N 
ATOM     23  H   UNL     1     -21.213  54.482   6.924  0.00  0.00    +0.000 HD
BRANCH  22  24
ATOM     24  O   UNL     1     -21.246  56.267   8.003  0.00  0.00    +0.000 OA
ATOM     25  H   UNL     1     -22.201  56.038   7.973  0.00  0.00    +0.000 HD
ENDBRANCH  22  24
ENDBRANCH  19  20
ENDBRANCH   3  18
TORSDOF 6
ENDMDL
