MODEL 1
REMARK VINA RESULT:      -7.6      0.000      0.000
REMARK  Name = Benzo[a]pyrene.pdbqt.pdb
REMARK  0 active torsions:
REMARK  status: ('A' for Active; 'I' for Inactive)
REMARK                            x       y       z     vdW  Elec       q    Type
REMARK                         _______ _______ _______ _____ _____    ______ ____
ROOT
ATOM      1  C   UNL     1     -16.289  55.653 -23.580  0.00  0.00    +0.000 A 
ATOM      2  C   UNL     1     -16.228  54.637 -24.559  0.00  0.00    +0.000 A 
ATOM      3  C   UNL     1     -16.776  56.938 -23.912  0.00  0.00    +0.000 A 
ATOM      4  C   UNL     1     -15.857  55.369 -22.267  0.00  0.00    +0.000 A 
ATOM      5  C   UNL     1     -16.826  57.938 -22.910  0.00  0.00    +0.000 A 
ATOM      6  C   UNL     1     -16.654  54.899 -25.877  0.00  0.00    +0.000 A 
ATOM      7  C   UNL     1     -15.740  53.357 -24.223  0.00  0.00    +0.000 A 
ATOM      8  C   UNL     1     -16.389  57.633 -21.601  0.00  0.00    +0.000 A 
ATOM      9  C   UNL     1     -15.912  56.361 -21.294  0.00  0.00    +0.000 A 
ATOM     10  C   UNL     1     -17.193  57.164 -25.235  0.00  0.00    +0.000 A 
ATOM     11  C   UNL     1     -15.377  54.099 -21.949  0.00  0.00    +0.000 A 
ATOM     12  C   UNL     1     -17.135  56.164 -26.205  0.00  0.00    +0.000 A 
ATOM     13  C   UNL     1     -15.319  53.099 -22.919  0.00  0.00    +0.000 A 
ATOM     14  C   UNL     1     -16.590  53.890 -26.837  0.00  0.00    +0.000 A 
ATOM     15  C   UNL     1     -15.684  52.361 -25.197  0.00  0.00    +0.000 A 
ATOM     16  C   UNL     1     -17.297  59.238 -23.160  0.00  0.00    +0.000 A 
ATOM     17  C   UNL     1     -16.429  58.602 -20.599  0.00  0.00    +0.000 A 
ATOM     18  C   UNL     1     -16.108  52.626 -26.499  0.00  0.00    +0.000 A 
ATOM     19  C   UNL     1     -17.335  60.202 -22.155  0.00  0.00    +0.000 A 
ATOM     20  C   UNL     1     -16.901  59.883 -20.874  0.00  0.00    +0.000 A 
ENDROOT
TORSDOF 0
ENDMDL
MODEL 2
REMARK VINA RESULT:      -7.6      2.140      5.943
REMARK  Name = Benzo[a]pyrene.pdbqt.pdb
REMARK  0 active torsions:
REMARK  status: ('A' for Active; 'I' for Inactive)
REMARK                            x       y       z     vdW  Elec       q    Type
REMARK                         _______ _______ _______ _____ _____    ______ ____
ROOT
ATOM      1  C   UNL     1     -16.865  54.151 -26.333  0.00  0.00    +0.000 A 
ATOM      2  C   UNL     1     -16.346  54.383 -25.040  0.00  0.00    +0.000 A 
ATOM      3  C   UNL     1     -17.498  55.193 -27.047  0.00  0.00    +0.000 A 
ATOM      4  C   UNL     1     -16.744  52.865 -26.901  0.00  0.00    +0.000 A 
ATOM      5  C   UNL     1     -18.010  54.932 -28.342  0.00  0.00    +0.000 A 
ATOM      6  C   UNL     1     -16.457  55.660 -24.454  0.00  0.00    +0.000 A 
ATOM      7  C   UNL     1     -15.715  53.339 -24.331  0.00  0.00    +0.000 A 
ATOM      8  C   UNL     1     -17.878  53.637 -28.894  0.00  0.00    +0.000 A 
ATOM      9  C   UNL     1     -17.251  52.623 -28.174  0.00  0.00    +0.000 A 
ATOM     10  C   UNL     1     -17.591  56.454 -26.432  0.00  0.00    +0.000 A 
ATOM     11  C   UNL     1     -16.118  51.843 -26.189  0.00  0.00    +0.000 A 
ATOM     12  C   UNL     1     -17.080  56.688 -25.157  0.00  0.00    +0.000 A 
ATOM     13  C   UNL     1     -15.607  52.077 -24.913  0.00  0.00    +0.000 A 
ATOM     14  C   UNL     1     -15.941  55.880 -23.177  0.00  0.00    +0.000 A 
ATOM     15  C   UNL     1     -15.206  53.580 -23.056  0.00  0.00    +0.000 A 
ATOM     16  C   UNL     1     -18.652  55.913 -29.116  0.00  0.00    +0.000 A 
ATOM     17  C   UNL     1     -18.374  53.357 -30.167  0.00  0.00    +0.000 A 
ATOM     18  C   UNL     1     -15.319  54.845 -22.481  0.00  0.00    +0.000 A 
ATOM     19  C   UNL     1     -19.145  55.628 -30.387  0.00  0.00    +0.000 A 
ATOM     20  C   UNL     1     -19.006  54.349 -30.912  0.00  0.00    +0.000 A 
ENDROOT
TORSDOF 0
ENDMDL
MODEL 3
REMARK VINA RESULT:      -7.6      2.521      5.430
REMARK  Name = Benzo[a]pyrene.pdbqt.pdb
REMARK  0 active torsions:
REMARK  status: ('A' for Active; 'I' for Inactive)
REMARK                            x       y       z     vdW  Elec       q    Type
REMARK                         _______ _______ _______ _____ _____    ______ ____
ROOT
ATOM      1  C   UNL     1     -17.616  55.022 -27.395  0.00  0.00    +0.000 A 
ATOM      2  C   UNL     1     -18.195  54.744 -28.653  0.00  0.00    +0.000 A 
ATOM      3  C   UNL     1     -17.048  53.983 -26.623  0.00  0.00    +0.000 A 
ATOM      4  C   UNL     1     -17.611  56.351 -26.920  0.00  0.00    +0.000 A 
ATOM      5  C   UNL     1     -16.474  54.291 -25.365  0.00  0.00    +0.000 A 
ATOM      6  C   UNL     1     -18.210  53.424 -29.146  0.00  0.00    +0.000 A 
ATOM      7  C   UNL     1     -18.760  55.785 -29.419  0.00  0.00    +0.000 A 
ATOM      8  C   UNL     1     -16.479  55.629 -24.907  0.00  0.00    +0.000 A 
ATOM      9  C   UNL     1     -17.043  56.638 -25.683  0.00  0.00    +0.000 A 
ATOM     10  C   UNL     1     -17.081  52.679 -27.146  0.00  0.00    +0.000 A 
ATOM     11  C   UNL     1     -18.172  57.370 -27.688  0.00  0.00    +0.000 A 
ATOM     12  C   UNL     1     -17.652  52.399 -28.387  0.00  0.00    +0.000 A 
ATOM     13  C   UNL     1     -18.743  57.090 -28.929  0.00  0.00    +0.000 A 
ATOM     14  C   UNL     1     -18.785  53.158 -30.389  0.00  0.00    +0.000 A 
ATOM     15  C   UNL     1     -19.329  55.499 -30.659  0.00  0.00    +0.000 A 
ATOM     16  C   UNL     1     -15.891  53.315 -24.539  0.00  0.00    +0.000 A 
ATOM     17  C   UNL     1     -15.920  55.954 -23.672  0.00  0.00    +0.000 A 
ATOM     18  C   UNL     1     -19.341  54.191 -31.142  0.00  0.00    +0.000 A 
ATOM     19  C   UNL     1     -15.333  53.647 -23.306  0.00  0.00    +0.000 A 
ATOM     20  C   UNL     1     -15.348  54.968 -22.873  0.00  0.00    +0.000 A 
ENDROOT
TORSDOF 0
ENDMDL
MODEL 4
REMARK VINA RESULT:      -7.6      0.825      3.044
REMARK  Name = Benzo[a]pyrene.pdbqt.pdb
REMARK  0 active torsions:
REMARK  status: ('A' for Active; 'I' for Inactive)
REMARK                            x       y       z     vdW  Elec       q    Type
REMARK                         _______ _______ _______ _____ _____    ______ ____
ROOT
ATOM      1  C   UNL     1     -16.354  56.374 -23.151  0.00  0.00    +0.000 A 
ATOM      2  C   UNL     1     -16.062  55.080 -23.636  0.00  0.00    +0.000 A 
ATOM      3  C   UNL     1     -16.170  56.683 -21.784  0.00  0.00    +0.000 A 
ATOM      4  C   UNL     1     -16.832  57.352 -24.048  0.00  0.00    +0.000 A 
ATOM      5  C   UNL     1     -16.471  57.989 -21.325  0.00  0.00    +0.000 A 
ATOM      6  C   UNL     1     -15.583  54.087 -22.757  0.00  0.00    +0.000 A 
ATOM      7  C   UNL     1     -16.248  54.776 -25.001  0.00  0.00    +0.000 A 
ATOM      8  C   UNL     1     -16.948  58.955 -22.240  0.00  0.00    +0.000 A 
ATOM      9  C   UNL     1     -17.123  58.630 -23.583  0.00  0.00    +0.000 A 
ATOM     10  C   UNL     1     -15.691  55.670 -20.936  0.00  0.00    +0.000 A 
ATOM     11  C   UNL     1     -17.010  57.037 -25.395  0.00  0.00    +0.000 A 
ATOM     12  C   UNL     1     -15.402  54.391 -21.411  0.00  0.00    +0.000 A 
ATOM     13  C   UNL     1     -16.721  55.759 -25.869  0.00  0.00    +0.000 A 
ATOM     14  C   UNL     1     -15.298  52.813 -23.245  0.00  0.00    +0.000 A 
ATOM     15  C   UNL     1     -15.956  53.495 -25.470  0.00  0.00    +0.000 A 
ATOM     16  C   UNL     1     -16.314  58.375 -19.983  0.00  0.00    +0.000 A 
ATOM     17  C   UNL     1     -17.251  60.247 -21.810  0.00  0.00    +0.000 A 
ATOM     18  C   UNL     1     -15.483  52.518 -24.595  0.00  0.00    +0.000 A 
ATOM     19  C   UNL     1     -16.618  59.667 -19.560  0.00  0.00    +0.000 A 
ATOM     20  C   UNL     1     -17.087  60.603 -20.474  0.00  0.00    +0.000 A 
ENDROOT
TORSDOF 0
ENDMDL
MODEL 5
REMARK VINA RESULT:      -7.5      2.583      6.169
REMARK  Name = Benzo[a]pyrene.pdbqt.pdb
REMARK  0 active torsions:
REMARK  status: ('A' for Active; 'I' for Inactive)
REMARK                            x       y       z     vdW  Elec       q    Type
REMARK                         _______ _______ _______ _____ _____    ______ ____
ROOT
ATOM      1  C   UNL     1     -16.964  54.178 -26.566  0.00  0.00    +0.000 A 
ATOM      2  C   UNL     1     -16.289  53.580 -25.479  0.00  0.00    +0.000 A 
ATOM      3  C   UNL     1     -17.311  53.412 -27.701  0.00  0.00    +0.000 A 
ATOM      4  C   UNL     1     -17.288  55.550 -26.502  0.00  0.00    +0.000 A 
ATOM      5  C   UNL     1     -17.988  54.038 -28.777  0.00  0.00    +0.000 A 
ATOM      6  C   UNL     1     -15.956  52.211 -25.521  0.00  0.00    +0.000 A 
ATOM      7  C   UNL     1     -15.945  54.350 -24.347  0.00  0.00    +0.000 A 
ATOM      8  C   UNL     1     -18.303  55.413 -28.694  0.00  0.00    +0.000 A 
ATOM      9  C   UNL     1     -17.953  56.151 -27.566  0.00  0.00    +0.000 A 
ATOM     10  C   UNL     1     -16.964  52.050 -27.710  0.00  0.00    +0.000 A 
ATOM     11  C   UNL     1     -16.942  56.298 -25.378  0.00  0.00    +0.000 A 
ATOM     12  C   UNL     1     -16.297  51.455 -26.639  0.00  0.00    +0.000 A 
ATOM     13  C   UNL     1     -16.275  55.704 -24.307  0.00  0.00    +0.000 A 
ATOM     14  C   UNL     1     -15.290  51.629 -24.443  0.00  0.00    +0.000 A 
ATOM     15  C   UNL     1     -15.279  53.749 -23.280  0.00  0.00    +0.000 A 
ATOM     16  C   UNL     1     -18.367  53.345 -29.939  0.00  0.00    +0.000 A 
ATOM     17  C   UNL     1     -18.969  56.050 -29.741  0.00  0.00    +0.000 A 
ATOM     18  C   UNL     1     -14.952  52.394 -23.328  0.00  0.00    +0.000 A 
ATOM     19  C   UNL     1     -19.032  53.987 -30.982  0.00  0.00    +0.000 A 
ATOM     20  C   UNL     1     -19.333  55.340 -30.882  0.00  0.00    +0.000 A 
ENDROOT
TORSDOF 0
ENDMDL
MODEL 6
REMARK VINA RESULT:      -7.5      0.936      5.673
REMARK  Name = Benzo[a]pyrene.pdbqt.pdb
REMARK  0 active torsions:
REMARK  status: ('A' for Active; 'I' for Inactive)
REMARK                            x       y       z     vdW  Elec       q    Type
REMARK                         _______ _______ _______ _____ _____    ______ ____
ROOT
ATOM      1  C   UNL     1     -16.161  54.687 -24.148  0.00  0.00    +0.000 A 
ATOM      2  C   UNL     1     -16.378  55.900 -23.458  0.00  0.00    +0.000 A 
ATOM      3  C   UNL     1     -16.464  54.583 -25.525  0.00  0.00    +0.000 A 
ATOM      4  C   UNL     1     -15.638  53.580 -23.445  0.00  0.00    +0.000 A 
ATOM      5  C   UNL     1     -16.236  53.354 -26.192  0.00  0.00    +0.000 A 
ATOM      6  C   UNL     1     -16.899  57.017 -24.140  0.00  0.00    +0.000 A 
ATOM      7  C   UNL     1     -16.074  55.997 -22.084  0.00  0.00    +0.000 A 
ATOM      8  C   UNL     1     -15.712  52.258 -25.469  0.00  0.00    +0.000 A 
ATOM      9  C   UNL     1     -15.420  52.380 -24.114  0.00  0.00    +0.000 A 
ATOM     10  C   UNL     1     -16.982  55.717 -26.174  0.00  0.00    +0.000 A 
ATOM     11  C   UNL     1     -15.343  53.692 -22.087  0.00  0.00    +0.000 A 
ATOM     12  C   UNL     1     -17.198  56.916 -25.496  0.00  0.00    +0.000 A 
ATOM     13  C   UNL     1     -15.558  54.891 -21.410  0.00  0.00    +0.000 A 
ATOM     14  C   UNL     1     -17.110  58.211 -23.451  0.00  0.00    +0.000 A 
ATOM     15  C   UNL     1     -16.292  57.200 -21.412  0.00  0.00    +0.000 A 
ATOM     16  C   UNL     1     -16.511  53.171 -27.557  0.00  0.00    +0.000 A 
ATOM     17  C   UNL     1     -15.480  51.039 -26.106  0.00  0.00    +0.000 A 
ATOM     18  C   UNL     1     -16.808  58.302 -22.093  0.00  0.00    +0.000 A 
ATOM     19  C   UNL     1     -16.278  51.951 -28.187  0.00  0.00    +0.000 A 
ATOM     20  C   UNL     1     -15.762  50.884 -27.461  0.00  0.00    +0.000 A 
ENDROOT
TORSDOF 0
ENDMDL
MODEL 7
REMARK VINA RESULT:      -7.4      1.184      3.532
REMARK  Name = Benzo[a]pyrene.pdbqt.pdb
REMARK  0 active torsions:
REMARK  status: ('A' for Active; 'I' for Inactive)
REMARK                            x       y       z     vdW  Elec       q    Type
REMARK                         _______ _______ _______ _____ _____    ______ ____
ROOT
ATOM      1  C   UNL     1     -16.508  54.789 -25.143  0.00  0.00    +0.000 A 
ATOM      2  C   UNL     1     -16.493  53.847 -26.195  0.00  0.00    +0.000 A 
ATOM      3  C   UNL     1     -15.991  54.449 -23.872  0.00  0.00    +0.000 A 
ATOM      4  C   UNL     1     -17.046  56.072 -25.376  0.00  0.00    +0.000 A 
ATOM      5  C   UNL     1     -16.019  55.413 -22.834  0.00  0.00    +0.000 A 
ATOM      6  C   UNL     1     -15.961  52.559 -25.983  0.00  0.00    +0.000 A 
ATOM      7  C   UNL     1     -17.011  54.191 -27.462  0.00  0.00    +0.000 A 
ATOM      8  C   UNL     1     -16.562  56.693 -23.089  0.00  0.00    +0.000 A 
ATOM      9  C   UNL     1     -17.066  57.009 -24.348  0.00  0.00    +0.000 A 
ATOM     10  C   UNL     1     -15.468  53.156 -23.696  0.00  0.00    +0.000 A 
ATOM     11  C   UNL     1     -17.554  56.398 -26.633  0.00  0.00    +0.000 A 
ATOM     12  C   UNL     1     -15.452  52.223 -24.732  0.00  0.00    +0.000 A 
ATOM     13  C   UNL     1     -17.537  55.465 -27.669  0.00  0.00    +0.000 A 
ATOM     14  C   UNL     1     -15.951  51.636 -27.028  0.00  0.00    +0.000 A 
ATOM     15  C   UNL     1     -16.991  53.254 -28.494  0.00  0.00    +0.000 A 
ATOM     16  C   UNL     1     -15.525  55.153 -21.545  0.00  0.00    +0.000 A 
ATOM     17  C   UNL     1     -16.599  57.658 -22.083  0.00  0.00    +0.000 A 
ATOM     18  C   UNL     1     -16.463  51.981 -28.278  0.00  0.00    +0.000 A 
ATOM     19  C   UNL     1     -15.565  56.121 -20.544  0.00  0.00    +0.000 A 
ATOM     20  C   UNL     1     -16.102  57.374 -20.813  0.00  0.00    +0.000 A 
ENDROOT
TORSDOF 0
ENDMDL
MODEL 8
REMARK VINA RESULT:      -7.3      0.823      5.445
REMARK  Name = Benzo[a]pyrene.pdbqt.pdb
REMARK  0 active torsions:
REMARK  status: ('A' for Active; 'I' for Inactive)
REMARK                            x       y       z     vdW  Elec       q    Type
REMARK                         _______ _______ _______ _____ _____    ______ ____
ROOT
ATOM      1  C   UNL     1     -16.111  55.831 -22.889  0.00  0.00    +0.000 A 
ATOM      2  C   UNL     1     -16.410  57.158 -22.508  0.00  0.00    +0.000 A 
ATOM      3  C   UNL     1     -16.307  55.409 -24.224  0.00  0.00    +0.000 A 
ATOM      4  C   UNL     1     -15.616  54.933 -21.920  0.00  0.00    +0.000 A 
ATOM      5  C   UNL     1     -16.000  54.073 -24.578  0.00  0.00    +0.000 A 
ATOM      6  C   UNL     1     -16.906  58.071 -23.460  0.00  0.00    +0.000 A 
ATOM      7  C   UNL     1     -16.213  57.574 -21.174  0.00  0.00    +0.000 A 
ATOM      8  C   UNL     1     -15.504  53.189 -23.592  0.00  0.00    +0.000 A 
ATOM      9  C   UNL     1     -15.318  53.623 -22.283  0.00  0.00    +0.000 A 
ATOM     10  C   UNL     1     -16.803  56.346 -25.146  0.00  0.00    +0.000 A 
ATOM     11  C   UNL     1     -15.426  55.358 -20.606  0.00  0.00    +0.000 A 
ATOM     12  C   UNL     1     -17.099  57.657 -24.775  0.00  0.00    +0.000 A 
ATOM     13  C   UNL     1     -15.722  56.669 -20.234  0.00  0.00    +0.000 A 
ATOM     14  C   UNL     1     -17.198  59.379 -23.074  0.00  0.00    +0.000 A 
ATOM     15  C   UNL     1     -16.511  58.886 -20.809  0.00  0.00    +0.000 A 
ATOM     16  C   UNL     1     -16.166  53.577 -25.882  0.00  0.00    +0.000 A 
ATOM     17  C   UNL     1     -15.194  51.869 -23.919  0.00  0.00    +0.000 A 
ATOM     18  C   UNL     1     -17.001  59.785 -21.755  0.00  0.00    +0.000 A 
ATOM     19  C   UNL     1     -15.855  52.257 -26.202  0.00  0.00    +0.000 A 
ATOM     20  C   UNL     1     -15.369  51.403 -25.220  0.00  0.00    +0.000 A 
ENDROOT
TORSDOF 0
ENDMDL
MODEL 9
REMARK VINA RESULT:      -7.0     24.815     25.707
REMARK  Name = Benzo[a]pyrene.pdbqt.pdb
REMARK  0 active torsions:
REMARK  status: ('A' for Active; 'I' for Inactive)
REMARK                            x       y       z     vdW  Elec       q    Type
REMARK                         _______ _______ _______ _____ _____    ______ ____
ROOT
ATOM      1  C   UNL     1     -34.969  45.723  -9.956  0.00  0.00    +0.000 A 
ATOM      2  C   UNL     1     -35.826  46.115 -11.009  0.00  0.00    +0.000 A 
ATOM      3  C   UNL     1     -35.283  46.055  -8.618  0.00  0.00    +0.000 A 
ATOM      4  C   UNL     1     -33.798  44.997 -10.257  0.00  0.00    +0.000 A 
ATOM      5  C   UNL     1     -34.406  45.650  -7.582  0.00  0.00    +0.000 A 
ATOM      6  C   UNL     1     -37.001  46.841 -10.730  0.00  0.00    +0.000 A 
ATOM      7  C   UNL     1     -35.508  45.781 -12.342  0.00  0.00    +0.000 A 
ATOM      8  C   UNL     1     -33.237  44.923  -7.905  0.00  0.00    +0.000 A 
ATOM      9  C   UNL     1     -32.946  44.606  -9.229  0.00  0.00    +0.000 A 
ATOM     10  C   UNL     1     -36.463  46.780  -8.377  0.00  0.00    +0.000 A 
ATOM     11  C   UNL     1     -33.497  44.674 -11.580  0.00  0.00    +0.000 A 
ATOM     12  C   UNL     1     -37.311  47.168  -9.413  0.00  0.00    +0.000 A 
ATOM     13  C   UNL     1     -34.345  45.063 -12.616  0.00  0.00    +0.000 A 
ATOM     14  C   UNL     1     -37.840  47.223 -11.776  0.00  0.00    +0.000 A 
ATOM     15  C   UNL     1     -36.360  46.172 -13.374  0.00  0.00    +0.000 A 
ATOM     16  C   UNL     1     -34.647  45.940  -6.229  0.00  0.00    +0.000 A 
ATOM     17  C   UNL     1     -32.360  44.514  -6.901  0.00  0.00    +0.000 A 
ATOM     18  C   UNL     1     -37.522  46.891 -13.092  0.00  0.00    +0.000 A 
ATOM     19  C   UNL     1     -33.767  45.529  -5.230  0.00  0.00    +0.000 A 
ATOM     20  C   UNL     1     -32.623  44.815  -5.567  0.00  0.00    +0.000 A 
ENDROOT
TORSDOF 0
ENDMDL
