MODEL 1
REMARK VINA RESULT:      -6.2      0.000      0.000
REMARK  Name = Bicalutamide.pdbqt.pdb
REMARK  8 active torsions:
REMARK  status: ('A' for Active; 'I' for Inactive)
REMARK    1  A    between atoms: C_2  and  N_13
REMARK    2  A    between atoms: C_5  and  C_9
REMARK    3  A    between atoms: C_6  and  C_8
REMARK    4  A    between atoms: C_14  and  C_17
REMARK    5  A    between atoms: C_17  and  O_19
REMARK    6  A    between atoms: C_17  and  C_21
REMARK    7  A    between atoms: C_21  and  S_22
REMARK    8  A    between atoms: S_22  and  C_25
REMARK                            x       y       z     vdW  Elec       q    Type
REMARK                         _______ _______ _______ _____ _____    ______ ____
ROOT
ATOM      1  N   UNL     1     -33.264  43.843 -10.809  0.00  0.00    +0.000 N 
ATOM      2  C   UNL     1     -33.978  44.675 -11.667  0.00  0.00    +0.000 C 
ATOM      3  O   UNL     1     -34.953  45.357 -11.335  0.00  0.00    +0.000 OA
ATOM      4  H   UNL     1     -32.419  43.415 -11.189  0.00  0.00    +0.000 HD
ENDROOT
BRANCH   1   5
ATOM      5  C   UNL     1     -33.555  43.609  -9.455  0.00  0.00    +0.000 A 
ATOM      6  C   UNL     1     -33.158  44.574  -8.529  0.00  0.00    +0.000 A 
ATOM      7  C   UNL     1     -34.202  42.462  -9.007  0.00  0.00    +0.000 A 
ATOM      8  C   UNL     1     -33.403  44.411  -7.160  0.00  0.00    +0.000 A 
ATOM      9  C   UNL     1     -34.058  43.251  -6.723  0.00  0.00    +0.000 A 
ATOM     10  C   UNL     1     -34.453  42.284  -7.648  0.00  0.00    +0.000 A 
BRANCH   8  11
ATOM     11  C   UNL     1     -32.955  45.481  -6.207  0.00  0.00    +0.000 C 
ATOM     12  F   UNL     1     -33.986  46.082  -5.552  0.00  0.00    +0.000 F 
ATOM     13  F   UNL     1     -32.132  44.999  -5.239  0.00  0.00    +0.000 F 
ATOM     14  F   UNL     1     -32.278  46.481  -6.830  0.00  0.00    +0.000 F 
ENDBRANCH   8  11
BRANCH   9  16
ATOM     15  N   UNL     1     -34.581  42.830  -4.220  0.00  0.00    +0.000 NA
ATOM     16  C   UNL     1     -34.345  43.011  -5.341  0.00  0.00    +0.000 C 
ENDBRANCH   9  16
ENDBRANCH   1   5
BRANCH   2  17
ATOM     17  C   UNL     1     -33.486  44.675 -13.171  0.00  0.00    +0.000 C 
ATOM     18  C   UNL     1     -33.598  43.259 -13.803  0.00  0.00    +0.000 C 
BRANCH  17  19
ATOM     19  O   UNL     1     -32.122  45.059 -13.243  0.00  0.00    +0.000 OA
ATOM     20  H   UNL     1     -31.660  44.267 -13.577  0.00  0.00    +0.000 HD
ENDBRANCH  17  19
BRANCH  17  21
ATOM     21  C   UNL     1     -34.274  45.624 -13.896  0.00  0.00    +0.000 C 
BRANCH  21  22
ATOM     22  S   UNL     1     -35.383  46.731 -14.618  0.00  0.00    +0.000 S 
ATOM     23  O   UNL     1     -35.170  47.838 -13.720  0.00  0.00    +0.000 OA
ATOM     24  O   UNL     1     -36.525  45.850 -14.610  0.00  0.00    +0.000 OA
BRANCH  22  25
ATOM     25  C   UNL     1     -34.859  47.095 -16.227  0.00  0.00    +0.000 A 
ATOM     26  C   UNL     1     -35.101  48.372 -16.722  0.00  0.00    +0.000 A 
ATOM     27  C   UNL     1     -34.710  48.682 -18.022  0.00  0.00    +0.000 A 
ATOM     28  C   UNL     1     -34.091  47.708 -18.800  0.00  0.00    +0.000 A 
ATOM     29  F   UNL     1     -33.715  48.007 -20.051  0.00  0.00    +0.000 F 
ATOM     30  C   UNL     1     -33.857  46.429 -18.303  0.00  0.00    +0.000 A 
ATOM     31  C   UNL     1     -34.247  46.117 -17.005  0.00  0.00    +0.000 A 
ENDBRANCH  22  25
ENDBRANCH  21  22
ENDBRANCH  17  21
ENDBRANCH   2  17
TORSDOF 8
ENDMDL
MODEL 2
REMARK VINA RESULT:      -6.1     23.310     24.568
REMARK  Name = Bicalutamide.pdbqt.pdb
REMARK  8 active torsions:
REMARK  status: ('A' for Active; 'I' for Inactive)
REMARK    1  A    between atoms: C_2  and  N_13
REMARK    2  A    between atoms: C_5  and  C_9
REMARK    3  A    between atoms: C_6  and  C_8
REMARK    4  A    between atoms: C_14  and  C_17
REMARK    5  A    between atoms: C_17  and  O_19
REMARK    6  A    between atoms: C_17  and  C_21
REMARK    7  A    between atoms: C_21  and  S_22
REMARK    8  A    between atoms: S_22  and  C_25
REMARK                            x       y       z     vdW  Elec       q    Type
REMARK                         _______ _______ _______ _____ _____    ______ ____
ROOT
ATOM      1  N   UNL     1     -15.364  54.707 -20.549  0.00  0.00    +0.000 N 
ATOM      2  C   UNL     1     -14.174  55.106 -19.944  0.00  0.00    +0.000 C 
ATOM      3  O   UNL     1     -13.164  55.472 -20.555  0.00  0.00    +0.000 OA
ATOM      4  H   UNL     1     -16.152  54.526 -19.926  0.00  0.00    +0.000 HD
ENDROOT
BRANCH   1   5
ATOM      5  C   UNL     1     -15.597  54.614 -21.930  0.00  0.00    +0.000 A 
ATOM      6  C   UNL     1     -16.120  55.733 -22.578  0.00  0.00    +0.000 A 
ATOM      7  C   UNL     1     -15.340  53.461 -22.666  0.00  0.00    +0.000 A 
ATOM      8  C   UNL     1     -16.389  55.718 -23.951  0.00  0.00    +0.000 A 
ATOM      9  C   UNL     1     -16.124  54.549 -24.681  0.00  0.00    +0.000 A 
ATOM     10  C   UNL     1     -15.602  53.428 -24.033  0.00  0.00    +0.000 A 
BRANCH   8  11
ATOM     11  C   UNL     1     -16.952  56.949 -24.598  0.00  0.00    +0.000 C 
ATOM     12  F   UNL     1     -17.952  56.682 -25.483  0.00  0.00    +0.000 F 
ATOM     13  F   UNL     1     -17.481  57.814 -23.692  0.00  0.00    +0.000 F 
ATOM     14  F   UNL     1     -16.015  57.644 -25.296  0.00  0.00    +0.000 F 
ENDBRANCH   8  11
BRANCH   9  16
ATOM     15  N   UNL     1     -16.568  54.363 -27.227  0.00  0.00    +0.000 NA
ATOM     16  C   UNL     1     -16.372  54.454 -26.088  0.00  0.00    +0.000 C 
ENDBRANCH   9  16
ENDBRANCH   1   5
BRANCH   2  17
ATOM     17  C   UNL     1     -14.159  55.023 -18.364  0.00  0.00    +0.000 C 
ATOM     18  C   UNL     1     -12.706  54.952 -17.815  0.00  0.00    +0.000 C 
BRANCH  17  19
ATOM     19  O   UNL     1     -14.830  53.852 -17.926  0.00  0.00    +0.000 OA
ATOM     20  H   UNL     1     -15.765  53.999 -18.167  0.00  0.00    +0.000 HD
ENDBRANCH  17  19
BRANCH  17  21
ATOM     21  C   UNL     1     -14.846  56.169 -17.853  0.00  0.00    +0.000 C 
BRANCH  21  22
ATOM     22  S   UNL     1     -15.474  57.619 -17.162  0.00  0.00    +0.000 S 
ATOM     23  O   UNL     1     -14.239  58.137 -16.630  0.00  0.00    +0.000 OA
ATOM     24  O   UNL     1     -16.525  56.996 -16.394  0.00  0.00    +0.000 OA
BRANCH  22  25
ATOM     25  C   UNL     1     -16.107  58.625 -18.422  0.00  0.00    +0.000 A 
ATOM     26  C   UNL     1     -16.700  59.830 -18.062  0.00  0.00    +0.000 A 
ATOM     27  C   UNL     1     -17.236  60.645 -19.055  0.00  0.00    +0.000 A 
ATOM     28  C   UNL     1     -17.173  60.236 -20.385  0.00  0.00    +0.000 A 
ATOM     29  F   UNL     1     -17.689  61.021 -21.340  0.00  0.00    +0.000 F 
ATOM     30  C   UNL     1     -16.584  59.025 -20.739  0.00  0.00    +0.000 A 
ATOM     31  C   UNL     1     -16.048  58.209 -19.748  0.00  0.00    +0.000 A 
ENDBRANCH  22  25
ENDBRANCH  21  22
ENDBRANCH  17  21
ENDBRANCH   2  17
TORSDOF 8
ENDMDL
MODEL 3
REMARK VINA RESULT:      -5.9      4.164      7.796
REMARK  Name = Bicalutamide.pdbqt.pdb
REMARK  8 active torsions:
REMARK  status: ('A' for Active; 'I' for Inactive)
REMARK    1  A    between atoms: C_2  and  N_13
REMARK    2  A    between atoms: C_5  and  C_9
REMARK    3  A    between atoms: C_6  and  C_8
REMARK    4  A    between atoms: C_14  and  C_17
REMARK    5  A    between atoms: C_17  and  O_19
REMARK    6  A    between atoms: C_17  and  C_21
REMARK    7  A    between atoms: C_21  and  S_22
REMARK    8  A    between atoms: S_22  and  C_25
REMARK                            x       y       z     vdW  Elec       q    Type
REMARK                         _______ _______ _______ _____ _____    ______ ____
ROOT
ATOM      1  N   UNL     1     -33.460  44.696 -11.540  0.00  0.00    +0.000 N 
ATOM      2  C   UNL     1     -34.380  43.786 -11.027  0.00  0.00    +0.000 C 
ATOM      3  O   UNL     1     -35.214  43.174 -11.702  0.00  0.00    +0.000 OA
ATOM      4  H   UNL     1     -32.761  45.054 -10.888  0.00  0.00    +0.000 HD
ENDROOT
BRANCH   1   5
ATOM      5  C   UNL     1     -33.356  45.097 -12.882  0.00  0.00    +0.000 A 
ATOM      6  C   UNL     1     -34.201  46.115 -13.324  0.00  0.00    +0.000 A 
ATOM      7  C   UNL     1     -32.464  44.516 -13.779  0.00  0.00    +0.000 A 
ATOM      8  C   UNL     1     -34.165  46.565 -14.649  0.00  0.00    +0.000 A 
ATOM      9  C   UNL     1     -33.260  45.972 -15.542  0.00  0.00    +0.000 A 
ATOM     10  C   UNL     1     -32.416  44.951 -15.101  0.00  0.00    +0.000 A 
BRANCH   8  11
ATOM     11  C   UNL     1     -35.096  47.664 -15.071  0.00  0.00    +0.000 C 
ATOM     12  F   UNL     1     -36.079  47.242 -15.914  0.00  0.00    +0.000 F 
ATOM     13  F   UNL     1     -35.734  48.235 -14.016  0.00  0.00    +0.000 F 
ATOM     14  F   UNL     1     -34.452  48.667 -15.724  0.00  0.00    +0.000 F 
ENDBRANCH   8  11
BRANCH   9  16
ATOM     15  N   UNL     1     -33.097  46.695 -18.024  0.00  0.00    +0.000 NA
ATOM     16  C   UNL     1     -33.163  46.376 -16.912  0.00  0.00    +0.000 C 
ENDBRANCH   9  16
ENDBRANCH   1   5
BRANCH   2  17
ATOM     17  C   UNL     1     -34.336  43.595  -9.456  0.00  0.00    +0.000 C 
ATOM     18  C   UNL     1     -32.873  43.475  -8.942  0.00  0.00    +0.000 C 
BRANCH  17  19
ATOM     19  O   UNL     1     -35.009  42.402  -9.087  0.00  0.00    +0.000 OA
ATOM     20  H   UNL     1     -34.814  42.293  -8.137  0.00  0.00    +0.000 HD
ENDBRANCH  17  19
BRANCH  17  21
ATOM     21  C   UNL     1     -35.002  44.708  -8.854  0.00  0.00    +0.000 C 
BRANCH  21  22
ATOM     22  S   UNL     1     -35.629  46.172  -8.191  0.00  0.00    +0.000 S 
ATOM     23  O   UNL     1     -34.394  46.914  -8.145  0.00  0.00    +0.000 OA
ATOM     24  O   UNL     1     -36.291  45.572  -7.059  0.00  0.00    +0.000 OA
BRANCH  22  25
ATOM     25  C   UNL     1     -36.757  46.866  -9.306  0.00  0.00    +0.000 A 
ATOM     26  C   UNL     1     -37.684  47.781  -8.817  0.00  0.00    +0.000 A 
ATOM     27  C   UNL     1     -38.617  48.335  -9.689  0.00  0.00    +0.000 A 
ATOM     28  C   UNL     1     -38.606  47.960 -11.030  0.00  0.00    +0.000 A 
ATOM     29  F   UNL     1     -39.504  48.494 -11.869  0.00  0.00    +0.000 F 
ATOM     30  C   UNL     1     -37.681  47.039 -11.514  0.00  0.00    +0.000 A 
ATOM     31  C   UNL     1     -36.749  46.484 -10.644  0.00  0.00    +0.000 A 
ENDBRANCH  22  25
ENDBRANCH  21  22
ENDBRANCH  17  21
ENDBRANCH   2  17
TORSDOF 8
ENDMDL
MODEL 4
REMARK VINA RESULT:      -5.9     22.988     24.850
REMARK  Name = Bicalutamide.pdbqt.pdb
REMARK  8 active torsions:
REMARK  status: ('A' for Active; 'I' for Inactive)
REMARK    1  A    between atoms: C_2  and  N_13
REMARK    2  A    between atoms: C_5  and  C_9
REMARK    3  A    between atoms: C_6  and  C_8
REMARK    4  A    between atoms: C_14  and  C_17
REMARK    5  A    between atoms: C_17  and  O_19
REMARK    6  A    between atoms: C_17  and  C_21
REMARK    7  A    between atoms: C_21  and  S_22
REMARK    8  A    between atoms: S_22  and  C_25
REMARK                            x       y       z     vdW  Elec       q    Type
REMARK                         _______ _______ _______ _____ _____    ______ ____
ROOT
ATOM      1  N   UNL     1     -16.192  47.806   5.868  0.00  0.00    +0.000 N 
ATOM      2  C   UNL     1     -15.004  47.443   6.498  0.00  0.00    +0.000 C 
ATOM      3  O   UNL     1     -14.098  48.228   6.796  0.00  0.00    +0.000 OA
ATOM      4  H   UNL     1     -16.898  47.075   5.772  0.00  0.00    +0.000 HD
ENDROOT
BRANCH   1   5
ATOM      5  C   UNL     1     -16.535  49.097   5.435  0.00  0.00    +0.000 A 
ATOM      6  C   UNL     1     -16.410  49.380   4.075  0.00  0.00    +0.000 A 
ATOM      7  C   UNL     1     -16.976  50.094   6.299  0.00  0.00    +0.000 A 
ATOM      8  C   UNL     1     -16.723  50.646   3.565  0.00  0.00    +0.000 A 
ATOM      9  C   UNL     1     -17.168  51.641   4.447  0.00  0.00    +0.000 A 
ATOM     10  C   UNL     1     -17.291  51.359   5.809  0.00  0.00    +0.000 A 
BRANCH   8  11
ATOM     11  C   UNL     1     -16.570  50.897   2.093  0.00  0.00    +0.000 C 
ATOM     12  F   UNL     1     -16.152  49.801   1.401  0.00  0.00    +0.000 F 
ATOM     13  F   UNL     1     -17.737  51.279   1.510  0.00  0.00    +0.000 F 
ATOM     14  F   UNL     1     -15.664  51.873   1.823  0.00  0.00    +0.000 F 
ENDBRANCH   8  11
BRANCH   9  16
ATOM     15  N   UNL     1     -17.769  54.031   3.646  0.00  0.00    +0.000 NA
ATOM     16  C   UNL     1     -17.507  52.959   4.004  0.00  0.00    +0.000 C 
ENDBRANCH   9  16
ENDBRANCH   1   5
BRANCH   2  17
ATOM     17  C   UNL     1     -14.841  45.896   6.789  0.00  0.00    +0.000 C 
ATOM     18  C   UNL     1     -15.375  45.527   8.203  0.00  0.00    +0.000 C 
BRANCH  17  19
ATOM     19  O   UNL     1     -13.471  45.530   6.751  0.00  0.00    +0.000 OA
ATOM     20  H   UNL     1     -13.154  45.852   5.885  0.00  0.00    +0.000 HD
ENDBRANCH  17  19
BRANCH  17  21
ATOM     21  C   UNL     1     -15.543  45.176   5.772  0.00  0.00    +0.000 C 
BRANCH  21  22
ATOM     22  S   UNL     1     -16.481  44.504   4.490  0.00  0.00    +0.000 S 
ATOM     23  O   UNL     1     -17.730  45.154   4.796  0.00  0.00    +0.000 OA
ATOM     24  O   UNL     1     -16.164  43.122   4.758  0.00  0.00    +0.000 OA
BRANCH  22  25
ATOM     25  C   UNL     1     -15.834  45.030   2.972  0.00  0.00    +0.000 A 
ATOM     26  C   UNL     1     -16.488  46.059   2.303  0.00  0.00    +0.000 A 
ATOM     27  C   UNL     1     -16.001  46.485   1.070  0.00  0.00    +0.000 A 
ATOM     28  C   UNL     1     -14.874  45.870   0.531  0.00  0.00    +0.000 A 
ATOM     29  F   UNL     1     -14.405  46.280  -0.655  0.00  0.00    +0.000 F 
ATOM     30  C   UNL     1     -14.227  44.836   1.202  0.00  0.00    +0.000 A 
ATOM     31  C   UNL     1     -14.712  44.409   2.433  0.00  0.00    +0.000 A 
ENDBRANCH  22  25
ENDBRANCH  21  22
ENDBRANCH  17  21
ENDBRANCH   2  17
TORSDOF 8
ENDMDL
MODEL 5
REMARK VINA RESULT:      -5.9     20.679     22.010
REMARK  Name = Bicalutamide.pdbqt.pdb
REMARK  8 active torsions:
REMARK  status: ('A' for Active; 'I' for Inactive)
REMARK    1  A    between atoms: C_2  and  N_13
REMARK    2  A    between atoms: C_5  and  C_9
REMARK    3  A    between atoms: C_6  and  C_8
REMARK    4  A    between atoms: C_14  and  C_17
REMARK    5  A    between atoms: C_17  and  O_19
REMARK    6  A    between atoms: C_17  and  C_21
REMARK    7  A    between atoms: C_21  and  S_22
REMARK    8  A    between atoms: S_22  and  C_25
REMARK                            x       y       z     vdW  Elec       q    Type
REMARK                         _______ _______ _______ _____ _____    ______ ____
ROOT
ATOM      1  N   UNL     1     -31.783  64.221 -21.706  0.00  0.00    +0.000 N 
ATOM      2  C   UNL     1     -31.247  63.372 -22.672  0.00  0.00    +0.000 C 
ATOM      3  O   UNL     1     -30.040  63.188 -22.854  0.00  0.00    +0.000 OA
ATOM      4  H   UNL     1     -32.797  64.203 -21.596  0.00  0.00    +0.000 HD
ENDROOT
BRANCH   1   5
ATOM      5  C   UNL     1     -31.051  65.029 -20.821  0.00  0.00    +0.000 A 
ATOM      6  C   UNL     1     -30.718  64.494 -19.576  0.00  0.00    +0.000 A 
ATOM      7  C   UNL     1     -30.661  66.328 -21.128  0.00  0.00    +0.000 A 
ATOM      8  C   UNL     1     -29.999  65.238 -18.634  0.00  0.00    +0.000 A 
ATOM      9  C   UNL     1     -29.610  66.547 -18.958  0.00  0.00    +0.000 A 
ATOM     10  C   UNL     1     -29.945  67.084 -20.203  0.00  0.00    +0.000 A 
BRANCH   8  11
ATOM     11  C   UNL     1     -29.667  64.614 -17.311  0.00  0.00    +0.000 C 
ATOM     12  F   UNL     1     -30.157  63.350 -17.174  0.00  0.00    +0.000 F 
ATOM     13  F   UNL     1     -28.327  64.515 -17.106  0.00  0.00    +0.000 F 
ATOM     14  F   UNL     1     -30.167  65.321 -16.263  0.00  0.00    +0.000 F 
ENDBRANCH   8  11
BRANCH   9  16
ATOM     15  N   UNL     1     -28.281  68.051 -17.321  0.00  0.00    +0.000 NA
ATOM     16  C   UNL     1     -28.873  67.372 -18.050  0.00  0.00    +0.000 C 
ENDBRANCH   9  16
ENDBRANCH   1   5
BRANCH   2  17
ATOM     17  C   UNL     1     -32.308  62.653 -23.600  0.00  0.00    +0.000 C 
ATOM     18  C   UNL     1     -33.233  63.684 -24.307  0.00  0.00    +0.000 C 
BRANCH  17  19
ATOM     19  O   UNL     1     -33.142  61.804 -22.828  0.00  0.00    +0.000 OA
ATOM     20  H   UNL     1     -33.847  61.525 -23.443  0.00  0.00    +0.000 HD
ENDBRANCH  17  19
BRANCH  17  21
ATOM     21  C   UNL     1     -31.597  61.861 -24.556  0.00  0.00    +0.000 C 
BRANCH  21  22
ATOM     22  S   UNL     1     -30.930  60.901 -25.824  0.00  0.00    +0.000 S 
ATOM     23  O   UNL     1     -31.815  61.324 -26.880  0.00  0.00    +0.000 OA
ATOM     24  O   UNL     1     -30.994  59.638 -25.129  0.00  0.00    +0.000 OA
BRANCH  22  25
ATOM     25  C   UNL     1     -29.296  61.395 -26.114  0.00  0.00    +0.000 A 
ATOM     26  C   UNL     1     -29.035  62.755 -26.242  0.00  0.00    +0.000 A 
ATOM     27  C   UNL     1     -27.733  63.175 -26.499  0.00  0.00    +0.000 A 
ATOM     28  C   UNL     1     -26.721  62.228 -26.627  0.00  0.00    +0.000 A 
ATOM     29  F   UNL     1     -25.468  62.633 -26.874  0.00  0.00    +0.000 F 
ATOM     30  C   UNL     1     -26.988  60.867 -26.505  0.00  0.00    +0.000 A 
ATOM     31  C   UNL     1     -28.288  60.445 -26.249  0.00  0.00    +0.000 A 
ENDBRANCH  22  25
ENDBRANCH  21  22
ENDBRANCH  17  21
ENDBRANCH   2  17
TORSDOF 8
ENDMDL
MODEL 6
REMARK VINA RESULT:      -5.9     21.132     22.206
REMARK  Name = Bicalutamide.pdbqt.pdb
REMARK  8 active torsions:
REMARK  status: ('A' for Active; 'I' for Inactive)
REMARK    1  A    between atoms: C_2  and  N_13
REMARK    2  A    between atoms: C_5  and  C_9
REMARK    3  A    between atoms: C_6  and  C_8
REMARK    4  A    between atoms: C_14  and  C_17
REMARK    5  A    between atoms: C_17  and  O_19
REMARK    6  A    between atoms: C_17  and  C_21
REMARK    7  A    between atoms: C_21  and  S_22
REMARK    8  A    between atoms: S_22  and  C_25
REMARK                            x       y       z     vdW  Elec       q    Type
REMARK                         _______ _______ _______ _____ _____    ______ ____
ROOT
ATOM      1  N   UNL     1     -32.085  63.843 -24.003  0.00  0.00    +0.000 N 
ATOM      2  C   UNL     1     -32.810  62.667 -24.175  0.00  0.00    +0.000 C 
ATOM      3  O   UNL     1     -33.522  62.148 -23.309  0.00  0.00    +0.000 OA
ATOM      4  H   UNL     1     -31.618  64.215 -24.831  0.00  0.00    +0.000 HD
ENDROOT
BRANCH   1   5
ATOM      5  C   UNL     1     -32.008  64.600 -22.823  0.00  0.00    +0.000 A 
ATOM      6  C   UNL     1     -31.103  64.190 -21.845  0.00  0.00    +0.000 A 
ATOM      7  C   UNL     1     -32.799  65.721 -22.589  0.00  0.00    +0.000 A 
ATOM      8  C   UNL     1     -30.973  64.886 -20.637  0.00  0.00    +0.000 A 
ATOM      9  C   UNL     1     -31.776  66.015 -20.416  0.00  0.00    +0.000 A 
ATOM     10  C   UNL     1     -32.684  66.425 -21.393  0.00  0.00    +0.000 A 
BRANCH   8  11
ATOM     11  C   UNL     1     -29.983  64.401 -19.619  0.00  0.00    +0.000 C 
ATOM     12  F   UNL     1     -30.557  64.044 -18.437  0.00  0.00    +0.000 F 
ATOM     13  F   UNL     1     -29.298  63.307 -20.043  0.00  0.00    +0.000 F 
ATOM     14  F   UNL     1     -29.053  65.344 -19.309  0.00  0.00    +0.000 F 
ENDBRANCH   8  11
BRANCH   9  16
ATOM     15  N   UNL     1     -31.657  67.403 -18.231  0.00  0.00    +0.000 NA
ATOM     16  C   UNL     1     -31.703  66.780 -19.208  0.00  0.00    +0.000 C 
ENDBRANCH   9  16
ENDBRANCH   1   5
BRANCH   2  17
ATOM     17  C   UNL     1     -32.637  61.968 -25.584  0.00  0.00    +0.000 C 
ATOM     18  C   UNL     1     -32.691  63.005 -26.741  0.00  0.00    +0.000 C 
BRANCH  17  19
ATOM     19  O   UNL     1     -33.686  61.039 -25.804  0.00  0.00    +0.000 OA
ATOM     20  H   UNL     1     -34.410  61.343 -25.224  0.00  0.00    +0.000 HD
ENDBRANCH  17  19
BRANCH  17  21
ATOM     21  C   UNL     1     -31.390  61.266 -25.581  0.00  0.00    +0.000 C 
BRANCH  21  22
ATOM     22  S   UNL     1     -29.986  60.273 -25.444  0.00  0.00    +0.000 S 
ATOM     23  O   UNL     1     -30.643  58.992 -25.511  0.00  0.00    +0.000 OA
ATOM     24  O   UNL     1     -29.464  60.888 -24.248  0.00  0.00    +0.000 OA
BRANCH  22  25
ATOM     25  C   UNL     1     -28.959  60.545 -26.811  0.00  0.00    +0.000 A 
ATOM     26  C   UNL     1     -27.588  60.631 -26.593  0.00  0.00    +0.000 A 
ATOM     27  C   UNL     1     -26.743  60.872 -27.673  0.00  0.00    +0.000 A 
ATOM     28  C   UNL     1     -27.286  61.027 -28.945  0.00  0.00    +0.000 A 
ATOM     29  F   UNL     1     -26.472  61.259 -29.984  0.00  0.00    +0.000 F 
ATOM     30  C   UNL     1     -28.660  60.947 -29.157  0.00  0.00    +0.000 A 
ATOM     31  C   UNL     1     -29.506  60.706 -28.080  0.00  0.00    +0.000 A 
ENDBRANCH  22  25
ENDBRANCH  21  22
ENDBRANCH  17  21
ENDBRANCH   2  17
TORSDOF 8
ENDMDL
MODEL 7
REMARK VINA RESULT:      -5.9     24.245     26.011
REMARK  Name = Bicalutamide.pdbqt.pdb
REMARK  8 active torsions:
REMARK  status: ('A' for Active; 'I' for Inactive)
REMARK    1  A    between atoms: C_2  and  N_13
REMARK    2  A    between atoms: C_5  and  C_9
REMARK    3  A    between atoms: C_6  and  C_8
REMARK    4  A    between atoms: C_14  and  C_17
REMARK    5  A    between atoms: C_17  and  O_19
REMARK    6  A    between atoms: C_17  and  C_21
REMARK    7  A    between atoms: C_21  and  S_22
REMARK    8  A    between atoms: S_22  and  C_25
REMARK                            x       y       z     vdW  Elec       q    Type
REMARK                         _______ _______ _______ _____ _____    ______ ____
ROOT
ATOM      1  N   UNL     1     -19.771  53.365 -32.551  0.00  0.00    +0.000 N 
ATOM      2  C   UNL     1     -19.012  53.058 -33.677  0.00  0.00    +0.000 C 
ATOM      3  O   UNL     1     -17.827  53.371 -33.833  0.00  0.00    +0.000 OA
ATOM      4  H   UNL     1     -20.706  52.959 -32.508  0.00  0.00    +0.000 HD
ENDROOT
BRANCH   1   5
ATOM      5  C   UNL     1     -19.337  54.109 -31.441  0.00  0.00    +0.000 A 
ATOM      6  C   UNL     1     -18.855  53.407 -30.337  0.00  0.00    +0.000 A 
ATOM      7  C   UNL     1     -19.381  55.499 -31.397  0.00  0.00    +0.000 A 
ATOM      8  C   UNL     1     -18.412  54.074 -29.188  0.00  0.00    +0.000 A 
ATOM      9  C   UNL     1     -18.460  55.475 -29.158  0.00  0.00    +0.000 A 
ATOM     10  C   UNL     1     -18.945  56.179 -30.263  0.00  0.00    +0.000 A 
BRANCH   8  11
ATOM     11  C   UNL     1     -17.903  53.269 -28.028  0.00  0.00    +0.000 C 
ATOM     12  F   UNL     1     -16.583  53.480 -27.767  0.00  0.00    +0.000 F 
ATOM     13  F   UNL     1     -18.560  53.555 -26.873  0.00  0.00    +0.000 F 
ATOM     14  F   UNL     1     -18.033  51.931 -28.228  0.00  0.00    +0.000 F 
ENDBRANCH   8  11
BRANCH   9  16
ATOM     15  N   UNL     1     -17.665  56.849 -27.110  0.00  0.00    +0.000 NA
ATOM     16  C   UNL     1     -18.026  56.230 -28.022  0.00  0.00    +0.000 C 
ENDBRANCH   9  16
ENDBRANCH   1   5
BRANCH   2  17
ATOM     17  C   UNL     1     -19.786  52.288 -34.823  0.00  0.00    +0.000 C 
ATOM     18  C   UNL     1     -19.785  50.753 -34.574  0.00  0.00    +0.000 C 
BRANCH  17  19
ATOM     19  O   UNL     1     -19.157  52.509 -36.075  0.00  0.00    +0.000 OA
ATOM     20  H   UNL     1     -19.633  51.926 -36.697  0.00  0.00    +0.000 HD
ENDBRANCH  17  19
BRANCH  17  21
ATOM     21  C   UNL     1     -21.121  52.799 -34.877  0.00  0.00    +0.000 C 
BRANCH  21  22
ATOM     22  S   UNL     1     -22.676  53.537 -34.764  0.00  0.00    +0.000 S 
ATOM     23  O   UNL     1     -23.019  53.493 -36.162  0.00  0.00    +0.000 OA
ATOM     24  O   UNL     1     -22.251  54.710 -34.039  0.00  0.00    +0.000 OA
BRANCH  22  25
ATOM     25  C   UNL     1     -23.716  52.533 -33.811  0.00  0.00    +0.000 A 
ATOM     26  C   UNL     1     -24.143  51.327 -34.357  0.00  0.00    +0.000 A 
ATOM     27  C   UNL     1     -24.998  50.513 -33.620  0.00  0.00    +0.000 A 
ATOM     28  C   UNL     1     -25.412  50.923 -32.356  0.00  0.00    +0.000 A 
ATOM     29  F   UNL     1     -26.235  50.138 -31.646  0.00  0.00    +0.000 F 
ATOM     30  C   UNL     1     -24.987  52.134 -31.815  0.00  0.00    +0.000 A 
ATOM     31  C   UNL     1     -24.133  52.949 -32.550  0.00  0.00    +0.000 A 
ENDBRANCH  22  25
ENDBRANCH  21  22
ENDBRANCH  17  21
ENDBRANCH   2  17
TORSDOF 8
ENDMDL
MODEL 8
REMARK VINA RESULT:      -5.8     22.394     23.442
REMARK  Name = Bicalutamide.pdbqt.pdb
REMARK  8 active torsions:
REMARK  status: ('A' for Active; 'I' for Inactive)
REMARK    1  A    between atoms: C_2  and  N_13
REMARK    2  A    between atoms: C_5  and  C_9
REMARK    3  A    between atoms: C_6  and  C_8
REMARK    4  A    between atoms: C_14  and  C_17
REMARK    5  A    between atoms: C_17  and  O_19
REMARK    6  A    between atoms: C_17  and  C_21
REMARK    7  A    between atoms: C_21  and  S_22
REMARK    8  A    between atoms: S_22  and  C_25
REMARK                            x       y       z     vdW  Elec       q    Type
REMARK                         _______ _______ _______ _____ _____    ______ ____
ROOT
ATOM      1  N   UNL     1     -15.655  59.074 -17.424  0.00  0.00    +0.000 N 
ATOM      2  C   UNL     1     -15.754  57.797 -16.878  0.00  0.00    +0.000 C 
ATOM      3  O   UNL     1     -16.816  57.243 -16.576  0.00  0.00    +0.000 OA
ATOM      4  H   UNL     1     -14.724  59.371 -17.721  0.00  0.00    +0.000 HD
ENDROOT
BRANCH   1   5
ATOM      5  C   UNL     1     -16.724  59.949 -17.677  0.00  0.00    +0.000 A 
ATOM      6  C   UNL     1     -17.638  60.173 -16.648  0.00  0.00    +0.000 A 
ATOM      7  C   UNL     1     -16.911  60.582 -18.901  0.00  0.00    +0.000 A 
ATOM      8  C   UNL     1     -18.735  61.024 -16.823  0.00  0.00    +0.000 A 
ATOM      9  C   UNL     1     -18.910  61.657 -18.062  0.00  0.00    +0.000 A 
ATOM     10  C   UNL     1     -17.997  61.432 -19.094  0.00  0.00    +0.000 A 
BRANCH   8  11
ATOM     11  C   UNL     1     -19.688  61.230 -15.681  0.00  0.00    +0.000 C 
ATOM     12  F   UNL     1     -19.873  62.542 -15.366  0.00  0.00    +0.000 F 
ATOM     13  F   UNL     1     -20.926  60.734 -15.945  0.00  0.00    +0.000 F 
ATOM     14  F   UNL     1     -19.266  60.630 -14.537  0.00  0.00    +0.000 F 
ENDBRANCH   8  11
BRANCH   9  16
ATOM     15  N   UNL     1     -20.895  63.261 -18.515  0.00  0.00    +0.000 NA
ATOM     16  C   UNL     1     -20.006  62.541 -18.320  0.00  0.00    +0.000 C 
ENDBRANCH   9  16
ENDBRANCH   1   5
BRANCH   2  17
ATOM     17  C   UNL     1     -14.375  57.068 -16.610  0.00  0.00    +0.000 C 
ATOM     18  C   UNL     1     -14.335  56.439 -15.189  0.00  0.00    +0.000 C 
BRANCH  17  19
ATOM     19  O   UNL     1     -13.306  57.996 -16.687  0.00  0.00    +0.000 OA
ATOM     20  H   UNL     1     -13.389  58.537 -15.879  0.00  0.00    +0.000 HD
ENDBRANCH  17  19
BRANCH  17  21
ATOM     21  C   UNL     1     -14.197  56.070 -17.619  0.00  0.00    +0.000 C 
BRANCH  21  22
ATOM     22  S   UNL     1     -13.983  55.035 -18.982  0.00  0.00    +0.000 S 
ATOM     23  O   UNL     1     -14.458  53.814 -18.381  0.00  0.00    +0.000 OA
ATOM     24  O   UNL     1     -12.601  55.368 -19.229  0.00  0.00    +0.000 OA
BRANCH  22  25
ATOM     25  C   UNL     1     -15.014  55.564 -20.268  0.00  0.00    +0.000 A 
ATOM     26  C   UNL     1     -15.637  56.802 -20.142  0.00  0.00    +0.000 A 
ATOM     27  C   UNL     1     -16.488  57.239 -21.152  0.00  0.00    +0.000 A 
ATOM     28  C   UNL     1     -16.703  56.430 -22.264  0.00  0.00    +0.000 A 
ATOM     29  F   UNL     1     -17.523  56.852 -23.237  0.00  0.00    +0.000 F 
ATOM     30  C   UNL     1     -16.082  55.189 -22.384  0.00  0.00    +0.000 A 
ATOM     31  C   UNL     1     -15.231  54.750 -21.375  0.00  0.00    +0.000 A 
ENDBRANCH  22  25
ENDBRANCH  21  22
ENDBRANCH  17  21
ENDBRANCH   2  17
TORSDOF 8
ENDMDL
MODEL 9
REMARK VINA RESULT:      -5.7     23.292     25.310
REMARK  Name = Bicalutamide.pdbqt.pdb
REMARK  8 active torsions:
REMARK  status: ('A' for Active; 'I' for Inactive)
REMARK    1  A    between atoms: C_2  and  N_13
REMARK    2  A    between atoms: C_5  and  C_9
REMARK    3  A    between atoms: C_6  and  C_8
REMARK    4  A    between atoms: C_14  and  C_17
REMARK    5  A    between atoms: C_17  and  O_19
REMARK    6  A    between atoms: C_17  and  C_21
REMARK    7  A    between atoms: C_21  and  S_22
REMARK    8  A    between atoms: S_22  and  C_25
REMARK                            x       y       z     vdW  Elec       q    Type
REMARK                         _______ _______ _______ _____ _____    ______ ____
ROOT
ATOM      1  N   UNL     1     -15.997  46.305   7.184  0.00  0.00    +0.000 N 
ATOM      2  C   UNL     1     -16.826  45.241   7.532  0.00  0.00    +0.000 C 
ATOM      3  O   UNL     1     -18.022  45.348   7.822  0.00  0.00    +0.000 OA
ATOM      4  H   UNL     1     -15.056  46.065   6.869  0.00  0.00    +0.000 HD
ENDROOT
BRANCH   1   5
ATOM      5  C   UNL     1     -16.365  47.660   7.147  0.00  0.00    +0.000 A 
ATOM      6  C   UNL     1     -16.383  48.295   5.906  0.00  0.00    +0.000 A 
ATOM      7  C   UNL     1     -16.695  48.386   8.287  0.00  0.00    +0.000 A 
ATOM      8  C   UNL     1     -16.730  49.646   5.785  0.00  0.00    +0.000 A 
ATOM      9  C   UNL     1     -17.062  50.365   6.943  0.00  0.00    +0.000 A 
ATOM     10  C   UNL     1     -17.042  49.731   8.186  0.00  0.00    +0.000 A 
BRANCH   8  11
ATOM     11  C   UNL     1     -16.734  50.280   4.425  0.00  0.00    +0.000 C 
ATOM     12  F   UNL     1     -16.584  49.381   3.413  0.00  0.00    +0.000 F 
ATOM     13  F   UNL     1     -17.893  50.940   4.166  0.00  0.00    +0.000 F 
ATOM     14  F   UNL     1     -15.730  51.183   4.270  0.00  0.00    +0.000 F 
ENDBRANCH   8  11
BRANCH   9  16
ATOM     15  N   UNL     1     -17.713  52.872   6.881  0.00  0.00    +0.000 NA
ATOM     16  C   UNL     1     -17.427  51.749   6.903  0.00  0.00    +0.000 C 
ENDBRANCH   9  16
ENDBRANCH   1   5
BRANCH   2  17
ATOM     17  C   UNL     1     -16.121  43.825   7.584  0.00  0.00    +0.000 C 
ATOM     18  C   UNL     1     -17.136  42.700   7.933  0.00  0.00    +0.000 C 
BRANCH  17  19
ATOM     19  O   UNL     1     -15.119  43.811   8.588  0.00  0.00    +0.000 OA
ATOM     20  H   UNL     1     -15.502  43.280   9.311  0.00  0.00    +0.000 HD
ENDBRANCH  17  19
BRANCH  17  21
ATOM     21  C   UNL     1     -15.508  43.588   6.313  0.00  0.00    +0.000 C 
BRANCH  21  22
ATOM     22  S   UNL     1     -14.973  43.327   4.694  0.00  0.00    +0.000 S 
ATOM     23  O   UNL     1     -15.571  42.032   4.494  0.00  0.00    +0.000 OA
ATOM     24  O   UNL     1     -13.574  43.578   4.938  0.00  0.00    +0.000 OA
BRANCH  22  25
ATOM     25  C   UNL     1     -15.673  44.528   3.662  0.00  0.00    +0.000 A 
ATOM     26  C   UNL     1     -14.910  45.007   2.602  0.00  0.00    +0.000 A 
ATOM     27  C   UNL     1     -15.442  45.990   1.772  0.00  0.00    +0.000 A 
ATOM     28  C   UNL     1     -16.723  46.476   2.021  0.00  0.00    +0.000 A 
ATOM     29  F   UNL     1     -17.235  47.422   1.222  0.00  0.00    +0.000 F 
ATOM     30  C   UNL     1     -17.480  45.999   3.088  0.00  0.00    +0.000 A 
ATOM     31  C   UNL     1     -16.950  45.017   3.919  0.00  0.00    +0.000 A 
ENDBRANCH  22  25
ENDBRANCH  21  22
ENDBRANCH  17  21
ENDBRANCH   2  17
TORSDOF 8
ENDMDL
