MODEL 1
REMARK VINA RESULT:      -5.2      0.000      0.000
REMARK  Name = Bisphenol_A.pdbqt.pdb
REMARK  4 active torsions:
REMARK  status: ('A' for Active; 'I' for Inactive)
REMARK    1  A    between atoms: C_1  and  C_4
REMARK    2  A    between atoms: C_1  and  C_12
REMARK    3  A    between atoms: C_7  and  O_10
REMARK    4  A    between atoms: C_15  and  O_18
REMARK                            x       y       z     vdW  Elec       q    Type
REMARK                         _______ _______ _______ _____ _____    ______ ____
ROOT
ATOM      1  C   UNL     1     -12.225  46.779  -6.197  0.00  0.00    +0.000 C 
ATOM      2  C   UNL     1     -10.979  47.541  -6.774  0.00  0.00    +0.000 C 
ATOM      3  C   UNL     1     -11.802  46.111  -4.841  0.00  0.00    +0.000 C 
ENDROOT
BRANCH   1   4
ATOM      4  C   UNL     1     -13.332  47.825  -5.996  0.00  0.00    +0.000 A 
ATOM      5  C   UNL     1     -14.537  47.460  -5.369  0.00  0.00    +0.000 A 
ATOM      6  C   UNL     1     -15.569  48.379  -5.186  0.00  0.00    +0.000 A 
ATOM      7  C   UNL     1     -15.405  49.682  -5.638  0.00  0.00    +0.000 A 
ATOM      8  C   UNL     1     -14.231  50.076  -6.268  0.00  0.00    +0.000 A 
ATOM      9  C   UNL     1     -13.208  49.147  -6.448  0.00  0.00    +0.000 A 
BRANCH   7  10
ATOM     10  O   UNL     1     -16.393  50.608  -5.471  0.00  0.00    +0.000 OA
ATOM     11  H   UNL     1     -16.826  50.757  -6.329  0.00  0.00    +0.000 HD
ENDBRANCH   7  10
ENDBRANCH   1   4
BRANCH   1  12
ATOM     12  C   UNL     1     -12.682  45.646  -7.127  0.00  0.00    +0.000 A 
ATOM     13  C   UNL     1     -12.470  44.305  -6.758  0.00  0.00    +0.000 A 
ATOM     14  C   UNL     1     -12.856  43.254  -7.585  0.00  0.00    +0.000 A 
ATOM     15  C   UNL     1     -13.460  43.535  -8.805  0.00  0.00    +0.000 A 
ATOM     16  C   UNL     1     -13.680  44.848  -9.204  0.00  0.00    +0.000 A 
ATOM     17  C   UNL     1     -13.286  45.891  -8.369  0.00  0.00    +0.000 A 
BRANCH  15  18
ATOM     18  O   UNL     1     -13.856  42.530  -9.636  0.00  0.00    +0.000 OA
ATOM     19  H   UNL     1     -13.629  41.678  -9.223  0.00  0.00    +0.000 HD
ENDBRANCH  15  18
ENDBRANCH   1  12
TORSDOF 4
ENDMDL
MODEL 2
REMARK VINA RESULT:      -5.2      0.249      5.533
REMARK  Name = Bisphenol_A.pdbqt.pdb
REMARK  4 active torsions:
REMARK  status: ('A' for Active; 'I' for Inactive)
REMARK    1  A    between atoms: C_1  and  C_4
REMARK    2  A    between atoms: C_1  and  C_12
REMARK    3  A    between atoms: C_7  and  O_10
REMARK    4  A    between atoms: C_15  and  O_18
REMARK                            x       y       z     vdW  Elec       q    Type
REMARK                         _______ _______ _______ _____ _____    ______ ____
ROOT
ATOM      1  C   UNL     1     -12.260  46.495  -6.134  0.00  0.00    +0.000 C 
ATOM      2  C   UNL     1     -12.001  45.748  -4.778  0.00  0.00    +0.000 C 
ATOM      3  C   UNL     1     -10.916  47.172  -6.583  0.00  0.00    +0.000 C 
ENDROOT
BRANCH   1   4
ATOM      4  C   UNL     1     -12.728  45.435  -7.143  0.00  0.00    +0.000 A 
ATOM      5  C   UNL     1     -12.539  44.069  -6.865  0.00  0.00    +0.000 A 
ATOM      6  C   UNL     1     -12.934  43.082  -7.765  0.00  0.00    +0.000 A 
ATOM      7  C   UNL     1     -13.522  43.456  -8.967  0.00  0.00    +0.000 A 
ATOM      8  C   UNL     1     -13.717  44.796  -9.279  0.00  0.00    +0.000 A 
ATOM      9  C   UNL     1     -13.315  45.774  -8.371  0.00  0.00    +0.000 A 
BRANCH   7  10
ATOM     10  O   UNL     1     -13.925  42.516  -9.869  0.00  0.00    +0.000 OA
ATOM     11  H   UNL     1     -14.165  42.965 -10.698  0.00  0.00    +0.000 HD
ENDBRANCH   7  10
ENDBRANCH   1   4
BRANCH   1  12
ATOM     12  C   UNL     1     -13.293  47.620  -5.978  0.00  0.00    +0.000 A 
ATOM     13  C   UNL     1     -14.518  47.365  -5.333  0.00  0.00    +0.000 A 
ATOM     14  C   UNL     1     -15.484  48.358  -5.190  0.00  0.00    +0.000 A 
ATOM     15  C   UNL     1     -15.235  49.627  -5.699  0.00  0.00    +0.000 A 
ATOM     16  C   UNL     1     -14.039  49.912  -6.347  0.00  0.00    +0.000 A 
ATOM     17  C   UNL     1     -13.082  48.910  -6.487  0.00  0.00    +0.000 A 
BRANCH  15  18
ATOM     18  O   UNL     1     -16.156  50.624  -5.570  0.00  0.00    +0.000 OA
ATOM     19  H   UNL     1     -15.887  51.369  -6.136  0.00  0.00    +0.000 HD
ENDBRANCH  15  18
ENDBRANCH   1  12
TORSDOF 4
ENDMDL
MODEL 3
REMARK VINA RESULT:      -5.0     19.683     21.461
REMARK  Name = Bisphenol_A.pdbqt.pdb
REMARK  4 active torsions:
REMARK  status: ('A' for Active; 'I' for Inactive)
REMARK    1  A    between atoms: C_1  and  C_4
REMARK    2  A    between atoms: C_1  and  C_12
REMARK    3  A    between atoms: C_7  and  O_10
REMARK    4  A    between atoms: C_15  and  O_18
REMARK                            x       y       z     vdW  Elec       q    Type
REMARK                         _______ _______ _______ _____ _____    ______ ____
ROOT
ATOM      1  C   UNL     1     -35.709  45.579  -8.830  0.00  0.00    +0.000 C 
ATOM      2  C   UNL     1     -36.980  44.660  -8.767  0.00  0.00    +0.000 C 
ATOM      3  C   UNL     1     -36.166  47.060  -8.579  0.00  0.00    +0.000 C 
ENDROOT
BRANCH   1   4
ATOM      4  C   UNL     1     -34.750  45.087  -7.736  0.00  0.00    +0.000 A 
ATOM      5  C   UNL     1     -33.829  45.978  -7.156  0.00  0.00    +0.000 A 
ATOM      6  C   UNL     1     -32.933  45.561  -6.175  0.00  0.00    +0.000 A 
ATOM      7  C   UNL     1     -32.944  44.234  -5.764  0.00  0.00    +0.000 A 
ATOM      8  C   UNL     1     -33.835  43.324  -6.321  0.00  0.00    +0.000 A 
ATOM      9  C   UNL     1     -34.725  43.753  -7.304  0.00  0.00    +0.000 A 
BRANCH   7  10
ATOM     10  O   UNL     1     -32.084  43.793  -4.803  0.00  0.00    +0.000 OA
ATOM     11  H   UNL     1     -32.593  43.310  -4.129  0.00  0.00    +0.000 HD
ENDBRANCH   7  10
ENDBRANCH   1   4
BRANCH   1  12
ATOM     12  C   UNL     1     -35.049  45.547 -10.216  0.00  0.00    +0.000 A 
ATOM     13  C   UNL     1     -35.752  46.018 -11.340  0.00  0.00    +0.000 A 
ATOM     14  C   UNL     1     -35.190  45.987 -12.614  0.00  0.00    +0.000 A 
ATOM     15  C   UNL     1     -33.909  45.476 -12.779  0.00  0.00    +0.000 A 
ATOM     16  C   UNL     1     -33.188  44.996 -11.692  0.00  0.00    +0.000 A 
ATOM     17  C   UNL     1     -33.762  45.030 -10.423  0.00  0.00    +0.000 A 
BRANCH  15  18
ATOM     18  O   UNL     1     -33.326  45.436 -14.011  0.00  0.00    +0.000 OA
ATOM     19  H   UNL     1     -33.300  44.511 -14.312  0.00  0.00    +0.000 HD
ENDBRANCH  15  18
ENDBRANCH   1  12
TORSDOF 4
ENDMDL
MODEL 4
REMARK VINA RESULT:      -4.9     19.864     21.864
REMARK  Name = Bisphenol_A.pdbqt.pdb
REMARK  4 active torsions:
REMARK  status: ('A' for Active; 'I' for Inactive)
REMARK    1  A    between atoms: C_1  and  C_4
REMARK    2  A    between atoms: C_1  and  C_12
REMARK    3  A    between atoms: C_7  and  O_10
REMARK    4  A    between atoms: C_15  and  O_18
REMARK                            x       y       z     vdW  Elec       q    Type
REMARK                         _______ _______ _______ _____ _____    ______ ____
ROOT
ATOM      1  C   UNL     1     -33.584  45.599  -8.215  0.00  0.00    +0.000 C 
ATOM      2  C   UNL     1     -32.624  46.790  -7.865  0.00  0.00    +0.000 C 
ATOM      3  C   UNL     1     -32.903  44.738  -9.337  0.00  0.00    +0.000 C 
ENDROOT
BRANCH   1   4
ATOM      4  C   UNL     1     -33.784  44.794  -6.922  0.00  0.00    +0.000 A 
ATOM      5  C   UNL     1     -32.873  44.935  -5.859  0.00  0.00    +0.000 A 
ATOM      6  C   UNL     1     -33.013  44.207  -4.680  0.00  0.00    +0.000 A 
ATOM      7  C   UNL     1     -34.073  43.318  -4.553  0.00  0.00    +0.000 A 
ATOM      8  C   UNL     1     -34.987  43.147  -5.585  0.00  0.00    +0.000 A 
ATOM      9  C   UNL     1     -34.834  43.879  -6.761  0.00  0.00    +0.000 A 
BRANCH   7  10
ATOM     10  O   UNL     1     -34.243  42.593  -3.410  0.00  0.00    +0.000 OA
ATOM     11  H   UNL     1     -33.382  42.223  -3.147  0.00  0.00    +0.000 HD
ENDBRANCH   7  10
ENDBRANCH   1   4
BRANCH   1  12
ATOM     12  C   UNL     1     -34.922  46.093  -8.784  0.00  0.00    +0.000 A 
ATOM     13  C   UNL     1     -35.399  45.579 -10.004  0.00  0.00    +0.000 A 
ATOM     14  C   UNL     1     -36.599  46.017 -10.558  0.00  0.00    +0.000 A 
ATOM     15  C   UNL     1     -37.340  46.987  -9.893  0.00  0.00    +0.000 A 
ATOM     16  C   UNL     1     -36.896  47.521  -8.689  0.00  0.00    +0.000 A 
ATOM     17  C   UNL     1     -35.692  47.077  -8.147  0.00  0.00    +0.000 A 
BRANCH  15  18
ATOM     18  O   UNL     1     -38.523  47.435 -10.404  0.00  0.00    +0.000 OA
ATOM     19  H   UNL     1     -38.334  48.137 -11.050  0.00  0.00    +0.000 HD
ENDBRANCH  15  18
ENDBRANCH   1  12
TORSDOF 4
ENDMDL
MODEL 5
REMARK VINA RESULT:      -4.8     10.493     12.001
REMARK  Name = Bisphenol_A.pdbqt.pdb
REMARK  4 active torsions:
REMARK  status: ('A' for Active; 'I' for Inactive)
REMARK    1  A    between atoms: C_1  and  C_4
REMARK    2  A    between atoms: C_1  and  C_12
REMARK    3  A    between atoms: C_7  and  O_10
REMARK    4  A    between atoms: C_15  and  O_18
REMARK                            x       y       z     vdW  Elec       q    Type
REMARK                         _______ _______ _______ _____ _____    ______ ____
ROOT
ATOM      1  C   UNL     1     -15.594  48.243   5.759  0.00  0.00    +0.000 C 
ATOM      2  C   UNL     1     -14.111  48.719   5.956  0.00  0.00    +0.000 C 
ATOM      3  C   UNL     1     -16.356  48.447   7.117  0.00  0.00    +0.000 C 
ENDROOT
BRANCH   1   4
ATOM      4  C   UNL     1     -16.192  49.105   4.637  0.00  0.00    +0.000 A 
ATOM      5  C   UNL     1     -16.891  50.284   4.953  0.00  0.00    +0.000 A 
ATOM      6  C   UNL     1     -17.462  51.079   3.962  0.00  0.00    +0.000 A 
ATOM      7  C   UNL     1     -17.342  50.696   2.632  0.00  0.00    +0.000 A 
ATOM      8  C   UNL     1     -16.666  49.533   2.283  0.00  0.00    +0.000 A 
ATOM      9  C   UNL     1     -16.102  48.745   3.284  0.00  0.00    +0.000 A 
BRANCH   7  10
ATOM     10  O   UNL     1     -17.885  51.453   1.636  0.00  0.00    +0.000 OA
ATOM     11  H   UNL     1     -18.845  51.300   1.618  0.00  0.00    +0.000 HD
ENDBRANCH   7  10
ENDBRANCH   1   4
BRANCH   1  12
ATOM     12  C   UNL     1     -15.674  46.747   5.426  0.00  0.00    +0.000 A 
ATOM     13  C   UNL     1     -16.909  46.076   5.494  0.00  0.00    +0.000 A 
ATOM     14  C   UNL     1     -17.014  44.716   5.215  0.00  0.00    +0.000 A 
ATOM     15  C   UNL     1     -15.873  44.004   4.866  0.00  0.00    +0.000 A 
ATOM     16  C   UNL     1     -14.636  44.632   4.795  0.00  0.00    +0.000 A 
ATOM     17  C   UNL     1     -14.543  45.993   5.079  0.00  0.00    +0.000 A 
BRANCH  15  18
ATOM     18  O   UNL     1     -15.941  42.672   4.581  0.00  0.00    +0.000 OA
ATOM     19  H   UNL     1     -16.755  42.312   4.975  0.00  0.00    +0.000 HD
ENDBRANCH  15  18
ENDBRANCH   1  12
TORSDOF 4
ENDMDL
MODEL 6
REMARK VINA RESULT:      -4.8     25.454     27.304
REMARK  Name = Bisphenol_A.pdbqt.pdb
REMARK  4 active torsions:
REMARK  status: ('A' for Active; 'I' for Inactive)
REMARK    1  A    between atoms: C_1  and  C_4
REMARK    2  A    between atoms: C_1  and  C_12
REMARK    3  A    between atoms: C_7  and  O_10
REMARK    4  A    between atoms: C_15  and  O_18
REMARK                            x       y       z     vdW  Elec       q    Type
REMARK                         _______ _______ _______ _____ _____    ______ ____
ROOT
ATOM      1  C   UNL     1     -19.807  54.322 -32.837  0.00  0.00    +0.000 C 
ATOM      2  C   UNL     1     -18.798  53.519 -33.733  0.00  0.00    +0.000 C 
ATOM      3  C   UNL     1     -19.837  55.807 -33.348  0.00  0.00    +0.000 C 
ENDROOT
BRANCH   1   4
ATOM      4  C   UNL     1     -21.175  53.641 -32.988  0.00  0.00    +0.000 A 
ATOM      5  C   UNL     1     -21.274  52.405 -33.651  0.00  0.00    +0.000 A 
ATOM      6  C   UNL     1     -22.502  51.768 -33.822  0.00  0.00    +0.000 A 
ATOM      7  C   UNL     1     -23.653  52.370 -33.330  0.00  0.00    +0.000 A 
ATOM      8  C   UNL     1     -23.594  53.594 -32.676  0.00  0.00    +0.000 A 
ATOM      9  C   UNL     1     -22.360  54.223 -32.515  0.00  0.00    +0.000 A 
BRANCH   7  10
ATOM     10  O   UNL     1     -24.870  51.772 -33.475  0.00  0.00    +0.000 OA
ATOM     11  H   UNL     1     -25.153  51.866 -34.401  0.00  0.00    +0.000 HD
ENDBRANCH   7  10
ENDBRANCH   1   4
BRANCH   1  12
ATOM     12  C   UNL     1     -19.356  54.367 -31.370  0.00  0.00    +0.000 A 
ATOM     13  C   UNL     1     -19.252  53.175 -30.630  0.00  0.00    +0.000 A 
ATOM     14  C   UNL     1     -18.864  53.181 -29.292  0.00  0.00    +0.000 A 
ATOM     15  C   UNL     1     -18.577  54.392 -28.674  0.00  0.00    +0.000 A 
ATOM     16  C   UNL     1     -18.676  55.589 -29.372  0.00  0.00    +0.000 A 
ATOM     17  C   UNL     1     -19.069  55.570 -30.709  0.00  0.00    +0.000 A 
BRANCH  15  18
ATOM     18  O   UNL     1     -18.188  54.434 -27.367  0.00  0.00    +0.000 OA
ATOM     19  H   UNL     1     -17.759  55.291 -27.199  0.00  0.00    +0.000 HD
ENDBRANCH  15  18
ENDBRANCH   1  12
TORSDOF 4
ENDMDL
MODEL 7
REMARK VINA RESULT:      -4.7     25.365     27.037
REMARK  Name = Bisphenol_A.pdbqt.pdb
REMARK  4 active torsions:
REMARK  status: ('A' for Active; 'I' for Inactive)
REMARK    1  A    between atoms: C_1  and  C_4
REMARK    2  A    between atoms: C_1  and  C_12
REMARK    3  A    between atoms: C_7  and  O_10
REMARK    4  A    between atoms: C_15  and  O_18
REMARK                            x       y       z     vdW  Elec       q    Type
REMARK                         _______ _______ _______ _____ _____    ______ ____
ROOT
ATOM      1  C   UNL     1     -19.728  54.417 -32.696  0.00  0.00    +0.000 C 
ATOM      2  C   UNL     1     -19.791  55.927 -33.120  0.00  0.00    +0.000 C 
ATOM      3  C   UNL     1     -18.678  53.697 -33.615  0.00  0.00    +0.000 C 
ENDROOT
BRANCH   1   4
ATOM      4  C   UNL     1     -19.307  54.386 -31.219  0.00  0.00    +0.000 A 
ATOM      5  C   UNL     1     -19.008  55.587 -30.550  0.00  0.00    +0.000 A 
ATOM      6  C   UNL     1     -18.606  55.594 -29.216  0.00  0.00    +0.000 A 
ATOM      7  C   UNL     1     -18.492  54.389 -28.534  0.00  0.00    +0.000 A 
ATOM      8  C   UNL     1     -18.771  53.184 -29.166  0.00  0.00    +0.000 A 
ATOM      9  C   UNL     1     -19.170  53.190 -30.502  0.00  0.00    +0.000 A 
BRANCH   7  10
ATOM     10  O   UNL     1     -18.105  54.360 -27.227  0.00  0.00    +0.000 OA
ATOM     11  H   UNL     1     -18.629  55.015 -26.734  0.00  0.00    +0.000 HD
ENDBRANCH   7  10
ENDBRANCH   1   4
BRANCH   1  12
ATOM     12  C   UNL     1     -21.071  53.706 -32.915  0.00  0.00    +0.000 A 
ATOM     13  C   UNL     1     -21.112  52.469 -33.585  0.00  0.00    +0.000 A 
ATOM     14  C   UNL     1     -22.314  51.807 -33.815  0.00  0.00    +0.000 A 
ATOM     15  C   UNL     1     -23.502  52.382 -33.379  0.00  0.00    +0.000 A 
ATOM     16  C   UNL     1     -23.500  53.605 -32.720  0.00  0.00    +0.000 A 
ATOM     17  C   UNL     1     -22.291  54.260 -32.498  0.00  0.00    +0.000 A 
BRANCH  15  18
ATOM     18  O   UNL     1     -24.697  51.757 -33.583  0.00  0.00    +0.000 OA
ATOM     19  H   UNL     1     -24.966  51.325 -32.753  0.00  0.00    +0.000 HD
ENDBRANCH  15  18
ENDBRANCH   1  12
TORSDOF 4
ENDMDL
MODEL 8
REMARK VINA RESULT:      -4.7     20.014     21.817
REMARK  Name = Bisphenol_A.pdbqt.pdb
REMARK  4 active torsions:
REMARK  status: ('A' for Active; 'I' for Inactive)
REMARK    1  A    between atoms: C_1  and  C_4
REMARK    2  A    between atoms: C_1  and  C_12
REMARK    3  A    between atoms: C_7  and  O_10
REMARK    4  A    between atoms: C_15  and  O_18
REMARK                            x       y       z     vdW  Elec       q    Type
REMARK                         _______ _______ _______ _____ _____    ______ ____
ROOT
ATOM      1  C   UNL     1     -35.910  45.373  -9.705  0.00  0.00    +0.000 C 
ATOM      2  C   UNL     1     -36.851  46.627  -9.772  0.00  0.00    +0.000 C 
ATOM      3  C   UNL     1     -36.812  44.093  -9.582  0.00  0.00    +0.000 C 
ENDROOT
BRANCH   1   4
ATOM      4  C   UNL     1     -35.086  45.365 -11.002  0.00  0.00    +0.000 A 
ATOM      5  C   UNL     1     -33.877  44.648 -11.061  0.00  0.00    +0.000 A 
ATOM      6  C   UNL     1     -33.096  44.635 -12.214  0.00  0.00    +0.000 A 
ATOM      7  C   UNL     1     -33.517  45.350 -13.329  0.00  0.00    +0.000 A 
ATOM      8  C   UNL     1     -34.702  46.075 -13.303  0.00  0.00    +0.000 A 
ATOM      9  C   UNL     1     -35.473  46.083 -12.142  0.00  0.00    +0.000 A 
BRANCH   7  10
ATOM     10  O   UNL     1     -32.779  45.354 -14.475  0.00  0.00    +0.000 OA
ATOM     11  H   UNL     1     -31.840  45.450 -14.239  0.00  0.00    +0.000 HD
ENDBRANCH   7  10
ENDBRANCH   1   4
BRANCH   1  12
ATOM     12  C   UNL     1     -35.008  45.401  -8.463  0.00  0.00    +0.000 A 
ATOM     13  C   UNL     1     -34.985  44.302  -7.585  0.00  0.00    +0.000 A 
ATOM     14  C   UNL     1     -34.192  44.302  -6.441  0.00  0.00    +0.000 A 
ATOM     15  C   UNL     1     -33.409  45.415  -6.157  0.00  0.00    +0.000 A 
ATOM     16  C   UNL     1     -33.412  46.521  -6.998  0.00  0.00    +0.000 A 
ATOM     17  C   UNL     1     -34.212  46.510  -8.138  0.00  0.00    +0.000 A 
BRANCH  15  18
ATOM     18  O   UNL     1     -32.616  45.446  -5.048  0.00  0.00    +0.000 OA
ATOM     19  H   UNL     1     -31.758  45.835  -5.291  0.00  0.00    +0.000 HD
ENDBRANCH  15  18
ENDBRANCH   1  12
TORSDOF 4
ENDMDL
MODEL 9
REMARK VINA RESULT:      -4.6     21.181     22.532
REMARK  Name = Bisphenol_A.pdbqt.pdb
REMARK  4 active torsions:
REMARK  status: ('A' for Active; 'I' for Inactive)
REMARK    1  A    between atoms: C_1  and  C_4
REMARK    2  A    between atoms: C_1  and  C_12
REMARK    3  A    between atoms: C_7  and  O_10
REMARK    4  A    between atoms: C_15  and  O_18
REMARK                            x       y       z     vdW  Elec       q    Type
REMARK                         _______ _______ _______ _____ _____    ______ ____
ROOT
ATOM      1  C   UNL     1     -33.555  44.969 -17.635  0.00  0.00    +0.000 C 
ATOM      2  C   UNL     1     -33.560  44.567 -16.118  0.00  0.00    +0.000 C 
ATOM      3  C   UNL     1     -34.637  44.102 -18.372  0.00  0.00    +0.000 C 
ENDROOT
BRANCH   1   4
ATOM      4  C   UNL     1     -33.886  46.468 -17.699  0.00  0.00    +0.000 A 
ATOM      5  C   UNL     1     -34.028  47.102 -18.946  0.00  0.00    +0.000 A 
ATOM      6  C   UNL     1     -34.311  48.464 -19.041  0.00  0.00    +0.000 A 
ATOM      7  C   UNL     1     -34.449  49.211 -17.878  0.00  0.00    +0.000 A 
ATOM      8  C   UNL     1     -34.307  48.619 -16.629  0.00  0.00    +0.000 A 
ATOM      9  C   UNL     1     -34.022  47.257 -16.548  0.00  0.00    +0.000 A 
BRANCH   7  10
ATOM     10  O   UNL     1     -34.729  50.544 -17.934  0.00  0.00    +0.000 OA
ATOM     11  H   UNL     1     -34.054  51.025 -17.425  0.00  0.00    +0.000 HD
ENDBRANCH   7  10
ENDBRANCH   1   4
BRANCH   1  12
ATOM     12  C   UNL     1     -32.208  44.659 -18.303  0.00  0.00    +0.000 A 
ATOM     13  C   UNL     1     -32.172  44.191 -19.629  0.00  0.00    +0.000 A 
ATOM     14  C   UNL     1     -30.969  43.884 -20.259  0.00  0.00    +0.000 A 
ATOM     15  C   UNL     1     -29.777  44.040 -19.561  0.00  0.00    +0.000 A 
ATOM     16  C   UNL     1     -29.776  44.494 -18.248  0.00  0.00    +0.000 A 
ATOM     17  C   UNL     1     -30.986  44.794 -17.627  0.00  0.00    +0.000 A 
BRANCH  15  18
ATOM     18  O   UNL     1     -28.581  43.754 -20.150  0.00  0.00    +0.000 OA
ATOM     19  H   UNL     1     -27.869  43.959 -19.519  0.00  0.00    +0.000 HD
ENDBRANCH  15  18
ENDBRANCH   1  12
TORSDOF 4
ENDMDL
