MODEL 1
REMARK VINA RESULT:      -6.2      0.000      0.000
REMARK  Name = BX795.pdbqt.pdb
REMARK  7 active torsions:
REMARK  status: ('A' for Active; 'I' for Inactive)
REMARK    1  A    between atoms: C_4  and  N_25
REMARK    2  A    between atoms: N_8  and  C_10
REMARK    3  A    between atoms: C_12  and  N_16
REMARK    4  A    between atoms: N_25  and  C_27
REMARK    5  A    between atoms: C_27  and  C_28
REMARK    6  A    between atoms: C_29  and  N_30
REMARK    7  A    between atoms: C_31  and  C_34
REMARK                            x       y       z     vdW  Elec       q    Type
REMARK                         _______ _______ _______ _____ _____    ______ ____
ROOT
ATOM      1  I   UNL     1     -36.606  45.530  -9.659  0.00  0.00    +0.000 I 
ATOM      2  N   UNL     1     -34.394  45.810 -13.365  0.00  0.00    +0.000 NA
ATOM      3  N   UNL     1     -33.048  44.610 -11.853  0.00  0.00    +0.000 NA
ATOM      4  C   UNL     1     -35.356  45.973 -12.432  0.00  0.00    +0.000 A 
ATOM      5  C   UNL     1     -33.273  45.143 -13.057  0.00  0.00    +0.000 A 
ATOM      6  C   UNL     1     -35.219  45.408 -11.180  0.00  0.00    +0.000 A 
ATOM      7  C   UNL     1     -34.038  44.745 -10.952  0.00  0.00    +0.000 A 
ATOM      8  N   UNL     1     -32.252  45.015 -13.992  0.00  0.00    +0.000 N 
ATOM      9  H   UNL     1     -31.445  44.555 -13.597  0.00  0.00    +0.000 HD
ENDROOT
BRANCH   8  10
ATOM     10  C   UNL     1     -32.260  45.239 -15.374  0.00  0.00    +0.000 A 
ATOM     11  C   UNL     1     -31.658  44.360 -16.280  0.00  0.00    +0.000 A 
ATOM     12  C   UNL     1     -31.756  44.540 -17.659  0.00  0.00    +0.000 A 
ATOM     13  C   UNL     1     -32.496  45.608 -18.153  0.00  0.00    +0.000 A 
ATOM     14  C   UNL     1     -33.114  46.493 -17.273  0.00  0.00    +0.000 A 
ATOM     15  C   UNL     1     -32.998  46.305 -15.896  0.00  0.00    +0.000 A 
BRANCH  12  16
ATOM     16  N   UNL     1     -31.053  43.641 -18.481  0.00  0.00    +0.000 N 
ATOM     17  C   UNL     1     -29.839  43.883 -19.100  0.00  0.00    +0.000 C 
ATOM     18  O   UNL     1     -29.280  44.979 -19.121  0.00  0.00    +0.000 OA
ATOM     19  N   UNL     1     -29.304  42.763 -19.737  0.00  0.00    +0.000 N 
ATOM     20  C   UNL     1     -29.746  41.481 -19.869  0.00  0.00    +0.000 A 
ATOM     21  C   UNL     1     -28.142  42.658 -20.439  0.00  0.00    +0.000 A 
ATOM     22  C   UNL     1     -28.930  40.456 -20.664  0.00  0.00    +0.000 A 
ATOM     23  C   UNL     1     -27.739  41.328 -21.087  0.00  0.00    +0.000 A 
ATOM     24  H   UNL     1     -31.516  42.767 -18.695  0.00  0.00    +0.000 HD
ENDBRANCH  12  16
ENDBRANCH   8  10
BRANCH   4  25
ATOM     25  N   UNL     1     -36.537  46.673 -12.787  0.00  0.00    +0.000 N 
ATOM     26  H   UNL     1     -36.840  47.253 -12.007  0.00  0.00    +0.000 HD
BRANCH  25  27
ATOM     27  C   UNL     1     -36.508  47.363 -14.074  0.00  0.00    +0.000 C 
BRANCH  27  28
ATOM     28  C   UNL     1     -36.375  48.116 -15.402  0.00  0.00    +0.000 C 
ATOM     29  C   UNL     1     -36.275  48.792 -16.772  0.00  0.00    +0.000 C 
BRANCH  29  30
ATOM     30  N   UNL     1     -36.229  49.357 -18.000  0.00  0.00    +0.000 N 
ATOM     31  C   UNL     1     -36.995  50.396 -18.509  0.00  0.00    +0.000 C 
ATOM     32  O   UNL     1     -37.839  50.962 -17.817  0.00  0.00    +0.000 OA
ATOM     33  H   UNL     1     -35.581  48.900 -18.630  0.00  0.00    +0.000 HD
BRANCH  31  34
ATOM     34  C   UNL     1     -36.729  50.727 -19.899  0.00  0.00    +0.000 A 
ATOM     35  S   UNL     1     -37.812  51.751 -20.761  0.00  0.00    +0.000 S 
ATOM     36  C   UNL     1     -36.885  51.632 -22.174  0.00  0.00    +0.000 A 
ATOM     37  C   UNL     1     -35.776  50.846 -22.027  0.00  0.00    +0.000 A 
ATOM     38  C   UNL     1     -35.690  50.328 -20.715  0.00  0.00    +0.000 A 
ENDBRANCH  31  34
ENDBRANCH  29  30
ENDBRANCH  27  28
ENDBRANCH  25  27
ENDBRANCH   4  25
TORSDOF 7
ENDMDL
MODEL 2
REMARK VINA RESULT:      -6.2     22.946     24.480
REMARK  Name = BX795.pdbqt.pdb
REMARK  7 active torsions:
REMARK  status: ('A' for Active; 'I' for Inactive)
REMARK    1  A    between atoms: C_4  and  N_25
REMARK    2  A    between atoms: N_8  and  C_10
REMARK    3  A    between atoms: C_12  and  N_16
REMARK    4  A    between atoms: N_25  and  C_27
REMARK    5  A    between atoms: C_27  and  C_28
REMARK    6  A    between atoms: C_29  and  N_30
REMARK    7  A    between atoms: C_31  and  C_34
REMARK                            x       y       z     vdW  Elec       q    Type
REMARK                         _______ _______ _______ _____ _____    ______ ____
ROOT
ATOM      1  I   UNL     1     -11.768  60.389  -1.813  0.00  0.00    +0.000 I 
ATOM      2  N   UNL     1     -14.926  58.889  -4.359  0.00  0.00    +0.000 NA
ATOM      3  N   UNL     1     -15.714  60.884  -3.392  0.00  0.00    +0.000 NA
ATOM      4  C   UNL     1     -13.759  58.985  -3.687  0.00  0.00    +0.000 A 
ATOM      5  C   UNL     1     -15.868  59.829  -4.195  0.00  0.00    +0.000 A 
ATOM      6  C   UNL     1     -13.506  60.073  -2.875  0.00  0.00    +0.000 A 
ATOM      7  C   UNL     1     -14.527  60.985  -2.766  0.00  0.00    +0.000 A 
ATOM      8  N   UNL     1     -17.095  59.714  -4.840  0.00  0.00    +0.000 N 
ATOM      9  H   UNL     1     -17.727  60.451  -4.566  0.00  0.00    +0.000 HD
ENDROOT
BRANCH   8  10
ATOM     10  C   UNL     1     -17.483  58.887  -5.901  0.00  0.00    +0.000 A 
ATOM     11  C   UNL     1     -16.975  59.040  -7.195  0.00  0.00    +0.000 A 
ATOM     12  C   UNL     1     -17.291  58.152  -8.222  0.00  0.00    +0.000 A 
ATOM     13  C   UNL     1     -18.113  57.065  -7.949  0.00  0.00    +0.000 A 
ATOM     14  C   UNL     1     -18.624  56.882  -6.667  0.00  0.00    +0.000 A 
ATOM     15  C   UNL     1     -18.307  57.786  -5.653  0.00  0.00    +0.000 A 
BRANCH  12  16
ATOM     16  N   UNL     1     -16.787  58.437  -9.504  0.00  0.00    +0.000 N 
ATOM     17  C   UNL     1     -17.393  59.236 -10.458  0.00  0.00    +0.000 C 
ATOM     18  O   UNL     1     -18.531  59.692 -10.355  0.00  0.00    +0.000 OA
ATOM     19  N   UNL     1     -16.600  59.461 -11.583  0.00  0.00    +0.000 N 
ATOM     20  C   UNL     1     -15.348  59.045 -11.925  0.00  0.00    +0.000 A 
ATOM     21  C   UNL     1     -16.892  60.186 -12.699  0.00  0.00    +0.000 A 
ATOM     22  C   UNL     1     -14.736  59.448 -13.270  0.00  0.00    +0.000 A 
ATOM     23  C   UNL     1     -15.881  60.294 -13.846  0.00  0.00    +0.000 A 
ATOM     24  H   UNL     1     -15.939  57.954  -9.774  0.00  0.00    +0.000 HD
ENDBRANCH  12  16
ENDBRANCH   8  10
BRANCH   4  25
ATOM     25  N   UNL     1     -12.775  57.983  -3.886  0.00  0.00    +0.000 N 
ATOM     26  H   UNL     1     -12.780  57.336  -3.100  0.00  0.00    +0.000 HD
BRANCH  25  27
ATOM     27  C   UNL     1     -12.775  57.339  -5.196  0.00  0.00    +0.000 C 
BRANCH  27  28
ATOM     28  C   UNL     1     -12.864  56.722  -6.596  0.00  0.00    +0.000 C 
ATOM     29  C   UNL     1     -12.910  56.182  -8.028  0.00  0.00    +0.000 C 
BRANCH  29  30
ATOM     30  N   UNL     1     -12.903  55.735  -9.304  0.00  0.00    +0.000 N 
ATOM     31  C   UNL     1     -13.938  55.726 -10.229  0.00  0.00    +0.000 C 
ATOM     32  O   UNL     1     -15.043  56.191  -9.950  0.00  0.00    +0.000 OA
ATOM     33  H   UNL     1     -12.030  55.298  -9.574  0.00  0.00    +0.000 HD
BRANCH  31  34
ATOM     34  C   UNL     1     -13.612  55.116 -11.507  0.00  0.00    +0.000 A 
ATOM     35  S   UNL     1     -12.033  54.489 -11.781  0.00  0.00    +0.000 S 
ATOM     36  C   UNL     1     -12.434  54.022 -13.360  0.00  0.00    +0.000 A 
ATOM     37  C   UNL     1     -13.725  54.318 -13.698  0.00  0.00    +0.000 A 
ATOM     38  C   UNL     1     -14.400  54.947 -12.627  0.00  0.00    +0.000 A 
ENDBRANCH  31  34
ENDBRANCH  29  30
ENDBRANCH  27  28
ENDBRANCH  25  27
ENDBRANCH   4  25
TORSDOF 7
ENDMDL
MODEL 3
REMARK VINA RESULT:      -6.0      7.966     11.802
REMARK  Name = BX795.pdbqt.pdb
REMARK  7 active torsions:
REMARK  status: ('A' for Active; 'I' for Inactive)
REMARK    1  A    between atoms: C_4  and  N_25
REMARK    2  A    between atoms: N_8  and  C_10
REMARK    3  A    between atoms: C_12  and  N_16
REMARK    4  A    between atoms: N_25  and  C_27
REMARK    5  A    between atoms: C_27  and  C_28
REMARK    6  A    between atoms: C_29  and  N_30
REMARK    7  A    between atoms: C_31  and  C_34
REMARK                            x       y       z     vdW  Elec       q    Type
REMARK                         _______ _______ _______ _____ _____    ______ ____
ROOT
ATOM      1  I   UNL     1     -39.924  39.675  -2.129  0.00  0.00    +0.000 I 
ATOM      2  N   UNL     1     -36.448  41.840  -3.521  0.00  0.00    +0.000 NA
ATOM      3  N   UNL     1     -36.011  39.553  -3.859  0.00  0.00    +0.000 NA
ATOM      4  C   UNL     1     -37.651  41.564  -2.974  0.00  0.00    +0.000 A 
ATOM      5  C   UNL     1     -35.663  40.839  -3.943  0.00  0.00    +0.000 A 
ATOM      6  C   UNL     1     -38.103  40.262  -2.897  0.00  0.00    +0.000 A 
ATOM      7  C   UNL     1     -37.232  39.302  -3.351  0.00  0.00    +0.000 A 
ATOM      8  N   UNL     1     -34.399  41.107  -4.459  0.00  0.00    +0.000 N 
ATOM      9  H   UNL     1     -33.897  40.256  -4.665  0.00  0.00    +0.000 HD
ENDROOT
BRANCH   8  10
ATOM     10  C   UNL     1     -33.839  42.314  -4.893  0.00  0.00    +0.000 A 
ATOM     11  C   UNL     1     -34.152  42.883  -6.131  0.00  0.00    +0.000 A 
ATOM     12  C   UNL     1     -33.667  44.133  -6.514  0.00  0.00    +0.000 A 
ATOM     13  C   UNL     1     -32.868  44.850  -5.629  0.00  0.00    +0.000 A 
ATOM     14  C   UNL     1     -32.550  44.311  -4.385  0.00  0.00    +0.000 A 
ATOM     15  C   UNL     1     -33.035  43.054  -4.022  0.00  0.00    +0.000 A 
BRANCH  12  16
ATOM     16  N   UNL     1     -33.980  44.582  -7.809  0.00  0.00    +0.000 N 
ATOM     17  C   UNL     1     -33.247  44.337  -8.956  0.00  0.00    +0.000 C 
ATOM     18  O   UNL     1     -32.139  43.803  -8.967  0.00  0.00    +0.000 OA
ATOM     19  N   UNL     1     -33.869  44.781 -10.123  0.00  0.00    +0.000 N 
ATOM     20  C   UNL     1     -35.057  45.410 -10.350  0.00  0.00    +0.000 A 
ATOM     21  C   UNL     1     -33.423  44.705 -11.407  0.00  0.00    +0.000 A 
ATOM     22  C   UNL     1     -35.469  45.801 -11.773  0.00  0.00    +0.000 A 
ATOM     23  C   UNL     1     -34.257  45.278 -12.558  0.00  0.00    +0.000 A 
ATOM     24  H   UNL     1     -34.778  45.201  -7.891  0.00  0.00    +0.000 HD
ENDBRANCH  12  16
ENDBRANCH   8  10
BRANCH   4  25
ATOM     25  N   UNL     1     -38.468  42.642  -2.546  0.00  0.00    +0.000 N 
ATOM     26  H   UNL     1     -38.167  42.955  -1.625  0.00  0.00    +0.000 HD
BRANCH  25  27
ATOM     27  C   UNL     1     -38.665  43.718  -3.514  0.00  0.00    +0.000 C 
BRANCH  27  28
ATOM     28  C   UNL     1     -38.921  44.903  -4.451  0.00  0.00    +0.000 C 
ATOM     29  C   UNL     1     -39.183  46.142  -5.311  0.00  0.00    +0.000 C 
BRANCH  29  30
ATOM     30  N   UNL     1     -39.391  47.268  -6.031  0.00  0.00    +0.000 N 
ATOM     31  C   UNL     1     -39.278  48.591  -5.629  0.00  0.00    +0.000 C 
ATOM     32  O   UNL     1     -38.920  48.880  -4.488  0.00  0.00    +0.000 OA
ATOM     33  H   UNL     1     -39.732  47.090  -6.968  0.00  0.00    +0.000 HD
BRANCH  31  34
ATOM     34  C   UNL     1     -39.631  49.571  -6.642  0.00  0.00    +0.000 A 
ATOM     35  S   UNL     1     -40.961  50.633  -6.384  0.00  0.00    +0.000 S 
ATOM     36  C   UNL     1     -40.736  51.368  -7.895  0.00  0.00    +0.000 A 
ATOM     37  C   UNL     1     -39.687  50.845  -8.597  0.00  0.00    +0.000 A 
ATOM     38  C   UNL     1     -39.054  49.811  -7.872  0.00  0.00    +0.000 A 
ENDBRANCH  31  34
ENDBRANCH  29  30
ENDBRANCH  27  28
ENDBRANCH  25  27
ENDBRANCH   4  25
TORSDOF 7
ENDMDL
MODEL 4
REMARK VINA RESULT:      -5.9      9.240     11.979
REMARK  Name = BX795.pdbqt.pdb
REMARK  7 active torsions:
REMARK  status: ('A' for Active; 'I' for Inactive)
REMARK    1  A    between atoms: C_4  and  N_25
REMARK    2  A    between atoms: N_8  and  C_10
REMARK    3  A    between atoms: C_12  and  N_16
REMARK    4  A    between atoms: N_25  and  C_27
REMARK    5  A    between atoms: C_27  and  C_28
REMARK    6  A    between atoms: C_29  and  N_30
REMARK    7  A    between atoms: C_31  and  C_34
REMARK                            x       y       z     vdW  Elec       q    Type
REMARK                         _______ _______ _______ _____ _____    ______ ____
ROOT
ATOM      1  I   UNL     1     -36.760  38.077  -5.032  0.00  0.00    +0.000 I 
ATOM      2  N   UNL     1     -35.249  41.950  -6.224  0.00  0.00    +0.000 NA
ATOM      3  N   UNL     1     -33.954  40.335  -7.344  0.00  0.00    +0.000 NA
ATOM      4  C   UNL     1     -35.965  40.991  -5.599  0.00  0.00    +0.000 A 
ATOM      5  C   UNL     1     -34.268  41.604  -7.070  0.00  0.00    +0.000 A 
ATOM      6  C   UNL     1     -35.733  39.657  -5.868  0.00  0.00    +0.000 A 
ATOM      7  C   UNL     1     -34.709  39.396  -6.745  0.00  0.00    +0.000 A 
ATOM      8  N   UNL     1     -33.487  42.581  -7.678  0.00  0.00    +0.000 N 
ATOM      9  H   UNL     1     -32.745  42.172  -8.226  0.00  0.00    +0.000 HD
ENDROOT
BRANCH   8  10
ATOM     10  C   UNL     1     -33.695  43.961  -7.791  0.00  0.00    +0.000 A 
ATOM     11  C   UNL     1     -34.755  44.501  -8.526  0.00  0.00    +0.000 A 
ATOM     12  C   UNL     1     -35.012  45.871  -8.553  0.00  0.00    +0.000 A 
ATOM     13  C   UNL     1     -34.209  46.727  -7.806  0.00  0.00    +0.000 A 
ATOM     14  C   UNL     1     -33.154  46.214  -7.057  0.00  0.00    +0.000 A 
ATOM     15  C   UNL     1     -32.903  44.841  -7.049  0.00  0.00    +0.000 A 
BRANCH  12  16
ATOM     16  N   UNL     1     -36.057  46.319  -9.382  0.00  0.00    +0.000 N 
ATOM     17  C   UNL     1     -37.028  47.243  -9.040  0.00  0.00    +0.000 C 
ATOM     18  O   UNL     1     -37.185  47.694  -7.906  0.00  0.00    +0.000 OA
ATOM     19  N   UNL     1     -37.851  47.608 -10.105  0.00  0.00    +0.000 N 
ATOM     20  C   UNL     1     -37.884  47.229 -11.414  0.00  0.00    +0.000 A 
ATOM     21  C   UNL     1     -38.899  48.478 -10.112  0.00  0.00    +0.000 A 
ATOM     22  C   UNL     1     -38.945  47.800 -12.361  0.00  0.00    +0.000 A 
ATOM     23  C   UNL     1     -39.698  48.727 -11.396  0.00  0.00    +0.000 A 
ATOM     24  H   UNL     1     -36.143  45.867 -10.284  0.00  0.00    +0.000 HD
ENDBRANCH  12  16
ENDBRANCH   8  10
BRANCH   4  25
ATOM     25  N   UNL     1     -37.005  41.384  -4.718  0.00  0.00    +0.000 N 
ATOM     26  H   UNL     1     -36.777  41.095  -3.769  0.00  0.00    +0.000 HD
BRANCH  25  27
ATOM     27  C   UNL     1     -37.452  42.769  -4.835  0.00  0.00    +0.000 C 
BRANCH  27  28
ATOM     28  C   UNL     1     -37.825  44.246  -5.003  0.00  0.00    +0.000 C 
ATOM     29  C   UNL     1     -38.222  45.702  -5.260  0.00  0.00    +0.000 C 
BRANCH  29  30
ATOM     30  N   UNL     1     -38.611  46.970  -5.525  0.00  0.00    +0.000 N 
ATOM     31  C   UNL     1     -39.497  47.774  -4.823  0.00  0.00    +0.000 C 
ATOM     32  O   UNL     1     -40.034  47.376  -3.790  0.00  0.00    +0.000 OA
ATOM     33  H   UNL     1     -38.233  47.334  -6.392  0.00  0.00    +0.000 HD
BRANCH  31  34
ATOM     34  C   UNL     1     -39.740  49.079  -5.414  0.00  0.00    +0.000 A 
ATOM     35  S   UNL     1     -39.861  50.469  -4.407  0.00  0.00    +0.000 S 
ATOM     36  C   UNL     1     -40.143  51.477  -5.740  0.00  0.00    +0.000 A 
ATOM     37  C   UNL     1     -40.147  50.806  -6.931  0.00  0.00    +0.000 A 
ATOM     38  C   UNL     1     -39.915  49.426  -6.738  0.00  0.00    +0.000 A 
ENDBRANCH  31  34
ENDBRANCH  29  30
ENDBRANCH  27  28
ENDBRANCH  25  27
ENDBRANCH   4  25
TORSDOF 7
ENDMDL
MODEL 5
REMARK VINA RESULT:      -5.8      3.563      6.720
REMARK  Name = BX795.pdbqt.pdb
REMARK  7 active torsions:
REMARK  status: ('A' for Active; 'I' for Inactive)
REMARK    1  A    between atoms: C_4  and  N_25
REMARK    2  A    between atoms: N_8  and  C_10
REMARK    3  A    between atoms: C_12  and  N_16
REMARK    4  A    between atoms: N_25  and  C_27
REMARK    5  A    between atoms: C_27  and  C_28
REMARK    6  A    between atoms: C_29  and  N_30
REMARK    7  A    between atoms: C_31  and  C_34
REMARK                            x       y       z     vdW  Elec       q    Type
REMARK                         _______ _______ _______ _____ _____    ______ ____
ROOT
ATOM      1  I   UNL     1     -35.762  43.579  -8.099  0.00  0.00    +0.000 I 
ATOM      2  N   UNL     1     -36.094  45.773 -11.811  0.00  0.00    +0.000 NA
ATOM      3  N   UNL     1     -38.286  45.346 -11.070  0.00  0.00    +0.000 NA
ATOM      4  C   UNL     1     -35.573  45.111 -10.757  0.00  0.00    +0.000 A 
ATOM      5  C   UNL     1     -37.425  45.871 -11.944  0.00  0.00    +0.000 A 
ATOM      6  C   UNL     1     -36.398  44.582  -9.784  0.00  0.00    +0.000 A 
ATOM      7  C   UNL     1     -37.745  44.728 -10.003  0.00  0.00    +0.000 A 
ATOM      8  N   UNL     1     -37.975  46.504 -13.053  0.00  0.00    +0.000 N 
ATOM      9  H   UNL     1     -38.982  46.436 -13.055  0.00  0.00    +0.000 HD
ENDROOT
BRANCH   8  10
ATOM     10  C   UNL     1     -37.379  47.342 -14.003  0.00  0.00    +0.000 A 
ATOM     11  C   UNL     1     -36.888  46.864 -15.221  0.00  0.00    +0.000 A 
ATOM     12  C   UNL     1     -36.386  47.719 -16.202  0.00  0.00    +0.000 A 
ATOM     13  C   UNL     1     -36.396  49.091 -15.975  0.00  0.00    +0.000 A 
ATOM     14  C   UNL     1     -36.890  49.595 -14.775  0.00  0.00    +0.000 A 
ATOM     15  C   UNL     1     -37.379  48.725 -13.800  0.00  0.00    +0.000 A 
BRANCH  12  16
ATOM     16  N   UNL     1     -35.848  47.132 -17.361  0.00  0.00    +0.000 N 
ATOM     17  C   UNL     1     -34.583  46.586 -17.487  0.00  0.00    +0.000 C 
ATOM     18  O   UNL     1     -33.706  46.670 -16.628  0.00  0.00    +0.000 OA
ATOM     19  N   UNL     1     -34.370  45.944 -18.706  0.00  0.00    +0.000 N 
ATOM     20  C   UNL     1     -35.165  45.752 -19.796  0.00  0.00    +0.000 A 
ATOM     21  C   UNL     1     -33.247  45.315 -19.152  0.00  0.00    +0.000 A 
ATOM     22  C   UNL     1     -34.632  45.008 -21.025  0.00  0.00    +0.000 A 
ATOM     23  C   UNL     1     -33.208  44.683 -20.548  0.00  0.00    +0.000 A 
ATOM     24  H   UNL     1     -36.417  47.181 -18.198  0.00  0.00    +0.000 HD
ENDBRANCH  12  16
ENDBRANCH   8  10
BRANCH   4  25
ATOM     25  N   UNL     1     -34.161  45.031 -10.633  0.00  0.00    +0.000 N 
ATOM     26  H   UNL     1     -33.918  44.354  -9.913  0.00  0.00    +0.000 HD
BRANCH  25  27
ATOM     27  C   UNL     1     -33.420  44.876 -11.882  0.00  0.00    +0.000 C 
BRANCH  27  28
ATOM     28  C   UNL     1     -32.721  44.648 -13.226  0.00  0.00    +0.000 C 
ATOM     29  C   UNL     1     -32.102  44.449 -14.613  0.00  0.00    +0.000 C 
BRANCH  29  30
ATOM     30  N   UNL     1     -31.589  44.314 -15.857  0.00  0.00    +0.000 N 
ATOM     31  C   UNL     1     -30.808  43.288 -16.369  0.00  0.00    +0.000 C 
ATOM     32  O   UNL     1     -30.510  42.312 -15.681  0.00  0.00    +0.000 OA
ATOM     33  H   UNL     1     -31.766  45.112 -16.455  0.00  0.00    +0.000 HD
BRANCH  31  34
ATOM     34  C   UNL     1     -30.371  43.479 -17.742  0.00  0.00    +0.000 A 
ATOM     35  S   UNL     1     -30.599  42.224 -18.898  0.00  0.00    +0.000 S 
ATOM     36  C   UNL     1     -29.870  43.146 -20.120  0.00  0.00    +0.000 A 
ATOM     37  C   UNL     1     -29.458  44.377 -19.693  0.00  0.00    +0.000 A 
ATOM     38  C   UNL     1     -29.749  44.564 -18.323  0.00  0.00    +0.000 A 
ENDBRANCH  31  34
ENDBRANCH  29  30
ENDBRANCH  27  28
ENDBRANCH  25  27
ENDBRANCH   4  25
TORSDOF 7
ENDMDL
MODEL 6
REMARK VINA RESULT:      -5.6      7.787     10.903
REMARK  Name = BX795.pdbqt.pdb
REMARK  7 active torsions:
REMARK  status: ('A' for Active; 'I' for Inactive)
REMARK    1  A    between atoms: C_4  and  N_25
REMARK    2  A    between atoms: N_8  and  C_10
REMARK    3  A    between atoms: C_12  and  N_16
REMARK    4  A    between atoms: N_25  and  C_27
REMARK    5  A    between atoms: C_27  and  C_28
REMARK    6  A    between atoms: C_29  and  N_30
REMARK    7  A    between atoms: C_31  and  C_34
REMARK                            x       y       z     vdW  Elec       q    Type
REMARK                         _______ _______ _______ _____ _____    ______ ____
ROOT
ATOM      1  I   UNL     1     -38.197  37.030  -6.935  0.00  0.00    +0.000 I 
ATOM      2  N   UNL     1     -35.863  40.570  -6.087  0.00  0.00    +0.000 NA
ATOM      3  N   UNL     1     -35.454  39.046  -4.341  0.00  0.00    +0.000 NA
ATOM      4  C   UNL     1     -36.726  39.715  -6.676  0.00  0.00    +0.000 A 
ATOM      5  C   UNL     1     -35.256  40.221  -4.943  0.00  0.00    +0.000 A 
ATOM      6  C   UNL     1     -36.945  38.462  -6.141  0.00  0.00    +0.000 A 
ATOM      7  C   UNL     1     -36.283  38.191  -4.968  0.00  0.00    +0.000 A 
ATOM      8  N   UNL     1     -34.407  41.113  -4.298  0.00  0.00    +0.000 N 
ATOM      9  H   UNL     1     -34.083  40.743  -3.416  0.00  0.00    +0.000 HD
ENDROOT
BRANCH   8  10
ATOM     10  C   UNL     1     -33.815  42.293  -4.763  0.00  0.00    +0.000 A 
ATOM     11  C   UNL     1     -34.149  42.864  -5.995  0.00  0.00    +0.000 A 
ATOM     12  C   UNL     1     -33.628  44.090  -6.406  0.00  0.00    +0.000 A 
ATOM     13  C   UNL     1     -32.773  44.783  -5.557  0.00  0.00    +0.000 A 
ATOM     14  C   UNL     1     -32.433  44.243  -4.319  0.00  0.00    +0.000 A 
ATOM     15  C   UNL     1     -32.954  43.009  -3.927  0.00  0.00    +0.000 A 
BRANCH  12  16
ATOM     16  N   UNL     1     -33.969  44.540  -7.695  0.00  0.00    +0.000 N 
ATOM     17  C   UNL     1     -33.266  44.285  -8.859  0.00  0.00    +0.000 C 
ATOM     18  O   UNL     1     -32.164  43.740  -8.895  0.00  0.00    +0.000 OA
ATOM     19  N   UNL     1     -33.913  44.734 -10.011  0.00  0.00    +0.000 N 
ATOM     20  C   UNL     1     -35.099  45.375 -10.210  0.00  0.00    +0.000 A 
ATOM     21  C   UNL     1     -33.498  44.651 -11.306  0.00  0.00    +0.000 A 
ATOM     22  C   UNL     1     -35.542  45.767 -11.624  0.00  0.00    +0.000 A 
ATOM     23  C   UNL     1     -34.355  45.230 -12.437  0.00  0.00    +0.000 A 
ATOM     24  H   UNL     1     -34.762  45.167  -7.759  0.00  0.00    +0.000 HD
ENDBRANCH  12  16
ENDBRANCH   8  10
BRANCH   4  25
ATOM     25  N   UNL     1     -37.346  40.105  -7.891  0.00  0.00    +0.000 N 
ATOM     26  H   UNL     1     -38.197  39.563  -8.031  0.00  0.00    +0.000 HD
BRANCH  25  27
ATOM     27  C   UNL     1     -37.506  41.542  -8.094  0.00  0.00    +0.000 C 
BRANCH  27  28
ATOM     28  C   UNL     1     -37.781  43.036  -8.294  0.00  0.00    +0.000 C 
ATOM     29  C   UNL     1     -38.145  44.507  -8.513  0.00  0.00    +0.000 C 
BRANCH  29  30
ATOM     30  N   UNL     1     -38.519  45.794  -8.693  0.00  0.00    +0.000 N 
ATOM     31  C   UNL     1     -37.956  46.946  -8.162  0.00  0.00    +0.000 C 
ATOM     32  O   UNL     1     -36.962  46.892  -7.439  0.00  0.00    +0.000 OA
ATOM     33  H   UNL     1     -39.362  45.896  -9.245  0.00  0.00    +0.000 HD
BRANCH  31  34
ATOM     34  C   UNL     1     -38.641  48.179  -8.511  0.00  0.00    +0.000 A 
ATOM     35  S   UNL     1     -39.588  48.259  -9.946  0.00  0.00    +0.000 S 
ATOM     36  C   UNL     1     -39.986  49.881  -9.657  0.00  0.00    +0.000 A 
ATOM     37  C   UNL     1     -39.433  50.375  -8.508  0.00  0.00    +0.000 A 
ATOM     38  C   UNL     1     -38.660  49.392  -7.852  0.00  0.00    +0.000 A 
ENDBRANCH  31  34
ENDBRANCH  29  30
ENDBRANCH  27  28
ENDBRANCH  25  27
ENDBRANCH   4  25
TORSDOF 7
ENDMDL
MODEL 7
REMARK VINA RESULT:      -5.5      6.894     10.579
REMARK  Name = BX795.pdbqt.pdb
REMARK  7 active torsions:
REMARK  status: ('A' for Active; 'I' for Inactive)
REMARK    1  A    between atoms: C_4  and  N_25
REMARK    2  A    between atoms: N_8  and  C_10
REMARK    3  A    between atoms: C_12  and  N_16
REMARK    4  A    between atoms: N_25  and  C_27
REMARK    5  A    between atoms: C_27  and  C_28
REMARK    6  A    between atoms: C_29  and  N_30
REMARK    7  A    between atoms: C_31  and  C_34
REMARK                            x       y       z     vdW  Elec       q    Type
REMARK                         _______ _______ _______ _____ _____    ______ ____
ROOT
ATOM      1  I   UNL     1     -37.843  38.090  -5.430  0.00  0.00    +0.000 I 
ATOM      2  N   UNL     1     -35.572  41.727  -5.993  0.00  0.00    +0.000 NA
ATOM      3  N   UNL     1     -34.245  40.285  -4.691  0.00  0.00    +0.000 NA
ATOM      4  C   UNL     1     -36.576  40.825  -6.029  0.00  0.00    +0.000 A 
ATOM      5  C   UNL     1     -34.443  41.441  -5.329  0.00  0.00    +0.000 A 
ATOM      6  C   UNL     1     -36.427  39.588  -5.434  0.00  0.00    +0.000 A 
ATOM      7  C   UNL     1     -35.239  39.383  -4.776  0.00  0.00    +0.000 A 
ATOM      8  N   UNL     1     -33.423  42.382  -5.240  0.00  0.00    +0.000 N 
ATOM      9  H   UNL     1     -32.671  42.057  -4.650  0.00  0.00    +0.000 HD
ENDROOT
BRANCH   8  10
ATOM     10  C   UNL     1     -33.215  43.560  -5.967  0.00  0.00    +0.000 A 
ATOM     11  C   UNL     1     -33.347  43.614  -7.358  0.00  0.00    +0.000 A 
ATOM     12  C   UNL     1     -33.235  44.811  -8.064  0.00  0.00    +0.000 A 
ATOM     13  C   UNL     1     -33.012  45.993  -7.366  0.00  0.00    +0.000 A 
ATOM     14  C   UNL     1     -32.887  45.968  -5.979  0.00  0.00    +0.000 A 
ATOM     15  C   UNL     1     -32.991  44.760  -5.289  0.00  0.00    +0.000 A 
BRANCH  12  16
ATOM     16  N   UNL     1     -33.311  44.746  -9.468  0.00  0.00    +0.000 N 
ATOM     17  C   UNL     1     -34.349  45.220 -10.250  0.00  0.00    +0.000 C 
ATOM     18  O   UNL     1     -35.415  45.641  -9.802  0.00  0.00    +0.000 OA
ATOM     19  N   UNL     1     -34.092  45.153 -11.619  0.00  0.00    +0.000 N 
ATOM     20  C   UNL     1     -33.019  44.710 -12.333  0.00  0.00    +0.000 A 
ATOM     21  C   UNL     1     -34.895  45.525 -12.655  0.00  0.00    +0.000 A 
ATOM     22  C   UNL     1     -33.038  44.744 -13.865  0.00  0.00    +0.000 A 
ATOM     23  C   UNL     1     -34.430  45.348 -14.105  0.00  0.00    +0.000 A 
ATOM     24  H   UNL     1     -32.569  44.241  -9.937  0.00  0.00    +0.000 HD
ENDBRANCH  12  16
ENDBRANCH   8  10
BRANCH   4  25
ATOM     25  N   UNL     1     -37.756  41.148  -6.748  0.00  0.00    +0.000 N 
ATOM     26  H   UNL     1     -38.558  40.701  -6.309  0.00  0.00    +0.000 HD
BRANCH  25  27
ATOM     27  C   UNL     1     -37.948  42.562  -7.056  0.00  0.00    +0.000 C 
BRANCH  27  28
ATOM     28  C   UNL     1     -38.198  44.057  -7.283  0.00  0.00    +0.000 C 
ATOM     29  C   UNL     1     -38.514  45.546  -7.443  0.00  0.00    +0.000 C 
BRANCH  29  30
ATOM     30  N   UNL     1     -38.809  46.863  -7.531  0.00  0.00    +0.000 N 
ATOM     31  C   UNL     1     -39.083  47.764  -6.511  0.00  0.00    +0.000 C 
ATOM     32  O   UNL     1     -39.051  47.416  -5.331  0.00  0.00    +0.000 OA
ATOM     33  H   UNL     1     -38.894  47.195  -8.484  0.00  0.00    +0.000 HD
BRANCH  31  34
ATOM     34  C   UNL     1     -39.421  49.106  -6.954  0.00  0.00    +0.000 A 
ATOM     35  S   UNL     1     -40.266  50.172  -5.899  0.00  0.00    +0.000 S 
ATOM     36  C   UNL     1     -40.285  51.399  -7.067  0.00  0.00    +0.000 A 
ATOM     37  C   UNL     1     -39.672  51.041  -8.235  0.00  0.00    +0.000 A 
ATOM     38  C   UNL     1     -39.175  49.720  -8.165  0.00  0.00    +0.000 A 
ENDBRANCH  31  34
ENDBRANCH  29  30
ENDBRANCH  27  28
ENDBRANCH  25  27
ENDBRANCH   4  25
TORSDOF 7
ENDMDL
MODEL 8
REMARK VINA RESULT:      -5.5     18.807     20.813
REMARK  Name = BX795.pdbqt.pdb
REMARK  7 active torsions:
REMARK  status: ('A' for Active; 'I' for Inactive)
REMARK    1  A    between atoms: C_4  and  N_25
REMARK    2  A    between atoms: N_8  and  C_10
REMARK    3  A    between atoms: C_12  and  N_16
REMARK    4  A    between atoms: N_25  and  C_27
REMARK    5  A    between atoms: C_27  and  C_28
REMARK    6  A    between atoms: C_29  and  N_30
REMARK    7  A    between atoms: C_31  and  C_34
REMARK                            x       y       z     vdW  Elec       q    Type
REMARK                         _______ _______ _______ _____ _____    ______ ____
ROOT
ATOM      1  I   UNL     1     -35.727  69.990 -21.428  0.00  0.00    +0.000 I 
ATOM      2  N   UNL     1     -32.516  67.453 -20.029  0.00  0.00    +0.000 NA
ATOM      3  N   UNL     1     -32.548  69.350 -18.635  0.00  0.00    +0.000 NA
ATOM      4  C   UNL     1     -33.537  67.938 -20.767  0.00  0.00    +0.000 A 
ATOM      5  C   UNL     1     -32.048  68.165 -18.993  0.00  0.00    +0.000 A 
ATOM      6  C   UNL     1     -34.140  69.133 -20.431  0.00  0.00    +0.000 A 
ATOM      7  C   UNL     1     -33.594  69.793 -19.357  0.00  0.00    +0.000 A 
ATOM      8  N   UNL     1     -30.962  67.702 -18.257  0.00  0.00    +0.000 N 
ATOM      9  H   UNL     1     -30.676  68.373 -17.560  0.00  0.00    +0.000 HD
ENDROOT
BRANCH   8  10
ATOM     10  C   UNL     1     -30.375  66.432 -18.216  0.00  0.00    +0.000 A 
ATOM     11  C   UNL     1     -29.301  66.076 -19.038  0.00  0.00    +0.000 A 
ATOM     12  C   UNL     1     -28.659  64.844 -18.922  0.00  0.00    +0.000 A 
ATOM     13  C   UNL     1     -29.078  63.951 -17.942  0.00  0.00    +0.000 A 
ATOM     14  C   UNL     1     -30.137  64.285 -17.102  0.00  0.00    +0.000 A 
ATOM     15  C   UNL     1     -30.776  65.517 -17.239  0.00  0.00    +0.000 A 
BRANCH  12  16
ATOM     16  N   UNL     1     -27.639  64.554 -19.846  0.00  0.00    +0.000 N 
ATOM     17  C   UNL     1     -27.802  63.927 -21.069  0.00  0.00    +0.000 C 
ATOM     18  O   UNL     1     -28.854  63.414 -21.447  0.00  0.00    +0.000 OA
ATOM     19  N   UNL     1     -26.641  63.901 -21.842  0.00  0.00    +0.000 N 
ATOM     20  C   UNL     1     -25.380  64.370 -21.624  0.00  0.00    +0.000 A 
ATOM     21  C   UNL     1     -26.454  63.360 -23.078  0.00  0.00    +0.000 A 
ATOM     22  C   UNL     1     -24.284  64.167 -22.676  0.00  0.00    +0.000 A 
ATOM     23  C   UNL     1     -25.080  63.418 -23.755  0.00  0.00    +0.000 A 
ATOM     24  H   UNL     1     -26.692  64.761 -19.553  0.00  0.00    +0.000 HD
ENDBRANCH  12  16
ENDBRANCH   8  10
BRANCH   4  25
ATOM     25  N   UNL     1     -34.021  67.161 -21.851  0.00  0.00    +0.000 N 
ATOM     26  H   UNL     1     -34.592  67.742 -22.461  0.00  0.00    +0.000 HD
BRANCH  25  27
ATOM     27  C   UNL     1     -33.027  66.349 -22.549  0.00  0.00    +0.000 C 
BRANCH  27  28
ATOM     28  C   UNL     1     -31.927  65.495 -23.189  0.00  0.00    +0.000 C 
ATOM     29  C   UNL     1     -30.889  64.569 -23.828  0.00  0.00    +0.000 C 
BRANCH  29  30
ATOM     30  N   UNL     1     -30.014  63.723 -24.416  0.00  0.00    +0.000 N 
ATOM     31  C   UNL     1     -29.453  63.792 -25.684  0.00  0.00    +0.000 C 
ATOM     32  O   UNL     1     -29.706  64.729 -26.440  0.00  0.00    +0.000 OA
ATOM     33  H   UNL     1     -29.804  62.905 -23.855  0.00  0.00    +0.000 HD
BRANCH  31  34
ATOM     34  C   UNL     1     -28.585  62.680 -26.031  0.00  0.00    +0.000 A 
ATOM     35  S   UNL     1     -29.060  61.069 -25.652  0.00  0.00    +0.000 S 
ATOM     36  C   UNL     1     -27.628  60.437 -26.304  0.00  0.00    +0.000 A 
ATOM     37  C   UNL     1     -26.795  61.398 -26.805  0.00  0.00    +0.000 A 
ATOM     38  C   UNL     1     -27.350  62.687 -26.646  0.00  0.00    +0.000 A 
ENDBRANCH  31  34
ENDBRANCH  29  30
ENDBRANCH  27  28
ENDBRANCH  25  27
ENDBRANCH   4  25
TORSDOF 7
ENDMDL
MODEL 9
REMARK VINA RESULT:      -5.5     21.007     23.703
REMARK  Name = BX795.pdbqt.pdb
REMARK  7 active torsions:
REMARK  status: ('A' for Active; 'I' for Inactive)
REMARK    1  A    between atoms: C_4  and  N_25
REMARK    2  A    between atoms: N_8  and  C_10
REMARK    3  A    between atoms: C_12  and  N_16
REMARK    4  A    between atoms: N_25  and  C_27
REMARK    5  A    between atoms: C_27  and  C_28
REMARK    6  A    between atoms: C_29  and  N_30
REMARK    7  A    between atoms: C_31  and  C_34
REMARK                            x       y       z     vdW  Elec       q    Type
REMARK                         _______ _______ _______ _____ _____    ______ ____
ROOT
ATOM      1  I   UNL     1      -7.456  52.745 -10.210  0.00  0.00    +0.000 I 
ATOM      2  N   UNL     1     -10.214  50.163  -8.105  0.00  0.00    +0.000 NA
ATOM      3  N   UNL     1      -8.641  50.917  -6.526  0.00  0.00    +0.000 NA
ATOM      4  C   UNL     1      -9.593  50.838  -9.096  0.00  0.00    +0.000 A 
ATOM      5  C   UNL     1      -9.727  50.215  -6.857  0.00  0.00    +0.000 A 
ATOM      6  C   UNL     1      -8.493  51.626  -8.824  0.00  0.00    +0.000 A 
ATOM      7  C   UNL     1      -8.063  51.618  -7.519  0.00  0.00    +0.000 A 
ATOM      8  N   UNL     1     -10.326  49.482  -5.838  0.00  0.00    +0.000 N 
ATOM      9  H   UNL     1      -9.809  49.560  -4.974  0.00  0.00    +0.000 HD
ENDROOT
BRANCH   8  10
ATOM     10  C   UNL     1     -11.576  48.854  -5.792  0.00  0.00    +0.000 A 
ATOM     11  C   UNL     1     -11.766  47.534  -6.211  0.00  0.00    +0.000 A 
ATOM     12  C   UNL     1     -12.992  46.884  -6.071  0.00  0.00    +0.000 A 
ATOM     13  C   UNL     1     -14.052  47.557  -5.472  0.00  0.00    +0.000 A 
ATOM     14  C   UNL     1     -13.886  48.868  -5.036  0.00  0.00    +0.000 A 
ATOM     15  C   UNL     1     -12.656  49.508  -5.194  0.00  0.00    +0.000 A 
BRANCH  12  16
ATOM     16  N   UNL     1     -13.100  45.582  -6.591  0.00  0.00    +0.000 N 
ATOM     17  C   UNL     1     -13.383  45.250  -7.905  0.00  0.00    +0.000 C 
ATOM     18  O   UNL     1     -13.717  46.063  -8.765  0.00  0.00    +0.000 OA
ATOM     19  N   UNL     1     -13.284  43.884  -8.170  0.00  0.00    +0.000 N 
ATOM     20  C   UNL     1     -12.965  42.816  -7.386  0.00  0.00    +0.000 A 
ATOM     21  C   UNL     1     -13.502  43.227  -9.343  0.00  0.00    +0.000 A 
ATOM     22  C   UNL     1     -12.961  41.399  -7.970  0.00  0.00    +0.000 A 
ATOM     23  C   UNL     1     -13.360  41.703  -9.421  0.00  0.00    +0.000 A 
ATOM     24  H   UNL     1     -13.034  44.822  -5.925  0.00  0.00    +0.000 HD
ENDBRANCH  12  16
ENDBRANCH   8  10
BRANCH   4  25
ATOM     25  N   UNL     1     -10.135  50.775 -10.405  0.00  0.00    +0.000 N 
ATOM     26  H   UNL     1      -9.439  51.084 -11.080  0.00  0.00    +0.000 HD
BRANCH  25  27
ATOM     27  C   UNL     1     -10.806  49.527 -10.759  0.00  0.00    +0.000 C 
BRANCH  27  28
ATOM     28  C   UNL     1     -11.604  48.272 -11.128  0.00  0.00    +0.000 C 
ATOM     29  C   UNL     1     -12.479  47.072 -11.498  0.00  0.00    +0.000 C 
BRANCH  29  30
ATOM     30  N   UNL     1     -13.287  46.046 -11.850  0.00  0.00    +0.000 N 
ATOM     31  C   UNL     1     -13.723  45.676 -13.115  0.00  0.00    +0.000 C 
ATOM     32  O   UNL     1     -13.358  46.289 -14.117  0.00  0.00    +0.000 OA
ATOM     33  H   UNL     1     -13.656  45.533 -11.058  0.00  0.00    +0.000 HD
BRANCH  31  34
ATOM     34  C   UNL     1     -14.639  44.548 -13.140  0.00  0.00    +0.000 A 
ATOM     35  S   UNL     1     -14.585  43.427 -14.445  0.00  0.00    +0.000 S 
ATOM     36  C   UNL     1     -15.860  42.522 -13.791  0.00  0.00    +0.000 A 
ATOM     37  C   UNL     1     -16.333  43.031 -12.613  0.00  0.00    +0.000 A 
ATOM     38  C   UNL     1     -15.627  44.197 -12.243  0.00  0.00    +0.000 A 
ENDBRANCH  31  34
ENDBRANCH  29  30
ENDBRANCH  27  28
ENDBRANCH  25  27
ENDBRANCH   4  25
TORSDOF 7
ENDMDL
