MODEL 1
REMARK VINA RESULT:      -2.7      0.000      0.000
REMARK  Name = CadmiumAcetate.pdbqt.pdb
REMARK  1 active torsions:
REMARK  status: ('A' for Active; 'I' for Inactive)
REMARK    1  A    between atoms: C_3  and  O_4
REMARK                            x       y       z     vdW  Elec       q    Type
REMARK                         _______ _______ _______ _____ _____    ______ ____
ROOT
ATOM      1  O   UNL     1     -14.306  50.539  -6.345  0.00  0.00    +0.000 OA
ATOM      2  C   UNL     1     -14.933  48.587  -5.306  0.00  0.00    +0.000 C 
ATOM      3  C   UNL     1     -15.213  49.949  -5.796  0.00  0.00    +0.000 C 
ENDROOT
BRANCH   3   4
ATOM      4  O   UNL     1     -16.448  50.406  -5.588  0.00  0.00    +0.000 OA
ATOM      5  H   UNL     1     -16.662  50.044  -4.708  0.00  0.00    +0.000 HD
ENDBRANCH   3   4
TORSDOF 1
ENDMDL
MODEL 2
REMARK VINA RESULT:      -2.6     16.125     16.812
REMARK  Name = CadmiumAcetate.pdbqt.pdb
REMARK  1 active torsions:
REMARK  status: ('A' for Active; 'I' for Inactive)
REMARK    1  A    between atoms: C_3  and  O_4
REMARK                            x       y       z     vdW  Elec       q    Type
REMARK                         _______ _______ _______ _____ _____    ______ ____
ROOT
ATOM      1  O   UNL     1     -26.540  41.795   5.022  0.00  0.00    +0.000 OA
ATOM      2  C   UNL     1     -25.597  40.037   3.879  0.00  0.00    +0.000 C 
ATOM      3  C   UNL     1     -25.657  41.461   4.261  0.00  0.00    +0.000 C 
ENDROOT
BRANCH   3   4
ATOM      4  O   UNL     1     -24.725  42.250   3.728  0.00  0.00    +0.000 OA
ATOM      5  H   UNL     1     -24.491  42.835   4.473  0.00  0.00    +0.000 HD
ENDBRANCH   3   4
TORSDOF 1
ENDMDL
MODEL 3
REMARK VINA RESULT:      -2.6     27.342     27.506
REMARK  Name = CadmiumAcetate.pdbqt.pdb
REMARK  1 active torsions:
REMARK  status: ('A' for Active; 'I' for Inactive)
REMARK    1  A    between atoms: C_3  and  O_4
REMARK                            x       y       z     vdW  Elec       q    Type
REMARK                         _______ _______ _______ _____ _____    ______ ____
ROOT
ATOM      1  O   UNL     1     -24.382  52.692 -32.059  0.00  0.00    +0.000 OA
ATOM      2  C   UNL     1     -25.659  50.781 -32.004  0.00  0.00    +0.000 C 
ATOM      3  C   UNL     1     -24.983  51.915 -31.346  0.00  0.00    +0.000 C 
ENDROOT
BRANCH   3   4
ATOM      4  O   UNL     1     -25.099  51.979 -30.021  0.00  0.00    +0.000 OA
ATOM      5  H   UNL     1     -24.305  52.482 -29.762  0.00  0.00    +0.000 HD
ENDBRANCH   3   4
TORSDOF 1
ENDMDL
MODEL 4
REMARK VINA RESULT:      -2.5     17.787     17.962
REMARK  Name = CadmiumAcetate.pdbqt.pdb
REMARK  1 active torsions:
REMARK  status: ('A' for Active; 'I' for Inactive)
REMARK    1  A    between atoms: C_3  and  O_4
REMARK                            x       y       z     vdW  Elec       q    Type
REMARK                         _______ _______ _______ _____ _____    ______ ____
ROOT
ATOM      1  O   UNL     1     -32.864  46.165  -7.359  0.00  0.00    +0.000 OA
ATOM      2  C   UNL     1     -32.578  44.575  -5.723  0.00  0.00    +0.000 C 
ATOM      3  C   UNL     1     -32.404  45.072  -7.101  0.00  0.00    +0.000 C 
ENDROOT
BRANCH   3   4
ATOM      4  O   UNL     1     -31.752  44.266  -7.938  0.00  0.00    +0.000 OA
ATOM      5  H   UNL     1     -32.308  43.465  -7.937  0.00  0.00    +0.000 HD
ENDBRANCH   3   4
TORSDOF 1
ENDMDL
MODEL 5
REMARK VINA RESULT:      -2.5     18.568     19.087
REMARK  Name = CadmiumAcetate.pdbqt.pdb
REMARK  1 active torsions:
REMARK  status: ('A' for Active; 'I' for Inactive)
REMARK    1  A    between atoms: C_3  and  O_4
REMARK                            x       y       z     vdW  Elec       q    Type
REMARK                         _______ _______ _______ _____ _____    ______ ____
ROOT
ATOM      1  O   UNL     1     -34.862  46.117  -5.203  0.00  0.00    +0.000 OA
ATOM      2  C   UNL     1     -32.860  45.670  -6.242  0.00  0.00    +0.000 C 
ATOM      3  C   UNL     1     -33.785  45.567  -5.098  0.00  0.00    +0.000 C 
ENDROOT
BRANCH   3   4
ATOM      4  O   UNL     1     -33.346  44.873  -4.050  0.00  0.00    +0.000 OA
ATOM      5  H   UNL     1     -32.383  44.845  -4.201  0.00  0.00    +0.000 HD
ENDBRANCH   3   4
TORSDOF 1
ENDMDL
MODEL 6
REMARK VINA RESULT:      -2.4     18.073     18.697
REMARK  Name = CadmiumAcetate.pdbqt.pdb
REMARK  1 active torsions:
REMARK  status: ('A' for Active; 'I' for Inactive)
REMARK    1  A    between atoms: C_3  and  O_4
REMARK                            x       y       z     vdW  Elec       q    Type
REMARK                         _______ _______ _______ _____ _____    ______ ____
ROOT
ATOM      1  O   UNL     1     -33.563  43.055  -2.914  0.00  0.00    +0.000 OA
ATOM      2  C   UNL     1     -32.488  44.008  -4.709  0.00  0.00    +0.000 C 
ATOM      3  C   UNL     1     -32.663  43.791  -3.261  0.00  0.00    +0.000 C 
ENDROOT
BRANCH   3   4
ATOM      4  O   UNL     1     -31.808  44.430  -2.464  0.00  0.00    +0.000 OA
ATOM      5  H   UNL     1     -31.378  45.058  -3.074  0.00  0.00    +0.000 HD
ENDBRANCH   3   4
TORSDOF 1
ENDMDL
MODEL 7
REMARK VINA RESULT:      -2.3     18.230     18.550
REMARK  Name = CadmiumAcetate.pdbqt.pdb
REMARK  1 active torsions:
REMARK  status: ('A' for Active; 'I' for Inactive)
REMARK    1  A    between atoms: C_3  and  O_4
REMARK                            x       y       z     vdW  Elec       q    Type
REMARK                         _______ _______ _______ _____ _____    ______ ____
ROOT
ATOM      1  O   UNL     1     -30.569  50.473   4.960  0.00  0.00    +0.000 OA
ATOM      2  C   UNL     1     -29.300  50.921   6.824  0.00  0.00    +0.000 C 
ATOM      3  C   UNL     1     -29.812  51.264   5.484  0.00  0.00    +0.000 C 
ENDROOT
BRANCH   3   4
ATOM      4  O   UNL     1     -29.391  52.420   4.973  0.00  0.00    +0.000 OA
ATOM      5  H   UNL     1     -28.753  52.728   5.642  0.00  0.00    +0.000 HD
ENDBRANCH   3   4
TORSDOF 1
ENDMDL
MODEL 8
REMARK VINA RESULT:      -2.3      7.851      7.905
REMARK  Name = CadmiumAcetate.pdbqt.pdb
REMARK  1 active torsions:
REMARK  status: ('A' for Active; 'I' for Inactive)
REMARK    1  A    between atoms: C_3  and  O_4
REMARK                            x       y       z     vdW  Elec       q    Type
REMARK                         _______ _______ _______ _____ _____    ______ ____
ROOT
ATOM      1  O   UNL     1     -16.704  49.258   1.969  0.00  0.00    +0.000 OA
ATOM      2  C   UNL     1     -15.632  51.265   1.644  0.00  0.00    +0.000 C 
ATOM      3  C   UNL     1     -16.851  50.451   1.804  0.00  0.00    +0.000 C 
ENDROOT
BRANCH   3   4
ATOM      4  O   UNL     1     -18.008  51.109   1.752  0.00  0.00    +0.000 OA
ATOM      5  H   UNL     1     -17.940  51.720   2.509  0.00  0.00    +0.000 HD
ENDBRANCH   3   4
TORSDOF 1
ENDMDL
MODEL 9
REMARK VINA RESULT:      -2.3     15.053     15.419
REMARK  Name = CadmiumAcetate.pdbqt.pdb
REMARK  1 active torsions:
REMARK  status: ('A' for Active; 'I' for Inactive)
REMARK    1  A    between atoms: C_3  and  O_4
REMARK                            x       y       z     vdW  Elec       q    Type
REMARK                         _______ _______ _______ _____ _____    ______ ____
ROOT
ATOM      1  O   UNL     1     -25.574  38.789 -11.040  0.00  0.00    +0.000 OA
ATOM      2  C   UNL     1     -25.136  40.648  -9.760  0.00  0.00    +0.000 C 
ATOM      3  C   UNL     1     -25.888  39.939 -10.813  0.00  0.00    +0.000 C 
ENDROOT
BRANCH   3   4
ATOM      4  O   UNL     1     -26.849  40.635 -11.418  0.00  0.00    +0.000 OA
ATOM      5  H   UNL     1     -26.508  41.548 -11.377  0.00  0.00    +0.000 HD
ENDBRANCH   3   4
TORSDOF 1
ENDMDL
