MODEL 1
REMARK VINA RESULT:      -7.3      0.000      0.000
REMARK  Name = Calcitriol.pdbqt.pdb
REMARK  9 active torsions:
REMARK  status: ('A' for Active; 'I' for Inactive)
REMARK    1  A    between atoms: C_2  and  C_24
REMARK    2  A    between atoms: C_7  and  C_11
REMARK    3  A    between atoms: C_12  and  C_13
REMARK    4  A    between atoms: C_16  and  O_20
REMARK    5  A    between atoms: C_18  and  O_22
REMARK    6  A    between atoms: C_24  and  C_26
REMARK    7  A    between atoms: C_27  and  C_28
REMARK    8  A    between atoms: C_28  and  C_29
REMARK    9  A    between atoms: C_29  and  O_32
REMARK                            x       y       z     vdW  Elec       q    Type
REMARK                         _______ _______ _______ _____ _____    ______ ____
ROOT
ATOM      1  C   UNL     1     -14.857  55.743 -22.136  0.00  0.00    +0.000 C 
ATOM      2  C   UNL     1     -15.661  56.480 -21.069  0.00  0.00    +0.000 C 
ATOM      3  C   UNL     1     -15.772  55.917 -23.466  0.00  0.00    +0.000 C 
ATOM      4  C   UNL     1     -16.778  57.130 -21.673  0.00  0.00    +0.000 C 
ATOM      5  C   UNL     1     -16.838  56.815 -23.143  0.00  0.00    +0.000 C 
ATOM      6  C   UNL     1     -14.723  54.296 -21.905  0.00  0.00    +0.000 C 
ATOM      7  C   UNL     1     -15.984  54.794 -24.387  0.00  0.00    +0.000 C 
ATOM      8  C   UNL     1     -13.512  56.470 -22.421  0.00  0.00    +0.000 C 
ATOM      9  C   UNL     1     -14.976  52.978 -22.617  0.00  0.00    +0.000 C 
ATOM     10  C   UNL     1     -15.606  53.520 -23.884  0.00  0.00    +0.000 C 
ENDROOT
BRANCH   7  11
ATOM     11  C   UNL     1     -16.599  54.884 -25.524  0.00  0.00    +0.000 C 
ATOM     12  C   UNL     1     -17.335  54.979 -26.866  0.00  0.00    +0.000 C 
BRANCH  12  13
ATOM     13  C   UNL     1     -17.964  55.054 -27.999  0.00  0.00    +0.000 A 
ATOM     14  C   UNL     1     -18.417  53.855 -28.639  0.00  0.00    +0.000 A 
ATOM     15  C   UNL     1     -18.243  56.296 -28.788  0.00  0.00    +0.000 A 
ATOM     16  C   UNL     1     -19.079  53.601 -29.875  0.00  0.00    +0.000 A 
ATOM     17  C   UNL     1     -19.271  54.857 -30.517  0.00  0.00    +0.000 A 
ATOM     18  C   UNL     1     -18.928  56.179 -30.113  0.00  0.00    +0.000 A 
ATOM     19  C   UNL     1     -17.903  57.519 -28.341  0.00  0.00    +0.000 C 
BRANCH  16  20
ATOM     20  O   UNL     1     -19.973  52.578 -30.002  0.00  0.00    +0.000 OA
ATOM     21  H   UNL     1     -19.526  51.715 -29.981  0.00  0.00    +0.000 HD
ENDBRANCH  16  20
BRANCH  18  22
ATOM     22  O   UNL     1     -19.218  57.284 -30.879  0.00  0.00    +0.000 OA
ATOM     23  H   UNL     1     -18.519  57.423 -31.547  0.00  0.00    +0.000 HD
ENDBRANCH  18  22
ENDBRANCH  12  13
ENDBRANCH   7  11
BRANCH   2  24
ATOM     24  C   UNL     1     -15.269  56.639 -19.705  0.00  0.00    +0.000 C 
ATOM     25  C   UNL     1     -14.098  55.911 -19.096  0.00  0.00    +0.000 C 
BRANCH  24  26
ATOM     26  C   UNL     1     -16.081  57.359 -18.786  0.00  0.00    +0.000 C 
ATOM     27  C   UNL     1     -16.956  58.122 -17.784  0.00  0.00    +0.000 C 
BRANCH  27  28
ATOM     28  C   UNL     1     -17.833  58.874 -16.774  0.00  0.00    +0.000 C 
BRANCH  28  29
ATOM     29  C   UNL     1     -18.671  59.587 -15.811  0.00  0.00    +0.000 C 
ATOM     30  C   UNL     1     -17.876  60.140 -14.623  0.00  0.00    +0.000 C 
ATOM     31  C   UNL     1     -19.521  60.691 -16.452  0.00  0.00    +0.000 C 
BRANCH  29  32
ATOM     32  O   UNL     1     -19.599  58.684 -15.253  0.00  0.00    +0.000 OA
ATOM     33  H   UNL     1     -20.320  59.308 -15.080  0.00  0.00    +0.000 HD
ENDBRANCH  29  32
ENDBRANCH  28  29
ENDBRANCH  27  28
ENDBRANCH  24  26
ENDBRANCH   2  24
TORSDOF 9
ENDMDL
MODEL 2
REMARK VINA RESULT:      -7.0      1.692      2.951
REMARK  Name = Calcitriol.pdbqt.pdb
REMARK  9 active torsions:
REMARK  status: ('A' for Active; 'I' for Inactive)
REMARK    1  A    between atoms: C_2  and  C_24
REMARK    2  A    between atoms: C_7  and  C_11
REMARK    3  A    between atoms: C_12  and  C_13
REMARK    4  A    between atoms: C_16  and  O_20
REMARK    5  A    between atoms: C_18  and  O_22
REMARK    6  A    between atoms: C_24  and  C_26
REMARK    7  A    between atoms: C_27  and  C_28
REMARK    8  A    between atoms: C_28  and  C_29
REMARK    9  A    between atoms: C_29  and  O_32
REMARK                            x       y       z     vdW  Elec       q    Type
REMARK                         _______ _______ _______ _____ _____    ______ ____
ROOT
ATOM      1  C   UNL     1     -16.125  58.777 -22.579  0.00  0.00    +0.000 C 
ATOM      2  C   UNL     1     -15.965  57.832 -21.392  0.00  0.00    +0.000 C 
ATOM      3  C   UNL     1     -16.789  57.824 -23.714  0.00  0.00    +0.000 C 
ATOM      4  C   UNL     1     -16.574  56.577 -21.691  0.00  0.00    +0.000 C 
ATOM      5  C   UNL     1     -17.106  56.573 -23.098  0.00  0.00    +0.000 C 
ATOM      6  C   UNL     1     -14.857  59.274 -23.137  0.00  0.00    +0.000 C 
ATOM      7  C   UNL     1     -16.334  57.886 -25.108  0.00  0.00    +0.000 C 
ATOM      8  C   UNL     1     -17.164  59.891 -22.267  0.00  0.00    +0.000 C 
ATOM      9  C   UNL     1     -14.123  59.348 -24.464  0.00  0.00    +0.000 C 
ATOM     10  C   UNL     1     -15.113  58.580 -25.316  0.00  0.00    +0.000 C 
ENDROOT
BRANCH   7  11
ATOM     11  C   UNL     1     -16.891  57.248 -26.090  0.00  0.00    +0.000 C 
ATOM     12  C   UNL     1     -17.540  56.483 -27.250  0.00  0.00    +0.000 C 
BRANCH  12  13
ATOM     13  C   UNL     1     -18.085  55.828 -28.230  0.00  0.00    +0.000 A 
ATOM     14  C   UNL     1     -18.551  56.537 -29.383  0.00  0.00    +0.000 A 
ATOM     15  C   UNL     1     -18.350  54.355 -28.284  0.00  0.00    +0.000 A 
ATOM     16  C   UNL     1     -19.218  56.128 -30.575  0.00  0.00    +0.000 A 
ATOM     17  C   UNL     1     -19.411  54.720 -30.488  0.00  0.00    +0.000 A 
ATOM     18  C   UNL     1     -19.051  53.784 -29.477  0.00  0.00    +0.000 A 
ATOM     19  C   UNL     1     -17.971  53.523 -27.297  0.00  0.00    +0.000 C 
BRANCH  16  20
ATOM     20  O   UNL     1     -18.991  56.757 -31.764  0.00  0.00    +0.000 OA
ATOM     21  H   UNL     1     -19.651  56.501 -32.430  0.00  0.00    +0.000 HD
ENDBRANCH  16  20
BRANCH  18  22
ATOM     22  O   UNL     1     -19.315  52.440 -29.587  0.00  0.00    +0.000 OA
ATOM     23  H   UNL     1     -19.363  52.181 -30.528  0.00  0.00    +0.000 HD
ENDBRANCH  18  22
ENDBRANCH  12  13
ENDBRANCH   7  11
BRANCH   2  24
ATOM     24  C   UNL     1     -15.437  58.195 -20.115  0.00  0.00    +0.000 C 
ATOM     25  C   UNL     1     -13.984  58.029 -19.748  0.00  0.00    +0.000 C 
BRANCH  24  26
ATOM     26  C   UNL     1     -16.295  58.566 -19.043  0.00  0.00    +0.000 C 
ATOM     27  C   UNL     1     -17.209  58.960 -17.877  0.00  0.00    +0.000 C 
BRANCH  27  28
ATOM     28  C   UNL     1     -18.114  59.350 -16.701  0.00  0.00    +0.000 C 
BRANCH  28  29
ATOM     29  C   UNL     1     -18.974  59.720 -15.577  0.00  0.00    +0.000 C 
ATOM     30  C   UNL     1     -18.184  60.236 -14.368  0.00  0.00    +0.000 C 
ATOM     31  C   UNL     1     -20.078  60.711 -15.963  0.00  0.00    +0.000 C 
BRANCH  29  32
ATOM     32  O   UNL     1     -19.651  58.571 -15.120  0.00  0.00    +0.000 OA
ATOM     33  H   UNL     1     -19.568  58.726 -14.168  0.00  0.00    +0.000 HD
ENDBRANCH  29  32
ENDBRANCH  28  29
ENDBRANCH  27  28
ENDBRANCH  24  26
ENDBRANCH   2  24
TORSDOF 9
ENDMDL
MODEL 3
REMARK VINA RESULT:      -7.0      3.420     11.525
REMARK  Name = Calcitriol.pdbqt.pdb
REMARK  9 active torsions:
REMARK  status: ('A' for Active; 'I' for Inactive)
REMARK    1  A    between atoms: C_2  and  C_24
REMARK    2  A    between atoms: C_7  and  C_11
REMARK    3  A    between atoms: C_12  and  C_13
REMARK    4  A    between atoms: C_16  and  O_20
REMARK    5  A    between atoms: C_18  and  O_22
REMARK    6  A    between atoms: C_24  and  C_26
REMARK    7  A    between atoms: C_27  and  C_28
REMARK    8  A    between atoms: C_28  and  C_29
REMARK    9  A    between atoms: C_29  and  O_32
REMARK                            x       y       z     vdW  Elec       q    Type
REMARK                         _______ _______ _______ _____ _____    ______ ____
ROOT
ATOM      1  C   UNL     1     -18.065  54.303 -29.612  0.00  0.00    +0.000 C 
ATOM      2  C   UNL     1     -18.606  55.526 -30.347  0.00  0.00    +0.000 C 
ATOM      3  C   UNL     1     -17.856  54.852 -28.098  0.00  0.00    +0.000 C 
ATOM      4  C   UNL     1     -18.843  56.579 -29.416  0.00  0.00    +0.000 C 
ATOM      5  C   UNL     1     -18.414  56.167 -28.034  0.00  0.00    +0.000 C 
ATOM      6  C   UNL     1     -16.746  53.845 -30.078  0.00  0.00    +0.000 C 
ATOM      7  C   UNL     1     -16.655  54.503 -27.330  0.00  0.00    +0.000 C 
ATOM      8  C   UNL     1     -19.138  53.180 -29.535  0.00  0.00    +0.000 C 
ATOM      9  C   UNL     1     -15.364  53.537 -29.530  0.00  0.00    +0.000 C 
ATOM     10  C   UNL     1     -15.595  53.938 -28.088  0.00  0.00    +0.000 C 
ENDROOT
BRANCH   7  11
ATOM     11  C   UNL     1     -16.471  54.802 -26.082  0.00  0.00    +0.000 C 
ATOM     12  C   UNL     1     -16.265  55.163 -24.606  0.00  0.00    +0.000 C 
BRANCH  12  13
ATOM     13  C   UNL     1     -16.100  55.469 -23.355  0.00  0.00    +0.000 A 
ATOM     14  C   UNL     1     -15.468  54.534 -22.473  0.00  0.00    +0.000 A 
ATOM     15  C   UNL     1     -16.561  56.719 -22.671  0.00  0.00    +0.000 A 
ATOM     16  C   UNL     1     -15.187  54.548 -21.077  0.00  0.00    +0.000 A 
ATOM     17  C   UNL     1     -15.682  55.779 -20.559  0.00  0.00    +0.000 A 
ATOM     18  C   UNL     1     -16.338  56.870 -21.199  0.00  0.00    +0.000 A 
ATOM     19  C   UNL     1     -17.164  57.720 -23.339  0.00  0.00    +0.000 C 
BRANCH  16  20
ATOM     20  O   UNL     1     -14.071  53.947 -20.573  0.00  0.00    +0.000 OA
ATOM     21  H   UNL     1     -13.314  54.048 -21.174  0.00  0.00    +0.000 HD
ENDBRANCH  16  20
BRANCH  18  22
ATOM     22  O   UNL     1     -16.731  57.997 -20.518  0.00  0.00    +0.000 OA
ATOM     23  H   UNL     1     -17.683  58.163 -20.661  0.00  0.00    +0.000 HD
ENDBRANCH  18  22
ENDBRANCH  12  13
ENDBRANCH   7  11
BRANCH   2  24
ATOM     24  C   UNL     1     -18.977  55.560 -31.726  0.00  0.00    +0.000 C 
ATOM     25  C   UNL     1     -18.241  56.379 -32.755  0.00  0.00    +0.000 C 
BRANCH  24  26
ATOM     26  C   UNL     1     -20.187  54.964 -32.176  0.00  0.00    +0.000 C 
ATOM     27  C   UNL     1     -21.491  54.309 -32.650  0.00  0.00    +0.000 C 
BRANCH  27  28
ATOM     28  C   UNL     1     -22.792  53.643 -33.115  0.00  0.00    +0.000 C 
BRANCH  28  29
ATOM     29  C   UNL     1     -24.032  53.005 -33.556  0.00  0.00    +0.000 C 
ATOM     30  C   UNL     1     -24.527  53.536 -34.906  0.00  0.00    +0.000 C 
ATOM     31  C   UNL     1     -23.949  51.474 -33.575  0.00  0.00    +0.000 C 
BRANCH  29  32
ATOM     32  O   UNL     1     -25.056  53.308 -32.636  0.00  0.00    +0.000 OA
ATOM     33  H   UNL     1     -25.811  52.984 -33.150  0.00  0.00    +0.000 HD
ENDBRANCH  29  32
ENDBRANCH  28  29
ENDBRANCH  27  28
ENDBRANCH  24  26
ENDBRANCH   2  24
TORSDOF 9
ENDMDL
MODEL 4
REMARK VINA RESULT:      -6.7     24.975     27.489
REMARK  Name = Calcitriol.pdbqt.pdb
REMARK  9 active torsions:
REMARK  status: ('A' for Active; 'I' for Inactive)
REMARK    1  A    between atoms: C_2  and  C_24
REMARK    2  A    between atoms: C_7  and  C_11
REMARK    3  A    between atoms: C_12  and  C_13
REMARK    4  A    between atoms: C_16  and  O_20
REMARK    5  A    between atoms: C_18  and  O_22
REMARK    6  A    between atoms: C_24  and  C_26
REMARK    7  A    between atoms: C_27  and  C_28
REMARK    8  A    between atoms: C_28  and  C_29
REMARK    9  A    between atoms: C_29  and  O_32
REMARK                            x       y       z     vdW  Elec       q    Type
REMARK                         _______ _______ _______ _____ _____    ______ ____
ROOT
ATOM      1  C   UNL     1     -40.411  49.347  -9.384  0.00  0.00    +0.000 C 
ATOM      2  C   UNL     1     -40.457  50.774  -8.846  0.00  0.00    +0.000 C 
ATOM      3  C   UNL     1     -39.082  48.736  -8.681  0.00  0.00    +0.000 C 
ATOM      4  C   UNL     1     -39.439  50.949  -7.862  0.00  0.00    +0.000 C 
ATOM      5  C   UNL     1     -38.611  49.700  -7.735  0.00  0.00    +0.000 C 
ATOM      6  C   UNL     1     -40.199  49.252 -10.838  0.00  0.00    +0.000 C 
ATOM      7  C   UNL     1     -38.142  47.904  -9.442  0.00  0.00    +0.000 C 
ATOM      8  C   UNL     1     -41.616  48.516  -8.861  0.00  0.00    +0.000 C 
ATOM      9  C   UNL     1     -39.264  48.587 -11.833  0.00  0.00    +0.000 C 
ATOM     10  C   UNL     1     -38.311  47.935 -10.852  0.00  0.00    +0.000 C 
ENDROOT
BRANCH   7  11
ATOM     11  C   UNL     1     -37.127  47.284  -8.926  0.00  0.00    +0.000 C 
ATOM     12  C   UNL     1     -35.918  46.564  -8.317  0.00  0.00    +0.000 C 
BRANCH  12  13
ATOM     13  C   UNL     1     -34.891  45.962  -7.799  0.00  0.00    +0.000 A 
ATOM     14  C   UNL     1     -34.632  46.083  -6.396  0.00  0.00    +0.000 A 
ATOM     15  C   UNL     1     -33.859  45.162  -8.532  0.00  0.00    +0.000 A 
ATOM     16  C   UNL     1     -33.592  45.597  -5.552  0.00  0.00    +0.000 A 
ATOM     17  C   UNL     1     -32.686  44.869  -6.374  0.00  0.00    +0.000 A 
ATOM     18  C   UNL     1     -32.702  44.593  -7.771  0.00  0.00    +0.000 A 
ATOM     19  C   UNL     1     -33.941  44.928  -9.854  0.00  0.00    +0.000 C 
BRANCH  16  20
ATOM     20  O   UNL     1     -33.837  45.246  -4.256  0.00  0.00    +0.000 OA
ATOM     21  H   UNL     1     -33.026  44.948  -3.812  0.00  0.00    +0.000 HD
ENDBRANCH  16  20
BRANCH  18  22
ATOM     22  O   UNL     1     -31.728  43.844  -8.387  0.00  0.00    +0.000 OA
ATOM     23  H   UNL     1     -32.005  43.610  -9.294  0.00  0.00    +0.000 HD
ENDBRANCH  18  22
ENDBRANCH  12  13
ENDBRANCH   7  11
BRANCH   2  24
ATOM     24  C   UNL     1     -41.466  51.738  -9.151  0.00  0.00    +0.000 C 
ATOM     25  C   UNL     1     -42.850  51.361  -9.613  0.00  0.00    +0.000 C 
BRANCH  24  26
ATOM     26  C   UNL     1     -41.162  53.126  -9.216  0.00  0.00    +0.000 C 
ATOM     27  C   UNL     1     -40.839  54.624  -9.270  0.00  0.00    +0.000 C 
BRANCH  27  28
ATOM     28  C   UNL     1     -40.522  56.124  -9.312  0.00  0.00    +0.000 C 
BRANCH  28  29
ATOM     29  C   UNL     1     -40.224  57.556  -9.354  0.00  0.00    +0.000 C 
ATOM     30  C   UNL     1     -40.120  58.100 -10.784  0.00  0.00    +0.000 C 
ATOM     31  C   UNL     1     -41.198  58.400  -8.525  0.00  0.00    +0.000 C 
BRANCH  29  32
ATOM     32  O   UNL     1     -38.957  57.777  -8.776  0.00  0.00    +0.000 OA
ATOM     33  H   UNL     1     -38.421  57.722  -9.580  0.00  0.00    +0.000 HD
ENDBRANCH  29  32
ENDBRANCH  28  29
ENDBRANCH  27  28
ENDBRANCH  24  26
ENDBRANCH   2  24
TORSDOF 9
ENDMDL
MODEL 5
REMARK VINA RESULT:      -6.6     21.473     23.079
REMARK  Name = Calcitriol.pdbqt.pdb
REMARK  9 active torsions:
REMARK  status: ('A' for Active; 'I' for Inactive)
REMARK    1  A    between atoms: C_2  and  C_24
REMARK    2  A    between atoms: C_7  and  C_11
REMARK    3  A    between atoms: C_12  and  C_13
REMARK    4  A    between atoms: C_16  and  O_20
REMARK    5  A    between atoms: C_18  and  O_22
REMARK    6  A    between atoms: C_24  and  C_26
REMARK    7  A    between atoms: C_27  and  C_28
REMARK    8  A    between atoms: C_28  and  C_29
REMARK    9  A    between atoms: C_29  and  O_32
REMARK                            x       y       z     vdW  Elec       q    Type
REMARK                         _______ _______ _______ _____ _____    ______ ____
ROOT
ATOM      1  C   UNL     1     -35.467  45.132 -11.745  0.00  0.00    +0.000 C 
ATOM      2  C   UNL     1     -34.501  45.286 -10.574  0.00  0.00    +0.000 C 
ATOM      3  C   UNL     1     -34.479  44.808 -12.992  0.00  0.00    +0.000 C 
ATOM      4  C   UNL     1     -33.180  44.950 -10.994  0.00  0.00    +0.000 C 
ATOM      5  C   UNL     1     -33.161  44.630 -12.464  0.00  0.00    +0.000 C 
ATOM      6  C   UNL     1     -36.198  46.360 -12.097  0.00  0.00    +0.000 C 
ATOM      7  C   UNL     1     -34.688  45.436 -14.302  0.00  0.00    +0.000 C 
ATOM      8  C   UNL     1     -36.375  43.883 -11.558  0.00  0.00    +0.000 C 
ATOM      9  C   UNL     1     -36.463  47.249 -13.299  0.00  0.00    +0.000 C 
ATOM     10  C   UNL     1     -35.587  46.536 -14.309  0.00  0.00    +0.000 C 
ENDROOT
BRANCH   7  11
ATOM     11  C   UNL     1     -34.019  45.140 -15.372  0.00  0.00    +0.000 C 
ATOM     12  C   UNL     1     -33.224  44.804 -16.639  0.00  0.00    +0.000 C 
BRANCH  12  13
ATOM     13  C   UNL     1     -32.545  44.527 -17.711  0.00  0.00    +0.000 A 
ATOM     14  C   UNL     1     -31.131  44.756 -17.733  0.00  0.00    +0.000 A 
ATOM     15  C   UNL     1     -33.090  44.026 -19.012  0.00  0.00    +0.000 A 
ATOM     16  C   UNL     1     -30.135  44.604 -18.740  0.00  0.00    +0.000 A 
ATOM     17  C   UNL     1     -30.790  44.133 -19.913  0.00  0.00    +0.000 A 
ATOM     18  C   UNL     1     -32.157  43.824 -20.165  0.00  0.00    +0.000 A 
ATOM     19  C   UNL     1     -34.395  43.741 -19.178  0.00  0.00    +0.000 C 
BRANCH  16  20
ATOM     20  O   UNL     1     -28.859  44.235 -18.425  0.00  0.00    +0.000 OA
ATOM     21  H   UNL     1     -28.836  43.347 -18.032  0.00  0.00    +0.000 HD
ENDBRANCH  16  20
BRANCH  18  22
ATOM     22  O   UNL     1     -32.598  43.359 -21.380  0.00  0.00    +0.000 OA
ATOM     23  H   UNL     1     -31.996  42.666 -21.715  0.00  0.00    +0.000 HD
ENDBRANCH  18  22
ENDBRANCH  12  13
ENDBRANCH   7  11
BRANCH   2  24
ATOM     24  C   UNL     1     -34.880  45.559  -9.224  0.00  0.00    +0.000 C 
ATOM     25  C   UNL     1     -34.406  44.734  -8.055  0.00  0.00    +0.000 C 
BRANCH  24  26
ATOM     26  C   UNL     1     -35.883  46.521  -8.923  0.00  0.00    +0.000 C 
ATOM     27  C   UNL     1     -36.967  47.551  -8.582  0.00  0.00    +0.000 C 
BRANCH  27  28
ATOM     28  C   UNL     1     -38.053  48.576  -8.230  0.00  0.00    +0.000 C 
BRANCH  28  29
ATOM     29  C   UNL     1     -39.085  49.556  -7.894  0.00  0.00    +0.000 C 
ATOM     30  C   UNL     1     -39.662  50.259  -9.128  0.00  0.00    +0.000 C 
ATOM     31  C   UNL     1     -40.209  48.976  -7.029  0.00  0.00    +0.000 C 
BRANCH  29  32
ATOM     32  O   UNL     1     -38.509  50.580  -7.114  0.00  0.00    +0.000 OA
ATOM     33  H   UNL     1     -37.730  50.755  -7.662  0.00  0.00    +0.000 HD
ENDBRANCH  29  32
ENDBRANCH  28  29
ENDBRANCH  27  28
ENDBRANCH  24  26
ENDBRANCH   2  24
TORSDOF 9
ENDMDL
MODEL 6
REMARK VINA RESULT:      -6.6     21.734     23.642
REMARK  Name = Calcitriol.pdbqt.pdb
REMARK  9 active torsions:
REMARK  status: ('A' for Active; 'I' for Inactive)
REMARK    1  A    between atoms: C_2  and  C_24
REMARK    2  A    between atoms: C_7  and  C_11
REMARK    3  A    between atoms: C_12  and  C_13
REMARK    4  A    between atoms: C_16  and  O_20
REMARK    5  A    between atoms: C_18  and  O_22
REMARK    6  A    between atoms: C_24  and  C_26
REMARK    7  A    between atoms: C_27  and  C_28
REMARK    8  A    between atoms: C_28  and  C_29
REMARK    9  A    between atoms: C_29  and  O_32
REMARK                            x       y       z     vdW  Elec       q    Type
REMARK                         _______ _______ _______ _____ _____    ______ ____
ROOT
ATOM      1  C   UNL     1     -35.589  45.240 -10.978  0.00  0.00    +0.000 C 
ATOM      2  C   UNL     1     -34.859  45.587  -9.683  0.00  0.00    +0.000 C 
ATOM      3  C   UNL     1     -34.392  44.708 -11.937  0.00  0.00    +0.000 C 
ATOM      4  C   UNL     1     -33.495  45.182  -9.777  0.00  0.00    +0.000 C 
ATOM      5  C   UNL     1     -33.207  44.618 -11.141  0.00  0.00    +0.000 C 
ATOM      6  C   UNL     1     -36.194  46.393 -11.663  0.00  0.00    +0.000 C 
ATOM      7  C   UNL     1     -34.325  45.106 -13.349  0.00  0.00    +0.000 C 
ATOM      8  C   UNL     1     -36.558  44.043 -10.767  0.00  0.00    +0.000 C 
ATOM      9  C   UNL     1     -36.193  47.067 -13.024  0.00  0.00    +0.000 C 
ATOM     10  C   UNL     1     -35.165  46.191 -13.712  0.00  0.00    +0.000 C 
ENDROOT
BRANCH   7  11
ATOM     11  C   UNL     1     -33.474  44.632 -14.204  0.00  0.00    +0.000 C 
ATOM     12  C   UNL     1     -32.473  44.058 -15.214  0.00  0.00    +0.000 C 
BRANCH  12  13
ATOM     13  C   UNL     1     -31.630  43.564 -16.070  0.00  0.00    +0.000 A 
ATOM     14  C   UNL     1     -30.990  44.431 -17.014  0.00  0.00    +0.000 A 
ATOM     15  C   UNL     1     -31.267  42.122 -16.239  0.00  0.00    +0.000 A 
ATOM     16  C   UNL     1     -30.076  44.201 -18.083  0.00  0.00    +0.000 A 
ATOM     17  C   UNL     1     -29.828  42.800 -18.133  0.00  0.00    +0.000 A 
ATOM     18  C   UNL     1     -30.320  41.731 -17.330  0.00  0.00    +0.000 A 
ATOM     19  C   UNL     1     -31.759  41.161 -15.436  0.00  0.00    +0.000 C 
BRANCH  16  20
ATOM     20  O   UNL     1     -29.119  45.119 -18.406  0.00  0.00    +0.000 OA
ATOM     21  H   UNL     1     -28.363  45.069 -17.797  0.00  0.00    +0.000 HD
ENDBRANCH  16  20
BRANCH  18  22
ATOM     22  O   UNL     1     -29.943  40.425 -17.530  0.00  0.00    +0.000 OA
ATOM     23  H   UNL     1     -29.090  40.248 -17.089  0.00  0.00    +0.000 HD
ENDBRANCH  18  22
ENDBRANCH  12  13
ENDBRANCH   7  11
BRANCH   2  24
ATOM     24  C   UNL     1     -35.480  46.086  -8.497  0.00  0.00    +0.000 C 
ATOM     25  C   UNL     1     -35.230  45.500  -7.130  0.00  0.00    +0.000 C 
BRANCH  24  26
ATOM     26  C   UNL     1     -36.520  47.052  -8.562  0.00  0.00    +0.000 C 
ATOM     27  C   UNL     1     -37.642  48.094  -8.649  0.00  0.00    +0.000 C 
BRANCH  27  28
ATOM     28  C   UNL     1     -38.763  49.136  -8.750  0.00  0.00    +0.000 C 
BRANCH  28  29
ATOM     29  C   UNL     1     -39.835  50.127  -8.849  0.00  0.00    +0.000 C 
ATOM     30  C   UNL     1     -40.102  50.573 -10.291  0.00  0.00    +0.000 C 
ATOM     31  C   UNL     1     -41.135  49.679  -8.173  0.00  0.00    +0.000 C 
BRANCH  29  32
ATOM     32  O   UNL     1     -39.444  51.295  -8.162  0.00  0.00    +0.000 OA
ATOM     33  H   UNL     1     -39.913  51.944  -8.707  0.00  0.00    +0.000 HD
ENDBRANCH  29  32
ENDBRANCH  28  29
ENDBRANCH  27  28
ENDBRANCH  24  26
ENDBRANCH   2  24
TORSDOF 9
ENDMDL
MODEL 7
REMARK VINA RESULT:      -6.5     21.680     23.434
REMARK  Name = Calcitriol.pdbqt.pdb
REMARK  9 active torsions:
REMARK  status: ('A' for Active; 'I' for Inactive)
REMARK    1  A    between atoms: C_2  and  C_24
REMARK    2  A    between atoms: C_7  and  C_11
REMARK    3  A    between atoms: C_12  and  C_13
REMARK    4  A    between atoms: C_16  and  O_20
REMARK    5  A    between atoms: C_18  and  O_22
REMARK    6  A    between atoms: C_24  and  C_26
REMARK    7  A    between atoms: C_27  and  C_28
REMARK    8  A    between atoms: C_28  and  C_29
REMARK    9  A    between atoms: C_29  and  O_32
REMARK                            x       y       z     vdW  Elec       q    Type
REMARK                         _______ _______ _______ _____ _____    ______ ____
ROOT
ATOM      1  C   UNL     1     -35.877  45.375 -11.260  0.00  0.00    +0.000 C 
ATOM      2  C   UNL     1     -35.022  45.692 -10.036  0.00  0.00    +0.000 C 
ATOM      3  C   UNL     1     -34.769  45.100 -12.415  0.00  0.00    +0.000 C 
ATOM      4  C   UNL     1     -33.645  45.482 -10.345  0.00  0.00    +0.000 C 
ATOM      5  C   UNL     1     -33.483  45.093 -11.788  0.00  0.00    +0.000 C 
ATOM      6  C   UNL     1     -36.704  46.498 -11.732  0.00  0.00    +0.000 C 
ATOM      7  C   UNL     1     -34.945  45.635 -13.771  0.00  0.00    +0.000 C 
ATOM      8  C   UNL     1     -36.658  44.046 -11.065  0.00  0.00    +0.000 C 
ATOM      9  C   UNL     1     -36.971  47.291 -12.999  0.00  0.00    +0.000 C 
ATOM     10  C   UNL     1     -35.951  46.628 -13.903  0.00  0.00    +0.000 C 
ENDROOT
BRANCH   7  11
ATOM     11  C   UNL     1     -34.171  45.361 -14.773  0.00  0.00    +0.000 C 
ATOM     12  C   UNL     1     -33.255  45.051 -15.963  0.00  0.00    +0.000 C 
BRANCH  12  13
ATOM     13  C   UNL     1     -32.477  44.797 -16.972  0.00  0.00    +0.000 A 
ATOM     14  C   UNL     1     -33.037  44.659 -18.282  0.00  0.00    +0.000 A 
ATOM     15  C   UNL     1     -30.998  44.565 -16.926  0.00  0.00    +0.000 A 
ATOM     16  C   UNL     1     -32.477  44.344 -19.553  0.00  0.00    +0.000 A 
ATOM     17  C   UNL     1     -31.080  44.143 -19.361  0.00  0.00    +0.000 A 
ATOM     18  C   UNL     1     -30.274  44.219 -18.189  0.00  0.00    +0.000 A 
ATOM     19  C   UNL     1     -30.293  44.666 -15.784  0.00  0.00    +0.000 C 
BRANCH  16  20
ATOM     20  O   UNL     1     -32.979  44.883 -20.702  0.00  0.00    +0.000 OA
ATOM     21  H   UNL     1     -32.355  45.514 -21.098  0.00  0.00    +0.000 HD
ENDBRANCH  16  20
BRANCH  18  22
ATOM     22  O   UNL     1     -28.917  44.002 -18.211  0.00  0.00    +0.000 OA
ATOM     23  H   UNL     1     -28.672  43.478 -18.997  0.00  0.00    +0.000 HD
ENDBRANCH  18  22
ENDBRANCH  12  13
ENDBRANCH   7  11
BRANCH   2  24
ATOM     24  C   UNL     1     -35.527  45.990  -8.734  0.00  0.00    +0.000 C 
ATOM     25  C   UNL     1     -36.552  47.064  -8.475  0.00  0.00    +0.000 C 
BRANCH  24  26
ATOM     26  C   UNL     1     -34.950  45.409  -7.572  0.00  0.00    +0.000 C 
ATOM     27  C   UNL     1     -34.342  44.775  -6.314  0.00  0.00    +0.000 C 
BRANCH  27  28
ATOM     28  C   UNL     1     -33.746  44.138  -5.053  0.00  0.00    +0.000 C 
BRANCH  28  29
ATOM     29  C   UNL     1     -33.182  43.529  -3.848  0.00  0.00    +0.000 C 
ATOM     30  C   UNL     1     -34.015  42.351  -3.330  0.00  0.00    +0.000 C 
ATOM     31  C   UNL     1     -31.713  43.122  -4.009  0.00  0.00    +0.000 C 
BRANCH  29  32
ATOM     32  O   UNL     1     -33.190  44.480  -2.807  0.00  0.00    +0.000 OA
ATOM     33  H   UNL     1     -34.129  44.431  -2.576  0.00  0.00    +0.000 HD
ENDBRANCH  29  32
ENDBRANCH  28  29
ENDBRANCH  27  28
ENDBRANCH  24  26
ENDBRANCH   2  24
TORSDOF 9
ENDMDL
MODEL 8
REMARK VINA RESULT:      -6.4     21.134     24.499
REMARK  Name = Calcitriol.pdbqt.pdb
REMARK  9 active torsions:
REMARK  status: ('A' for Active; 'I' for Inactive)
REMARK    1  A    between atoms: C_2  and  C_24
REMARK    2  A    between atoms: C_7  and  C_11
REMARK    3  A    between atoms: C_12  and  C_13
REMARK    4  A    between atoms: C_16  and  O_20
REMARK    5  A    between atoms: C_18  and  O_22
REMARK    6  A    between atoms: C_24  and  C_26
REMARK    7  A    between atoms: C_27  and  C_28
REMARK    8  A    between atoms: C_28  and  C_29
REMARK    9  A    between atoms: C_29  and  O_32
REMARK                            x       y       z     vdW  Elec       q    Type
REMARK                         _______ _______ _______ _____ _____    ______ ____
ROOT
ATOM      1  C   UNL     1     -34.348  46.313 -15.458  0.00  0.00    +0.000 C 
ATOM      2  C   UNL     1     -33.280  45.473 -16.153  0.00  0.00    +0.000 C 
ATOM      3  C   UNL     1     -34.083  46.007 -13.885  0.00  0.00    +0.000 C 
ATOM      4  C   UNL     1     -32.414  44.896 -15.178  0.00  0.00    +0.000 C 
ATOM      5  C   UNL     1     -32.880  45.239 -13.790  0.00  0.00    +0.000 C 
ATOM      6  C   UNL     1     -35.730  45.893 -15.739  0.00  0.00    +0.000 C 
ATOM      7  C   UNL     1     -35.202  45.774 -12.964  0.00  0.00    +0.000 C 
ATOM      8  C   UNL     1     -34.088  47.831 -15.668  0.00  0.00    +0.000 C 
ATOM      9  C   UNL     1     -36.995  45.491 -15.000  0.00  0.00    +0.000 C 
ATOM     10  C   UNL     1     -36.457  45.534 -13.585  0.00  0.00    +0.000 C 
ENDROOT
BRANCH   7  11
ATOM     11  C   UNL     1     -35.080  45.643 -11.680  0.00  0.00    +0.000 C 
ATOM     12  C   UNL     1     -34.922  45.493 -10.162  0.00  0.00    +0.000 C 
BRANCH  12  13
ATOM     13  C   UNL     1     -34.782  45.373  -8.877  0.00  0.00    +0.000 A 
ATOM     14  C   UNL     1     -33.652  44.667  -8.350  0.00  0.00    +0.000 A 
ATOM     15  C   UNL     1     -35.730  45.857  -7.824  0.00  0.00    +0.000 A 
ATOM     16  C   UNL     1     -33.245  44.330  -7.028  0.00  0.00    +0.000 A 
ATOM     17  C   UNL     1     -34.233  44.840  -6.138  0.00  0.00    +0.000 A 
ATOM     18  C   UNL     1     -35.432  45.568  -6.386  0.00  0.00    +0.000 A 
ATOM     19  C   UNL     1     -36.841  46.552  -8.126  0.00  0.00    +0.000 C 
BRANCH  16  20
ATOM     20  O   UNL     1     -31.924  44.271  -6.687  0.00  0.00    +0.000 OA
ATOM     21  H   UNL     1     -31.394  43.874  -7.398  0.00  0.00    +0.000 HD
ENDBRANCH  16  20
BRANCH  18  22
ATOM     22  O   UNL     1     -36.260  45.992  -5.374  0.00  0.00    +0.000 OA
ATOM     23  H   UNL     1     -36.989  46.530  -5.739  0.00  0.00    +0.000 HD
ENDBRANCH  18  22
ENDBRANCH  12  13
ENDBRANCH   7  11
BRANCH   2  24
ATOM     24  C   UNL     1     -33.072  45.410 -17.565  0.00  0.00    +0.000 C 
ATOM     25  C   UNL     1     -32.205  44.367 -18.222  0.00  0.00    +0.000 C 
BRANCH  24  26
ATOM     26  C   UNL     1     -33.527  46.449 -18.422  0.00  0.00    +0.000 C 
ATOM     27  C   UNL     1     -34.011  47.562 -19.359  0.00  0.00    +0.000 C 
BRANCH  27  28
ATOM     28  C   UNL     1     -34.489  48.669 -20.308  0.00  0.00    +0.000 C 
BRANCH  28  29
ATOM     29  C   UNL     1     -34.943  49.723 -21.215  0.00  0.00    +0.000 C 
ATOM     30  C   UNL     1     -34.680  49.393 -22.689  0.00  0.00    +0.000 C 
ATOM     31  C   UNL     1     -36.411  50.111 -21.003  0.00  0.00    +0.000 C 
BRANCH  29  32
ATOM     32  O   UNL     1     -34.208  50.898 -20.957  0.00  0.00    +0.000 OA
ATOM     33  H   UNL     1     -33.972  51.122 -21.869  0.00  0.00    +0.000 HD
ENDBRANCH  29  32
ENDBRANCH  28  29
ENDBRANCH  27  28
ENDBRANCH  24  26
ENDBRANCH   2  24
TORSDOF 9
ENDMDL
MODEL 9
REMARK VINA RESULT:      -6.4     22.718     26.512
REMARK  Name = Calcitriol.pdbqt.pdb
REMARK  9 active torsions:
REMARK  status: ('A' for Active; 'I' for Inactive)
REMARK    1  A    between atoms: C_2  and  C_24
REMARK    2  A    between atoms: C_7  and  C_11
REMARK    3  A    between atoms: C_12  and  C_13
REMARK    4  A    between atoms: C_16  and  O_20
REMARK    5  A    between atoms: C_18  and  O_22
REMARK    6  A    between atoms: C_24  and  C_26
REMARK    7  A    between atoms: C_27  and  C_28
REMARK    8  A    between atoms: C_28  and  C_29
REMARK    9  A    between atoms: C_29  and  O_32
REMARK                            x       y       z     vdW  Elec       q    Type
REMARK                         _______ _______ _______ _____ _____    ______ ____
ROOT
ATOM      1  C   UNL     1     -37.160  46.176 -12.144  0.00  0.00    +0.000 C 
ATOM      2  C   UNL     1     -37.912  47.485 -11.923  0.00  0.00    +0.000 C 
ATOM      3  C   UNL     1     -36.700  45.763 -10.643  0.00  0.00    +0.000 C 
ATOM      4  C   UNL     1     -38.035  47.738 -10.525  0.00  0.00    +0.000 C 
ATOM      5  C   UNL     1     -37.321  46.676  -9.734  0.00  0.00    +0.000 C 
ATOM      6  C   UNL     1     -35.928  46.308 -12.939  0.00  0.00    +0.000 C 
ATOM      7  C   UNL     1     -35.353  45.240 -10.385  0.00  0.00    +0.000 C 
ATOM      8  C   UNL     1     -38.121  45.059 -12.640  0.00  0.00    +0.000 C 
ATOM      9  C   UNL     1     -34.449  45.976 -12.852  0.00  0.00    +0.000 C 
ATOM     10  C   UNL     1     -34.424  45.413 -11.445  0.00  0.00    +0.000 C 
ENDROOT
BRANCH   7  11
ATOM     11  C   UNL     1     -34.951  44.780  -9.242  0.00  0.00    +0.000 C 
ATOM     12  C   UNL     1     -34.466  44.244  -7.889  0.00  0.00    +0.000 C 
BRANCH  12  13
ATOM     13  C   UNL     1     -34.050  43.799  -6.743  0.00  0.00    +0.000 A 
ATOM     14  C   UNL     1     -34.396  42.472  -6.331  0.00  0.00    +0.000 A 
ATOM     15  C   UNL     1     -33.261  44.557  -5.720  0.00  0.00    +0.000 A 
ATOM     16  C   UNL     1     -34.142  41.722  -5.146  0.00  0.00    +0.000 A 
ATOM     17  C   UNL     1     -33.398  42.560  -4.267  0.00  0.00    +0.000 A 
ATOM     18  C   UNL     1     -32.925  43.895  -4.420  0.00  0.00    +0.000 A 
ATOM     19  C   UNL     1     -32.833  45.814  -5.935  0.00  0.00    +0.000 C 
BRANCH  16  20
ATOM     20  O   UNL     1     -33.958  40.371  -5.188  0.00  0.00    +0.000 OA
ATOM     21  H   UNL     1     -34.074  39.971  -4.310  0.00  0.00    +0.000 HD
ENDBRANCH  16  20
BRANCH  18  22
ATOM     22  O   UNL     1     -32.197  44.537  -3.447  0.00  0.00    +0.000 OA
ATOM     23  H   UNL     1     -32.544  45.438  -3.305  0.00  0.00    +0.000 HD
ENDBRANCH  18  22
ENDBRANCH  12  13
ENDBRANCH   7  11
BRANCH   2  24
ATOM     24  C   UNL     1     -38.544  48.255 -12.947  0.00  0.00    +0.000 C 
ATOM     25  C   UNL     1     -40.011  48.598 -12.930  0.00  0.00    +0.000 C 
BRANCH  24  26
ATOM     26  C   UNL     1     -37.856  48.588 -14.146  0.00  0.00    +0.000 C 
ATOM     27  C   UNL     1     -37.105  48.933 -15.438  0.00  0.00    +0.000 C 
BRANCH  27  28
ATOM     28  C   UNL     1     -36.344  49.268 -16.728  0.00  0.00    +0.000 C 
BRANCH  28  29
ATOM     29  C   UNL     1     -35.617  49.584 -17.957  0.00  0.00    +0.000 C 
ATOM     30  C   UNL     1     -34.313  48.789 -18.098  0.00  0.00    +0.000 C 
ATOM     31  C   UNL     1     -36.475  49.442 -19.219  0.00  0.00    +0.000 C 
BRANCH  29  32
ATOM     32  O   UNL     1     -35.228  50.939 -17.924  0.00  0.00    +0.000 OA
ATOM     33  H   UNL     1     -35.948  51.307 -18.457  0.00  0.00    +0.000 HD
ENDBRANCH  29  32
ENDBRANCH  28  29
ENDBRANCH  27  28
ENDBRANCH  24  26
ENDBRANCH   2  24
TORSDOF 9
ENDMDL
