MODEL 1
REMARK VINA RESULT:      -8.2      0.000      0.000
REMARK  Name = 
REMARK  17 active torsions:
REMARK  status: ('A' for Active; 'I' for Inactive)
REMARK    1  A    between atoms: O_1  and  C_14
REMARK    2  A    between atoms: O_2  and  C_32
REMARK    3  A    between atoms: O_2  and  C_36
REMARK    4  A    between atoms: O_6  and  C_39
REMARK    5  A    between atoms: O_7  and  C_41
REMARK    6  A    between atoms: O_7  and  C_43
REMARK    7  A    between atoms: O_9  and  C_47
REMARK    8  A    between atoms: O_9  and  C_49
REMARK    9  A    between atoms: O_10  and  C_45
REMARK   10  A    between atoms: O_12  and  C_51
REMARK   11  A    between atoms: O_13  and  C_53
REMARK   12  A    between atoms: C_17  and  C_29
REMARK   13  A    between atoms: C_18  and  C_30
REMARK   14  A    between atoms: C_22  and  C_33
REMARK   15  A    between atoms: C_40  and  C_42
REMARK   16  A    between atoms: C_46  and  C_48
REMARK   17  A    between atoms: C_52  and  C_54
REMARK                            x       y       z     vdW  Elec       q    Type
REMARK                         _______ _______ _______ _____ _____    ______ ____
ROOT
ATOM      1  O   UNL     1     -40.195  48.187 -14.159  0.00  0.00    +0.000 OA
ATOM      2  C   UNL     1     -39.127  49.116 -13.996  0.00  0.00    +0.000 C 
ATOM      3  C   UNL     1     -39.619  50.495 -13.548  0.00  0.00    +0.000 C 
ATOM      4  C   UNL     1     -41.089  50.461 -13.157  0.00  0.00    +0.000 C 
ATOM      5  C   UNL     1     -40.892  47.931 -12.934  0.00  0.00    +0.000 C 
ATOM      6  C   UNL     1     -41.485  49.225 -12.325  0.00  0.00    +0.000 C 
ATOM      7  C   UNL     1     -41.991  46.919 -13.256  0.00  0.00    +0.000 C 
ENDROOT
BRANCH   4   8
ATOM      8  O   UNL     1     -41.504  51.691 -12.573  0.00  0.00    +0.000 OA
ATOM      9  H   UNL     1     -42.416  51.545 -12.242  0.00  0.00    +0.000 HD
ENDBRANCH   4   8
BRANCH   2  10
ATOM     10  O   UNL     1     -38.317  49.215 -15.168  0.00  0.00    +0.000 OA
BRANCH  10  29
ATOM     11  C   UNL     1     -32.401  44.191 -15.714  0.00  0.00    +0.000 C 
ATOM     12  C   UNL     1     -33.541  45.236 -15.579  0.00  0.00    +0.000 C 
ATOM     13  C   UNL     1     -33.438  46.399 -16.598  0.00  0.00    +0.000 C 
ATOM     14  C   UNL     1     -32.160  43.691 -17.166  0.00  0.00    +0.000 C 
ATOM     15  C   UNL     1     -34.606  47.460 -16.462  0.00  0.00    +0.000 C 
ATOM     16  C   UNL     1     -34.753  47.904 -14.969  0.00  0.00    +0.000 C 
ATOM     17  C   UNL     1     -33.280  45.833 -18.025  0.00  0.00    +0.000 C 
ATOM     18  C   UNL     1     -32.081  44.892 -18.141  0.00  0.00    +0.000 C 
ATOM     19  C   UNL     1     -30.785  42.965 -17.015  0.00  0.00    +0.000 C 
ATOM     20  C   UNL     1     -33.634  45.783 -14.147  0.00  0.00    +0.000 C 
ATOM     21  C   UNL     1     -31.015  44.686 -15.262  0.00  0.00    +0.000 C 
ATOM     22  C   UNL     1     -34.824  46.716 -13.993  0.00  0.00    +0.000 C 
ATOM     23  C   UNL     1     -29.986  43.874 -16.058  0.00  0.00    +0.000 C 
ATOM     24  C   UNL     1     -35.962  46.905 -16.979  0.00  0.00    +0.000 C 
ATOM     25  C   UNL     1     -35.969  48.825 -14.738  0.00  0.00    +0.000 C 
ATOM     26  C   UNL     1     -33.255  42.714 -17.640  0.00  0.00    +0.000 C 
ATOM     27  C   UNL     1     -34.222  48.703 -17.312  0.00  0.00    +0.000 C 
ATOM     28  C   UNL     1     -37.144  47.842 -16.732  0.00  0.00    +0.000 C 
ATOM     29  C   UNL     1     -37.280  48.232 -15.262  0.00  0.00    +0.000 C 
BRANCH  19  32
ATOM     30  O   UNL     1     -29.418  41.225 -20.034  0.00  0.00    +0.000 OA
ATOM     31  O   UNL     1     -27.915  42.711 -20.931  0.00  0.00    +0.000 OA
ATOM     32  C   UNL     1     -30.072  42.575 -18.282  0.00  0.00    +0.000 C 
ATOM     33  C   UNL     1     -30.294  41.247 -18.908  0.00  0.00    +0.000 C 
ATOM     34  C   UNL     1     -29.147  43.244 -18.970  0.00  0.00    +0.000 C 
ATOM     35  C   UNL     1     -28.738  42.399 -20.090  0.00  0.00    +0.000 C 
ENDBRANCH  19  32
BRANCH  11  36
ATOM     36  O   UNL     1     -32.706  43.068 -14.869  0.00  0.00    +0.000 OA
ATOM     37  H   UNL     1     -31.926  42.869 -14.324  0.00  0.00    +0.000 HD
ENDBRANCH  11  36
ENDBRANCH  10  29
ENDBRANCH   2  10
BRANCH   6  38
ATOM     38  O   UNL     1     -41.381  49.249 -10.898  0.00  0.00    +0.000 OA
BRANCH  38  40
ATOM     39  O   UNL     1     -40.395  47.604  -9.501  0.00  0.00    +0.000 OA
ATOM     40  C   UNL     1     -40.238  48.858 -10.150  0.00  0.00    +0.000 C 
ATOM     41  C   UNL     1     -39.673  49.913  -9.205  0.00  0.00    +0.000 C 
ATOM     42  C   UNL     1     -39.025  49.299  -7.967  0.00  0.00    +0.000 C 
ATOM     43  C   UNL     1     -39.116  47.034  -9.158  0.00  0.00    +0.000 C 
ATOM     44  C   UNL     1     -38.310  47.954  -8.207  0.00  0.00    +0.000 C 
ATOM     45  C   UNL     1     -39.399  45.682  -8.508  0.00  0.00    +0.000 C 
BRANCH  42  46
ATOM     46  O   UNL     1     -38.181  50.245  -7.313  0.00  0.00    +0.000 OA
ATOM     47  H   UNL     1     -37.836  49.836  -6.500  0.00  0.00    +0.000 HD
ENDBRANCH  42  46
BRANCH  44  48
ATOM     48  O   UNL     1     -36.920  47.987  -8.553  0.00  0.00    +0.000 OA
BRANCH  48  50
ATOM     49  O   UNL     1     -34.903  47.084  -7.757  0.00  0.00    +0.000 OA
ATOM     50  C   UNL     1     -36.144  46.805  -8.395  0.00  0.00    +0.000 C 
ATOM     51  C   UNL     1     -35.873  46.266  -9.804  0.00  0.00    +0.000 C 
ATOM     52  C   UNL     1     -34.563  45.486  -9.883  0.00  0.00    +0.000 C 
ATOM     53  C   UNL     1     -34.162  45.894  -7.430  0.00  0.00    +0.000 C 
ATOM     54  C   UNL     1     -34.229  44.830  -8.541  0.00  0.00    +0.000 C 
ATOM     55  C   UNL     1     -32.727  46.345  -7.181  0.00  0.00    +0.000 C 
BRANCH  52  56
ATOM     56  O   UNL     1     -34.693  44.468 -10.883  0.00  0.00    +0.000 OA
ATOM     57  H   UNL     1     -34.644  43.606 -10.432  0.00  0.00    +0.000 HD
ENDBRANCH  52  56
BRANCH  54  58
ATOM     58  O   UNL     1     -35.272  43.889  -8.229  0.00  0.00    +0.000 OA
ATOM     59  H   UNL     1     -34.857  43.003  -8.292  0.00  0.00    +0.000 HD
ENDBRANCH  54  58
ENDBRANCH  48  50
ENDBRANCH  44  48
ENDBRANCH  38  40
ENDBRANCH   6  38
TORSDOF 12
ENDMDL
MODEL 2
REMARK VINA RESULT:      -7.9      4.089      7.401
REMARK  Name = 
REMARK  17 active torsions:
REMARK  status: ('A' for Active; 'I' for Inactive)
REMARK    1  A    between atoms: O_1  and  C_14
REMARK    2  A    between atoms: O_2  and  C_32
REMARK    3  A    between atoms: O_2  and  C_36
REMARK    4  A    between atoms: O_6  and  C_39
REMARK    5  A    between atoms: O_7  and  C_41
REMARK    6  A    between atoms: O_7  and  C_43
REMARK    7  A    between atoms: O_9  and  C_47
REMARK    8  A    between atoms: O_9  and  C_49
REMARK    9  A    between atoms: O_10  and  C_45
REMARK   10  A    between atoms: O_12  and  C_51
REMARK   11  A    between atoms: O_13  and  C_53
REMARK   12  A    between atoms: C_17  and  C_29
REMARK   13  A    between atoms: C_18  and  C_30
REMARK   14  A    between atoms: C_22  and  C_33
REMARK   15  A    between atoms: C_40  and  C_42
REMARK   16  A    between atoms: C_46  and  C_48
REMARK   17  A    between atoms: C_52  and  C_54
REMARK                            x       y       z     vdW  Elec       q    Type
REMARK                         _______ _______ _______ _____ _____    ______ ____
ROOT
ATOM      1  O   UNL     1     -35.478  45.710  -9.842  0.00  0.00    +0.000 OA
ATOM      2  C   UNL     1     -34.477  44.696  -9.872  0.00  0.00    +0.000 C 
ATOM      3  C   UNL     1     -33.183  45.136  -9.183  0.00  0.00    +0.000 C 
ATOM      4  C   UNL     1     -33.370  46.445  -8.431  0.00  0.00    +0.000 C 
ATOM      5  C   UNL     1     -35.884  46.041  -8.508  0.00  0.00    +0.000 C 
ATOM      6  C   UNL     1     -34.695  46.530  -7.647  0.00  0.00    +0.000 C 
ATOM      7  C   UNL     1     -36.958  47.121  -8.631  0.00  0.00    +0.000 C 
ENDROOT
BRANCH   4   8
ATOM      8  O   UNL     1     -32.227  46.766  -7.646  0.00  0.00    +0.000 OA
ATOM      9  H   UNL     1     -31.452  46.407  -8.127  0.00  0.00    +0.000 HD
ENDBRANCH   4   8
BRANCH   2  10
ATOM     10  O   UNL     1     -34.222  44.232 -11.198  0.00  0.00    +0.000 OA
BRANCH  10  29
ATOM     11  C   UNL     1     -36.605  48.851 -16.988  0.00  0.00    +0.000 C 
ATOM     12  C   UNL     1     -36.185  47.898 -15.836  0.00  0.00    +0.000 C 
ATOM     13  C   UNL     1     -35.851  46.462 -16.312  0.00  0.00    +0.000 C 
ATOM     14  C   UNL     1     -35.645  48.837 -18.211  0.00  0.00    +0.000 C 
ATOM     15  C   UNL     1     -35.418  45.495 -15.135  0.00  0.00    +0.000 C 
ATOM     16  C   UNL     1     -36.455  45.576 -13.966  0.00  0.00    +0.000 C 
ATOM     17  C   UNL     1     -34.836  46.518 -17.472  0.00  0.00    +0.000 C 
ATOM     18  C   UNL     1     -35.335  47.380 -18.633  0.00  0.00    +0.000 C 
ATOM     19  C   UNL     1     -36.502  49.588 -19.280  0.00  0.00    +0.000 C 
ATOM     20  C   UNL     1     -37.244  47.864 -14.724  0.00  0.00    +0.000 C 
ATOM     21  C   UNL     1     -37.985  48.553 -17.602  0.00  0.00    +0.000 C 
ATOM     22  C   UNL     1     -36.775  47.022 -13.548  0.00  0.00    +0.000 C 
ATOM     23  C   UNL     1     -37.933  49.063 -19.047  0.00  0.00    +0.000 C 
ATOM     24  C   UNL     1     -33.997  45.827 -14.599  0.00  0.00    +0.000 C 
ATOM     25  C   UNL     1     -36.019  44.771 -12.725  0.00  0.00    +0.000 C 
ATOM     26  C   UNL     1     -34.326  49.585 -17.931  0.00  0.00    +0.000 C 
ATOM     27  C   UNL     1     -35.411  44.042 -15.690  0.00  0.00    +0.000 C 
ATOM     28  C   UNL     1     -33.599  45.013 -13.368  0.00  0.00    +0.000 C 
ATOM     29  C   UNL     1     -34.615  45.139 -12.234  0.00  0.00    +0.000 C 
BRANCH  19  32
ATOM     30  O   UNL     1     -34.908  50.222 -22.606  0.00  0.00    +0.000 OA
ATOM     31  O   UNL     1     -35.718  48.558 -23.966  0.00  0.00    +0.000 OA
ATOM     32  C   UNL     1     -36.018  49.538 -20.705  0.00  0.00    +0.000 C 
ATOM     33  C   UNL     1     -35.084  50.564 -21.233  0.00  0.00    +0.000 C 
ATOM     34  C   UNL     1     -36.360  48.698 -21.682  0.00  0.00    +0.000 C 
ATOM     35  C   UNL     1     -35.648  49.118 -22.888  0.00  0.00    +0.000 C 
ENDBRANCH  19  32
BRANCH  11  36
ATOM     36  O   UNL     1     -36.691  50.189 -16.468  0.00  0.00    +0.000 OA
ATOM     37  H   UNL     1     -37.501  50.604 -16.812  0.00  0.00    +0.000 HD
ENDBRANCH  11  36
ENDBRANCH  10  29
ENDBRANCH   2  10
BRANCH   6  38
ATOM     38  O   UNL     1     -34.770  46.055  -6.300  0.00  0.00    +0.000 OA
BRANCH  38  40
ATOM     39  O   UNL     1     -35.497  44.199  -5.012  0.00  0.00    +0.000 OA
ATOM     40  C   UNL     1     -34.503  44.724  -5.881  0.00  0.00    +0.000 C 
ATOM     41  C   UNL     1     -33.098  44.466  -5.347  0.00  0.00    +0.000 C 
ATOM     42  C   UNL     1     -33.070  43.374  -4.281  0.00  0.00    +0.000 C 
ATOM     43  C   UNL     1     -35.455  42.759  -4.984  0.00  0.00    +0.000 C 
ATOM     44  C   UNL     1     -34.082  42.231  -4.496  0.00  0.00    +0.000 C 
ATOM     45  C   UNL     1     -36.581  42.305  -4.059  0.00  0.00    +0.000 C 
BRANCH  42  46
ATOM     46  O   UNL     1     -31.744  42.887  -4.087  0.00  0.00    +0.000 OA
ATOM     47  H   UNL     1     -31.792  41.929  -3.920  0.00  0.00    +0.000 HD
ENDBRANCH  42  46
BRANCH  44  48
ATOM     48  O   UNL     1     -33.654  41.090  -5.251  0.00  0.00    +0.000 OA
BRANCH  48  50
ATOM     49  O   UNL     1     -34.441  39.330  -6.590  0.00  0.00    +0.000 OA
ATOM     50  C   UNL     1     -34.364  40.742  -6.432  0.00  0.00    +0.000 C 
ATOM     51  C   UNL     1     -33.580  41.335  -7.608  0.00  0.00    +0.000 C 
ATOM     52  C   UNL     1     -33.761  40.527  -8.891  0.00  0.00    +0.000 C 
ATOM     53  C   UNL     1     -35.292  38.934  -7.682  0.00  0.00    +0.000 C 
ATOM     54  C   UNL     1     -35.125  39.835  -8.920  0.00  0.00    +0.000 C 
ATOM     55  C   UNL     1     -34.930  37.487  -7.997  0.00  0.00    +0.000 C 
BRANCH  52  56
ATOM     56  O   UNL     1     -33.660  41.414 -10.012  0.00  0.00    +0.000 OA
ATOM     57  H   UNL     1     -34.338  42.104  -9.901  0.00  0.00    +0.000 HD
ENDBRANCH  52  56
BRANCH  54  58
ATOM     58  O   UNL     1     -36.144  40.850  -8.905  0.00  0.00    +0.000 OA
ATOM     59  H   UNL     1     -36.201  41.182  -9.825  0.00  0.00    +0.000 HD
ENDBRANCH  54  58
ENDBRANCH  48  50
ENDBRANCH  44  48
ENDBRANCH  38  40
ENDBRANCH   6  38
TORSDOF 12
ENDMDL
MODEL 3
REMARK VINA RESULT:      -7.9      5.878     11.805
REMARK  Name = 
REMARK  17 active torsions:
REMARK  status: ('A' for Active; 'I' for Inactive)
REMARK    1  A    between atoms: O_1  and  C_14
REMARK    2  A    between atoms: O_2  and  C_32
REMARK    3  A    between atoms: O_2  and  C_36
REMARK    4  A    between atoms: O_6  and  C_39
REMARK    5  A    between atoms: O_7  and  C_41
REMARK    6  A    between atoms: O_7  and  C_43
REMARK    7  A    between atoms: O_9  and  C_47
REMARK    8  A    between atoms: O_9  and  C_49
REMARK    9  A    between atoms: O_10  and  C_45
REMARK   10  A    between atoms: O_12  and  C_51
REMARK   11  A    between atoms: O_13  and  C_53
REMARK   12  A    between atoms: C_17  and  C_29
REMARK   13  A    between atoms: C_18  and  C_30
REMARK   14  A    between atoms: C_22  and  C_33
REMARK   15  A    between atoms: C_40  and  C_42
REMARK   16  A    between atoms: C_46  and  C_48
REMARK   17  A    between atoms: C_52  and  C_54
REMARK                            x       y       z     vdW  Elec       q    Type
REMARK                         _______ _______ _______ _____ _____    ______ ____
ROOT
ATOM      1  O   UNL     1     -41.069  50.356 -14.544  0.00  0.00    +0.000 OA
ATOM      2  C   UNL     1     -40.082  50.184 -13.531  0.00  0.00    +0.000 C 
ATOM      3  C   UNL     1     -38.672  50.042 -14.109  0.00  0.00    +0.000 C 
ATOM      4  C   UNL     1     -38.646  50.360 -15.597  0.00  0.00    +0.000 C 
ATOM      5  C   UNL     1     -40.875  51.557 -15.301  0.00  0.00    +0.000 C 
ATOM      6  C   UNL     1     -39.488  51.592 -15.986  0.00  0.00    +0.000 C 
ATOM      7  C   UNL     1     -42.001  51.613 -16.333  0.00  0.00    +0.000 C 
ENDROOT
BRANCH   4   8
ATOM      8  O   UNL     1     -37.315  50.403 -16.100  0.00  0.00    +0.000 OA
ATOM      9  H   UNL     1     -37.340  50.977 -16.895  0.00  0.00    +0.000 HD
ENDBRANCH   4   8
BRANCH   2  10
ATOM     10  O   UNL     1     -40.392  49.098 -12.657  0.00  0.00    +0.000 OA
BRANCH  10  29
ATOM     11  C   UNL     1     -34.425  45.167  -9.577  0.00  0.00    +0.000 C 
ATOM     12  C   UNL     1     -35.637  45.897 -10.218  0.00  0.00    +0.000 C 
ATOM     13  C   UNL     1     -36.987  45.577  -9.527  0.00  0.00    +0.000 C 
ATOM     14  C   UNL     1     -34.348  45.294  -8.029  0.00  0.00    +0.000 C 
ATOM     15  C   UNL     1     -38.219  46.328 -10.180  0.00  0.00    +0.000 C 
ATOM     16  C   UNL     1     -38.209  46.126 -11.732  0.00  0.00    +0.000 C 
ATOM     17  C   UNL     1     -36.863  45.799  -8.006  0.00  0.00    +0.000 C 
ATOM     18  C   UNL     1     -35.726  44.979  -7.396  0.00  0.00    +0.000 C 
ATOM     19  C   UNL     1     -33.282  44.205  -7.687  0.00  0.00    +0.000 C 
ATOM     20  C   UNL     1     -35.725  45.619 -11.726  0.00  0.00    +0.000 C 
ATOM     21  C   UNL     1     -34.384  43.648  -9.823  0.00  0.00    +0.000 C 
ATOM     22  C   UNL     1     -36.841  46.428 -12.367  0.00  0.00    +0.000 C 
ATOM     23  C   UNL     1     -33.616  43.041  -8.642  0.00  0.00    +0.000 C 
ATOM     24  C   UNL     1     -38.219  47.847  -9.850  0.00  0.00    +0.000 C 
ATOM     25  C   UNL     1     -39.297  46.952 -12.448  0.00  0.00    +0.000 C 
ATOM     26  C   UNL     1     -33.880  46.692  -7.577  0.00  0.00    +0.000 C 
ATOM     27  C   UNL     1     -39.520  45.697  -9.607  0.00  0.00    +0.000 C 
ATOM     28  C   UNL     1     -39.308  48.635 -10.579  0.00  0.00    +0.000 C 
ATOM     29  C   UNL     1     -39.252  48.441 -12.093  0.00  0.00    +0.000 C 
BRANCH  19  32
ATOM     30  O   UNL     1     -33.439  42.614  -4.303  0.00  0.00    +0.000 OA
ATOM     31  O   UNL     1     -32.273  44.041  -2.934  0.00  0.00    +0.000 OA
ATOM     32  C   UNL     1     -33.127  43.829  -6.237  0.00  0.00    +0.000 C 
ATOM     33  C   UNL     1     -33.753  42.597  -5.695  0.00  0.00    +0.000 C 
ATOM     34  C   UNL     1     -32.527  44.498  -5.252  0.00  0.00    +0.000 C 
ATOM     35  C   UNL     1     -32.710  43.725  -4.025  0.00  0.00    +0.000 C 
ENDBRANCH  19  32
BRANCH  11  36
ATOM     36  O   UNL     1     -33.217  45.688 -10.157  0.00  0.00    +0.000 OA
ATOM     37  H   UNL     1     -32.668  46.061  -9.446  0.00  0.00    +0.000 HD
ENDBRANCH  11  36
ENDBRANCH  10  29
ENDBRANCH   2  10
BRANCH   6  38
ATOM     38  O   UNL     1     -38.907  52.899 -15.968  0.00  0.00    +0.000 OA
BRANCH  38  40
ATOM     39  O   UNL     1     -40.373  54.430 -17.037  0.00  0.00    +0.000 OA
ATOM     40  C   UNL     1     -39.063  53.881 -16.983  0.00  0.00    +0.000 C 
ATOM     41  C   UNL     1     -38.562  53.488 -18.369  0.00  0.00    +0.000 C 
ATOM     42  C   UNL     1     -39.365  54.146 -19.487  0.00  0.00    +0.000 C 
ATOM     43  C   UNL     1     -40.376  55.698 -17.720  0.00  0.00    +0.000 C 
ATOM     44  C   UNL     1     -39.864  55.571 -19.177  0.00  0.00    +0.000 C 
ATOM     45  C   UNL     1     -41.814  56.211 -17.685  0.00  0.00    +0.000 C 
BRANCH  42  46
ATOM     46  O   UNL     1     -38.657  54.084 -20.725  0.00  0.00    +0.000 OA
ATOM     47  H   UNL     1     -37.808  53.634 -20.568  0.00  0.00    +0.000 HD
ENDBRANCH  42  46
BRANCH  44  48
ATOM     48  O   UNL     1     -39.019  56.671 -19.540  0.00  0.00    +0.000 OA
BRANCH  48  50
ATOM     49  O   UNL     1     -40.761  57.291 -20.988  0.00  0.00    +0.000 OA
ATOM     50  C   UNL     1     -39.550  57.702 -20.363  0.00  0.00    +0.000 C 
ATOM     51  C   UNL     1     -38.501  57.986 -21.443  0.00  0.00    +0.000 C 
ATOM     52  C   UNL     1     -39.127  58.497 -22.739  0.00  0.00    +0.000 C 
ATOM     53  C   UNL     1     -41.416  58.359 -21.697  0.00  0.00    +0.000 C 
ATOM     54  C   UNL     1     -40.426  59.257 -22.462  0.00  0.00    +0.000 C 
ATOM     55  C   UNL     1     -42.406  57.693 -22.645  0.00  0.00    +0.000 C 
BRANCH  52  56
ATOM     56  O   UNL     1     -38.198  59.376 -23.385  0.00  0.00    +0.000 OA
ATOM     57  H   UNL     1     -37.597  58.825 -23.919  0.00  0.00    +0.000 HD
ENDBRANCH  52  56
BRANCH  54  58
ATOM     58  O   UNL     1     -40.111  60.406 -21.656  0.00  0.00    +0.000 OA
ATOM     59  H   UNL     1     -39.789  60.051 -20.801  0.00  0.00    +0.000 HD
ENDBRANCH  54  58
ENDBRANCH  48  50
ENDBRANCH  44  48
ENDBRANCH  38  40
ENDBRANCH   6  38
TORSDOF 12
ENDMDL
MODEL 4
REMARK VINA RESULT:      -7.8     22.613     26.890
REMARK  Name = 
REMARK  17 active torsions:
REMARK  status: ('A' for Active; 'I' for Inactive)
REMARK    1  A    between atoms: O_1  and  C_14
REMARK    2  A    between atoms: O_2  and  C_32
REMARK    3  A    between atoms: O_2  and  C_36
REMARK    4  A    between atoms: O_6  and  C_39
REMARK    5  A    between atoms: O_7  and  C_41
REMARK    6  A    between atoms: O_7  and  C_43
REMARK    7  A    between atoms: O_9  and  C_47
REMARK    8  A    between atoms: O_9  and  C_49
REMARK    9  A    between atoms: O_10  and  C_45
REMARK   10  A    between atoms: O_12  and  C_51
REMARK   11  A    between atoms: O_13  and  C_53
REMARK   12  A    between atoms: C_17  and  C_29
REMARK   13  A    between atoms: C_18  and  C_30
REMARK   14  A    between atoms: C_22  and  C_33
REMARK   15  A    between atoms: C_40  and  C_42
REMARK   16  A    between atoms: C_46  and  C_48
REMARK   17  A    between atoms: C_52  and  C_54
REMARK                            x       y       z     vdW  Elec       q    Type
REMARK                         _______ _______ _______ _____ _____    ______ ____
ROOT
ATOM      1  O   UNL     1     -14.085  59.506  -1.698  0.00  0.00    +0.000 OA
ATOM      2  C   UNL     1     -14.926  58.681  -0.896  0.00  0.00    +0.000 C 
ATOM      3  C   UNL     1     -16.295  59.317  -0.642  0.00  0.00    +0.000 C 
ATOM      4  C   UNL     1     -16.503  60.553  -1.505  0.00  0.00    +0.000 C 
ATOM      5  C   UNL     1     -14.620  59.726  -3.008  0.00  0.00    +0.000 C 
ATOM      6  C   UNL     1     -16.018  60.387  -2.959  0.00  0.00    +0.000 C 
ATOM      7  C   UNL     1     -13.618  60.608  -3.751  0.00  0.00    +0.000 C 
ENDROOT
BRANCH   4   8
ATOM      8  O   UNL     1     -17.835  61.043  -1.406  0.00  0.00    +0.000 OA
ATOM      9  H   UNL     1     -18.340  60.618  -2.131  0.00  0.00    +0.000 HD
ENDBRANCH   4   8
BRANCH   2  10
ATOM     10  O   UNL     1     -14.298  58.305   0.330  0.00  0.00    +0.000 OA
BRANCH  10  29
ATOM     11  C   UNL     1     -16.723  51.770   3.789  0.00  0.00    +0.000 C 
ATOM     12  C   UNL     1     -16.214  53.093   3.154  0.00  0.00    +0.000 C 
ATOM     13  C   UNL     1     -14.679  53.125   2.940  0.00  0.00    +0.000 C 
ATOM     14  C   UNL     1     -16.190  50.483   3.098  0.00  0.00    +0.000 C 
ATOM     15  C   UNL     1     -14.165  54.473   2.287  0.00  0.00    +0.000 C 
ATOM     16  C   UNL     1     -14.746  55.701   3.064  0.00  0.00    +0.000 C 
ATOM     17  C   UNL     1     -14.230  51.859   2.181  0.00  0.00    +0.000 C 
ATOM     18  C   UNL     1     -14.658  50.578   2.895  0.00  0.00    +0.000 C 
ATOM     19  C   UNL     1     -16.579  49.391   4.146  0.00  0.00    +0.000 C 
ATOM     20  C   UNL     1     -16.669  54.315   3.966  0.00  0.00    +0.000 C 
ATOM     21  C   UNL     1     -16.343  51.576   5.268  0.00  0.00    +0.000 C 
ATOM     22  C   UNL     1     -16.268  55.609   3.276  0.00  0.00    +0.000 C 
ATOM     23  C   UNL     1     -16.295  50.062   5.505  0.00  0.00    +0.000 C 
ATOM     24  C   UNL     1     -14.545  54.577   0.784  0.00  0.00    +0.000 C 
ATOM     25  C   UNL     1     -14.405  57.047   2.393  0.00  0.00    +0.000 C 
ATOM     26  C   UNL     1     -16.875  50.220   1.741  0.00  0.00    +0.000 C 
ATOM     27  C   UNL     1     -12.615  54.500   2.409  0.00  0.00    +0.000 C 
ATOM     28  C   UNL     1     -14.195  55.925   0.153  0.00  0.00    +0.000 C 
ATOM     29  C   UNL     1     -14.804  57.100   0.915  0.00  0.00    +0.000 C 
BRANCH  19  32
ATOM     30  O   UNL     1     -14.528  46.265   4.301  0.00  0.00    +0.000 OA
ATOM     31  O   UNL     1     -15.369  44.933   2.630  0.00  0.00    +0.000 OA
ATOM     32  C   UNL     1     -15.982  48.022   3.962  0.00  0.00    +0.000 C 
ATOM     33  C   UNL     1     -14.847  47.562   4.802  0.00  0.00    +0.000 C 
ATOM     34  C   UNL     1     -16.275  47.089   3.056  0.00  0.00    +0.000 C 
ATOM     35  C   UNL     1     -15.366  45.966   3.275  0.00  0.00    +0.000 C 
ENDBRANCH  19  32
BRANCH  11  36
ATOM     36  O   UNL     1     -18.160  51.769   3.753  0.00  0.00    +0.000 OA
ATOM     37  H   UNL     1     -18.466  50.857   3.608  0.00  0.00    +0.000 HD
ENDBRANCH  11  36
ENDBRANCH  10  29
ENDBRANCH   2  10
BRANCH   6  38
ATOM     38  O   UNL     1     -16.899  59.868  -3.960  0.00  0.00    +0.000 OA
BRANCH  38  40
ATOM     39  O   UNL     1     -15.871  59.608  -6.083  0.00  0.00    +0.000 OA
ATOM     40  C   UNL     1     -16.528  58.970  -4.996  0.00  0.00    +0.000 C 
ATOM     41  C   UNL     1     -17.625  58.027  -5.481  0.00  0.00    +0.000 C 
ATOM     42  C   UNL     1     -17.476  57.669  -6.957  0.00  0.00    +0.000 C 
ATOM     43  C   UNL     1     -15.117  58.660  -6.863  0.00  0.00    +0.000 C 
ATOM     44  C   UNL     1     -16.021  57.549  -7.453  0.00  0.00    +0.000 C 
ATOM     45  C   UNL     1     -14.425  59.453  -7.969  0.00  0.00    +0.000 C 
BRANCH  42  46
ATOM     46  O   UNL     1     -18.250  56.515  -7.280  0.00  0.00    +0.000 OA
ATOM     47  H   UNL     1     -18.125  55.856  -6.575  0.00  0.00    +0.000 HD
ENDBRANCH  42  46
BRANCH  44  48
ATOM     48  O   UNL     1     -15.395  56.262  -7.385  0.00  0.00    +0.000 OA
BRANCH  48  50
ATOM     49  O   UNL     1     -13.286  56.157  -8.412  0.00  0.00    +0.000 OA
ATOM     50  C   UNL     1     -14.658  55.796  -8.509  0.00  0.00    +0.000 C 
ATOM     51  C   UNL     1     -15.268  56.470  -9.743  0.00  0.00    +0.000 C 
ATOM     52  C   UNL     1     -14.248  56.654 -10.864  0.00  0.00    +0.000 C 
ATOM     53  C   UNL     1     -12.476  55.564  -9.444  0.00  0.00    +0.000 C 
ATOM     54  C   UNL     1     -13.173  55.566 -10.817  0.00  0.00    +0.000 C 
ATOM     55  C   UNL     1     -11.180  56.367  -9.479  0.00  0.00    +0.000 C 
BRANCH  52  56
ATOM     56  O   UNL     1     -14.929  56.586 -12.123  0.00  0.00    +0.000 OA
ATOM     57  H   UNL     1     -15.084  55.645 -12.322  0.00  0.00    +0.000 HD
ENDBRANCH  52  56
BRANCH  54  58
ATOM     58  O   UNL     1     -13.812  54.293 -11.023  0.00  0.00    +0.000 OA
ATOM     59  H   UNL     1     -14.744  54.417 -10.749  0.00  0.00    +0.000 HD
ENDBRANCH  54  58
ENDBRANCH  48  50
ENDBRANCH  44  48
ENDBRANCH  38  40
ENDBRANCH   6  38
TORSDOF 12
ENDMDL
MODEL 5
REMARK VINA RESULT:      -7.7     22.087     26.704
REMARK  Name = 
REMARK  17 active torsions:
REMARK  status: ('A' for Active; 'I' for Inactive)
REMARK    1  A    between atoms: O_1  and  C_14
REMARK    2  A    between atoms: O_2  and  C_32
REMARK    3  A    between atoms: O_2  and  C_36
REMARK    4  A    between atoms: O_6  and  C_39
REMARK    5  A    between atoms: O_7  and  C_41
REMARK    6  A    between atoms: O_7  and  C_43
REMARK    7  A    between atoms: O_9  and  C_47
REMARK    8  A    between atoms: O_9  and  C_49
REMARK    9  A    between atoms: O_10  and  C_45
REMARK   10  A    between atoms: O_12  and  C_51
REMARK   11  A    between atoms: O_13  and  C_53
REMARK   12  A    between atoms: C_17  and  C_29
REMARK   13  A    between atoms: C_18  and  C_30
REMARK   14  A    between atoms: C_22  and  C_33
REMARK   15  A    between atoms: C_40  and  C_42
REMARK   16  A    between atoms: C_46  and  C_48
REMARK   17  A    between atoms: C_52  and  C_54
REMARK                            x       y       z     vdW  Elec       q    Type
REMARK                         _______ _______ _______ _____ _____    ______ ____
ROOT
ATOM      1  O   UNL     1     -15.728  56.161 -30.159  0.00  0.00    +0.000 OA
ATOM      2  C   UNL     1     -16.747  55.206 -29.876  0.00  0.00    +0.000 C 
ATOM      3  C   UNL     1     -18.071  55.867 -29.482  0.00  0.00    +0.000 C 
ATOM      4  C   UNL     1     -18.037  57.368 -29.724  0.00  0.00    +0.000 C 
ATOM      5  C   UNL     1     -16.053  56.996 -31.277  0.00  0.00    +0.000 C 
ATOM      6  C   UNL     1     -17.374  57.770 -31.057  0.00  0.00    +0.000 C 
ATOM      7  C   UNL     1     -14.877  57.953 -31.468  0.00  0.00    +0.000 C 
ENDROOT
BRANCH   4   8
ATOM      8  O   UNL     1     -19.317  57.959 -29.529  0.00  0.00    +0.000 OA
ATOM      9  H   UNL     1     -19.305  58.352 -28.631  0.00  0.00    +0.000 HD
ENDBRANCH   4   8
BRANCH   2  10
ATOM     10  O   UNL     1     -16.334  54.255 -28.895  0.00  0.00    +0.000 OA
BRANCH  10  29
ATOM     11  C   UNL     1     -14.065  56.974 -21.966  0.00  0.00    +0.000 C 
ATOM     12  C   UNL     1     -14.465  56.396 -23.351  0.00  0.00    +0.000 C 
ATOM     13  C   UNL     1     -14.938  54.921 -23.292  0.00  0.00    +0.000 C 
ATOM     14  C   UNL     1     -15.113  56.728 -20.844  0.00  0.00    +0.000 C 
ATOM     15  C   UNL     1     -15.350  54.337 -24.705  0.00  0.00    +0.000 C 
ATOM     16  C   UNL     1     -14.225  54.626 -25.753  0.00  0.00    +0.000 C 
ATOM     17  C   UNL     1     -16.031  54.764 -22.215  0.00  0.00    +0.000 C 
ATOM     18  C   UNL     1     -15.559  55.246 -20.842  0.00  0.00    +0.000 C 
ATOM     19  C   UNL     1     -14.287  57.095 -19.570  0.00  0.00    +0.000 C 
ATOM     20  C   UNL     1     -13.331  56.557 -24.374  0.00  0.00    +0.000 C 
ATOM     21  C   UNL     1     -12.761  56.404 -21.381  0.00  0.00    +0.000 C 
ATOM     22  C   UNL     1     -13.770  56.096 -25.755  0.00  0.00    +0.000 C 
ATOM     23  C   UNL     1     -12.884  56.522 -19.857  0.00  0.00    +0.000 C 
ATOM     24  C   UNL     1     -16.698  54.923 -25.209  0.00  0.00    +0.000 C 
ATOM     25  C   UNL     1     -14.624  54.214 -27.185  0.00  0.00    +0.000 C 
ATOM     26  C   UNL     1     -16.349  57.639 -20.986  0.00  0.00    +0.000 C 
ATOM     27  C   UNL     1     -15.505  52.797 -24.557  0.00  0.00    +0.000 C 
ATOM     28  C   UNL     1     -17.061  54.497 -26.631  0.00  0.00    +0.000 C 
ATOM     29  C   UNL     1     -15.956  54.822 -27.635  0.00  0.00    +0.000 C 
BRANCH  19  32
ATOM     30  O   UNL     1     -15.965  57.017 -16.226  0.00  0.00    +0.000 OA
ATOM     31  O   UNL     1     -15.629  54.880 -15.456  0.00  0.00    +0.000 OA
ATOM     32  C   UNL     1     -14.879  56.720 -18.238  0.00  0.00    +0.000 C 
ATOM     33  C   UNL     1     -15.614  57.716 -17.419  0.00  0.00    +0.000 C 
ATOM     34  C   UNL     1     -14.798  55.567 -17.574  0.00  0.00    +0.000 C 
ATOM     35  C   UNL     1     -15.496  55.745 -16.303  0.00  0.00    +0.000 C 
ENDBRANCH  19  32
BRANCH  11  36
ATOM     36  O   UNL     1     -13.843  58.388 -22.107  0.00  0.00    +0.000 OA
ATOM     37  H   UNL     1     -13.969  58.810 -21.240  0.00  0.00    +0.000 HD
ENDBRANCH  11  36
ENDBRANCH  10  29
ENDBRANCH   2  10
BRANCH   6  38
ATOM     38  O   UNL     1     -18.154  57.864 -32.253  0.00  0.00    +0.000 OA
BRANCH  38  40
ATOM     39  O   UNL     1     -18.632  55.637 -32.919  0.00  0.00    +0.000 OA
ATOM     40  C   UNL     1     -19.148  56.936 -32.661  0.00  0.00    +0.000 C 
ATOM     41  C   UNL     1     -20.072  57.405 -33.781  0.00  0.00    +0.000 C 
ATOM     42  C   UNL     1     -20.554  56.254 -34.659  0.00  0.00    +0.000 C 
ATOM     43  C   UNL     1     -19.676  54.645 -32.870  0.00  0.00    +0.000 C 
ATOM     44  C   UNL     1     -20.785  54.922 -33.917  0.00  0.00    +0.000 C 
ATOM     45  C   UNL     1     -19.009  53.294 -33.119  0.00  0.00    +0.000 C 
BRANCH  42  46
ATOM     46  O   UNL     1     -21.691  56.643 -35.428  0.00  0.00    +0.000 OA
ATOM     47  H   UNL     1     -22.186  55.840 -35.668  0.00  0.00    +0.000 HD
ENDBRANCH  42  46
BRANCH  44  48
ATOM     48  O   UNL     1     -22.092  54.670 -33.385  0.00  0.00    +0.000 OA
BRANCH  48  50
ATOM     49  O   UNL     1     -23.450  53.282 -34.705  0.00  0.00    +0.000 OA
ATOM     50  C   UNL     1     -22.653  53.371 -33.530  0.00  0.00    +0.000 C 
ATOM     51  C   UNL     1     -23.542  53.137 -32.303  0.00  0.00    +0.000 C 
ATOM     52  C   UNL     1     -24.701  52.189 -32.600  0.00  0.00    +0.000 C 
ATOM     53  C   UNL     1     -23.901  51.942 -34.976  0.00  0.00    +0.000 C 
ATOM     54  C   UNL     1     -24.331  51.193 -33.701  0.00  0.00    +0.000 C 
ATOM     55  C   UNL     1     -25.060  52.076 -35.957  0.00  0.00    +0.000 C 
BRANCH  52  56
ATOM     56  O   UNL     1     -25.026  51.468 -31.405  0.00  0.00    +0.000 OA
ATOM     57  H   UNL     1     -24.311  50.826 -31.247  0.00  0.00    +0.000 HD
ENDBRANCH  52  56
BRANCH  54  58
ATOM     58  O   UNL     1     -23.231  50.392 -33.231  0.00  0.00    +0.000 OA
ATOM     59  H   UNL     1     -23.489  49.462 -33.398  0.00  0.00    +0.000 HD
ENDBRANCH  54  58
ENDBRANCH  48  50
ENDBRANCH  44  48
ENDBRANCH  38  40
ENDBRANCH   6  38
TORSDOF 12
ENDMDL
MODEL 6
REMARK VINA RESULT:      -7.6      7.060     11.195
REMARK  Name = 
REMARK  17 active torsions:
REMARK  status: ('A' for Active; 'I' for Inactive)
REMARK    1  A    between atoms: O_1  and  C_14
REMARK    2  A    between atoms: O_2  and  C_32
REMARK    3  A    between atoms: O_2  and  C_36
REMARK    4  A    between atoms: O_6  and  C_39
REMARK    5  A    between atoms: O_7  and  C_41
REMARK    6  A    between atoms: O_7  and  C_43
REMARK    7  A    between atoms: O_9  and  C_47
REMARK    8  A    between atoms: O_9  and  C_49
REMARK    9  A    between atoms: O_10  and  C_45
REMARK   10  A    between atoms: O_12  and  C_51
REMARK   11  A    between atoms: O_13  and  C_53
REMARK   12  A    between atoms: C_17  and  C_29
REMARK   13  A    between atoms: C_18  and  C_30
REMARK   14  A    between atoms: C_22  and  C_33
REMARK   15  A    between atoms: C_40  and  C_42
REMARK   16  A    between atoms: C_46  and  C_48
REMARK   17  A    between atoms: C_52  and  C_54
REMARK                            x       y       z     vdW  Elec       q    Type
REMARK                         _______ _______ _______ _____ _____    ______ ____
ROOT
ATOM      1  O   UNL     1     -36.825  47.480 -18.534  0.00  0.00    +0.000 OA
ATOM      2  C   UNL     1     -36.117  48.665 -18.886  0.00  0.00    +0.000 C 
ATOM      3  C   UNL     1     -36.227  49.750 -17.810  0.00  0.00    +0.000 C 
ATOM      4  C   UNL     1     -36.858  49.208 -16.536  0.00  0.00    +0.000 C 
ATOM      5  C   UNL     1     -36.304  46.859 -17.352  0.00  0.00    +0.000 C 
ATOM      6  C   UNL     1     -36.346  47.811 -16.133  0.00  0.00    +0.000 C 
ATOM      7  C   UNL     1     -37.145  45.607 -17.105  0.00  0.00    +0.000 C 
ENDROOT
BRANCH   4   8
ATOM      8  O   UNL     1     -36.800  50.158 -15.478  0.00  0.00    +0.000 OA
ATOM      9  H   UNL     1     -37.206  49.726 -14.698  0.00  0.00    +0.000 HD
ENDBRANCH   4   8
BRANCH   2  10
ATOM     10  O   UNL     1     -36.510  49.166 -20.164  0.00  0.00    +0.000 OA
BRANCH  10  29
ATOM     11  C   UNL     1     -39.854  56.192 -20.257  0.00  0.00    +0.000 C 
ATOM     12  C   UNL     1     -39.244  54.763 -20.238  0.00  0.00    +0.000 C 
ATOM     13  C   UNL     1     -39.387  54.012 -21.587  0.00  0.00    +0.000 C 
ATOM     14  C   UNL     1     -39.414  57.058 -21.471  0.00  0.00    +0.000 C 
ATOM     15  C   UNL     1     -38.759  52.559 -21.565  0.00  0.00    +0.000 C 
ATOM     16  C   UNL     1     -39.276  51.771 -20.315  0.00  0.00    +0.000 C 
ATOM     17  C   UNL     1     -38.860  54.896 -22.736  0.00  0.00    +0.000 C 
ATOM     18  C   UNL     1     -39.562  56.254 -22.786  0.00  0.00    +0.000 C 
ATOM     19  C   UNL     1     -40.432  58.240 -21.387  0.00  0.00    +0.000 C 
ATOM     20  C   UNL     1     -39.823  53.922 -19.090  0.00  0.00    +0.000 C 
ATOM     21  C   UNL     1     -41.391  56.236 -20.313  0.00  0.00    +0.000 C 
ATOM     22  C   UNL     1     -39.139  52.568 -19.006  0.00  0.00    +0.000 C 
ATOM     23  C   UNL     1     -41.759  57.561 -20.992  0.00  0.00    +0.000 C 
ATOM     24  C   UNL     1     -37.205  52.593 -21.557  0.00  0.00    +0.000 C 
ATOM     25  C   UNL     1     -38.591  50.399 -20.150  0.00  0.00    +0.000 C 
ATOM     26  C   UNL     1     -37.963  57.564 -21.337  0.00  0.00    +0.000 C 
ATOM     27  C   UNL     1     -39.231  51.817 -22.847  0.00  0.00    +0.000 C 
ATOM     28  C   UNL     1     -36.561  51.217 -21.389  0.00  0.00    +0.000 C 
ATOM     29  C   UNL     1     -37.062  50.487 -20.144  0.00  0.00    +0.000 C 
BRANCH  19  32
ATOM     30  O   UNL     1     -40.025  61.006 -23.875  0.00  0.00    +0.000 OA
ATOM     31  O   UNL     1     -41.593  60.569 -25.493  0.00  0.00    +0.000 OA
ATOM     32  C   UNL     1     -40.507  59.166 -22.571  0.00  0.00    +0.000 C 
ATOM     33  C   UNL     1     -39.627  60.358 -22.667  0.00  0.00    +0.000 C 
ATOM     34  C   UNL     1     -41.340  59.140 -23.612  0.00  0.00    +0.000 C 
ATOM     35  C   UNL     1     -41.030  60.296 -24.449  0.00  0.00    +0.000 C 
ENDBRANCH  19  32
BRANCH  11  36
ATOM     36  O   UNL     1     -39.488  56.862 -19.038  0.00  0.00    +0.000 OA
ATOM     37  H   UNL     1     -38.787  56.349 -18.601  0.00  0.00    +0.000 HD
ENDBRANCH  11  36
ENDBRANCH  10  29
ENDBRANCH   2  10
BRANCH   6  38
ATOM     38  O   UNL     1     -35.190  47.676 -15.300  0.00  0.00    +0.000 OA
BRANCH  38  40
ATOM     39  O   UNL     1     -34.479  45.821 -14.002  0.00  0.00    +0.000 OA
ATOM     40  C   UNL     1     -35.167  47.065 -14.019  0.00  0.00    +0.000 C 
ATOM     41  C   UNL     1     -36.512  46.972 -13.304  0.00  0.00    +0.000 C 
ATOM     42  C   UNL     1     -36.608  45.746 -12.400  0.00  0.00    +0.000 C 
ATOM     43  C   UNL     1     -34.076  45.469 -12.664  0.00  0.00    +0.000 C 
ATOM     44  C   UNL     1     -35.289  45.343 -11.709  0.00  0.00    +0.000 C 
ATOM     45  C   UNL     1     -33.317  44.148 -12.768  0.00  0.00    +0.000 C 
BRANCH  42  46
ATOM     46  O   UNL     1     -37.680  45.884 -11.469  0.00  0.00    +0.000 OA
ATOM     47  H   UNL     1     -38.418  45.324 -11.768  0.00  0.00    +0.000 HD
ENDBRANCH  42  46
BRANCH  44  48
ATOM     48  O   UNL     1     -35.011  45.903 -10.420  0.00  0.00    +0.000 OA
BRANCH  48  50
ATOM     49  O   UNL     1     -34.728  43.954  -9.141  0.00  0.00    +0.000 OA
ATOM     50  C   UNL     1     -34.152  45.195  -9.534  0.00  0.00    +0.000 C 
ATOM     51  C   UNL     1     -33.973  46.079  -8.295  0.00  0.00    +0.000 C 
ATOM     52  C   UNL     1     -33.706  45.260  -7.034  0.00  0.00    +0.000 C 
ATOM     53  C   UNL     1     -33.824  43.134  -8.378  0.00  0.00    +0.000 C 
ATOM     54  C   UNL     1     -32.995  43.947  -7.368  0.00  0.00    +0.000 C 
ATOM     55  C   UNL     1     -34.687  42.092  -7.676  0.00  0.00    +0.000 C 
BRANCH  52  56
ATOM     56  O   UNL     1     -32.881  46.030  -6.150  0.00  0.00    +0.000 OA
ATOM     57  H   UNL     1     -31.954  45.805  -6.346  0.00  0.00    +0.000 HD
ENDBRANCH  52  56
BRANCH  54  58
ATOM     58  O   UNL     1     -31.718  44.264  -7.951  0.00  0.00    +0.000 OA
ATOM     59  H   UNL     1     -31.056  43.767  -7.428  0.00  0.00    +0.000 HD
ENDBRANCH  54  58
ENDBRANCH  48  50
ENDBRANCH  44  48
ENDBRANCH  38  40
ENDBRANCH   6  38
TORSDOF 12
ENDMDL
MODEL 7
REMARK VINA RESULT:      -7.5     16.632     19.408
REMARK  Name = 
REMARK  17 active torsions:
REMARK  status: ('A' for Active; 'I' for Inactive)
REMARK    1  A    between atoms: O_1  and  C_14
REMARK    2  A    between atoms: O_2  and  C_32
REMARK    3  A    between atoms: O_2  and  C_36
REMARK    4  A    between atoms: O_6  and  C_39
REMARK    5  A    between atoms: O_7  and  C_41
REMARK    6  A    between atoms: O_7  and  C_43
REMARK    7  A    between atoms: O_9  and  C_47
REMARK    8  A    between atoms: O_9  and  C_49
REMARK    9  A    between atoms: O_10  and  C_45
REMARK   10  A    between atoms: O_12  and  C_51
REMARK   11  A    between atoms: O_13  and  C_53
REMARK   12  A    between atoms: C_17  and  C_29
REMARK   13  A    between atoms: C_18  and  C_30
REMARK   14  A    between atoms: C_22  and  C_33
REMARK   15  A    between atoms: C_40  and  C_42
REMARK   16  A    between atoms: C_46  and  C_48
REMARK   17  A    between atoms: C_52  and  C_54
REMARK                            x       y       z     vdW  Elec       q    Type
REMARK                         _______ _______ _______ _____ _____    ______ ____
ROOT
ATOM      1  O   UNL     1     -30.261  66.766 -12.369  0.00  0.00    +0.000 OA
ATOM      2  C   UNL     1     -31.223  67.509 -13.113  0.00  0.00    +0.000 C 
ATOM      3  C   UNL     1     -32.404  66.645 -13.563  0.00  0.00    +0.000 C 
ATOM      4  C   UNL     1     -32.376  65.275 -12.902  0.00  0.00    +0.000 C 
ATOM      5  C   UNL     1     -30.798  66.239 -11.150  0.00  0.00    +0.000 C 
ATOM      6  C   UNL     1     -32.011  65.313 -11.404  0.00  0.00    +0.000 C 
ATOM      7  C   UNL     1     -29.663  65.484 -10.459  0.00  0.00    +0.000 C 
ENDROOT
BRANCH   4   8
ATOM      8  O   UNL     1     -33.560  64.536 -13.177  0.00  0.00    +0.000 OA
ATOM      9  H   UNL     1     -34.064  65.058 -13.837  0.00  0.00    +0.000 HD
ENDBRANCH   4   8
BRANCH   2  10
ATOM     10  O   UNL     1     -30.635  68.193 -14.219  0.00  0.00    +0.000 OA
BRANCH  10  29
ATOM     11  C   UNL     1     -30.720  64.489 -21.061  0.00  0.00    +0.000 C 
ATOM     12  C   UNL     1     -30.643  65.211 -19.688  0.00  0.00    +0.000 C 
ATOM     13  C   UNL     1     -29.802  66.512 -19.720  0.00  0.00    +0.000 C 
ATOM     14  C   UNL     1     -31.102  65.417 -22.250  0.00  0.00    +0.000 C 
ATOM     15  C   UNL     1     -29.730  67.248 -18.320  0.00  0.00    +0.000 C 
ATOM     16  C   UNL     1     -29.326  66.231 -17.201  0.00  0.00    +0.000 C 
ATOM     17  C   UNL     1     -30.285  67.419 -20.871  0.00  0.00    +0.000 C 
ATOM     18  C   UNL     1     -30.244  66.705 -22.222  0.00  0.00    +0.000 C 
ATOM     19  C   UNL     1     -30.757  64.506 -23.471  0.00  0.00    +0.000 C 
ATOM     20  C   UNL     1     -30.132  64.268 -18.588  0.00  0.00    +0.000 C 
ATOM     21  C   UNL     1     -29.407  63.830 -21.519  0.00  0.00    +0.000 C 
ATOM     22  C   UNL     1     -30.169  64.944 -17.227  0.00  0.00    +0.000 C 
ATOM     23  C   UNL     1     -29.451  63.800 -23.051  0.00  0.00    +0.000 C 
ATOM     24  C   UNL     1     -31.077  67.929 -17.947  0.00  0.00    +0.000 C 
ATOM     25  C   UNL     1     -29.380  66.847 -15.788  0.00  0.00    +0.000 C 
ATOM     26  C   UNL     1     -32.598  65.793 -22.243  0.00  0.00    +0.000 C 
ATOM     27  C   UNL     1     -28.630  68.343 -18.413  0.00  0.00    +0.000 C 
ATOM     28  C   UNL     1     -31.095  68.525 -16.540  0.00  0.00    +0.000 C 
ATOM     29  C   UNL     1     -30.728  67.500 -15.468  0.00  0.00    +0.000 C 
BRANCH  19  32
ATOM     30  O   UNL     1     -31.540  65.870 -26.866  0.00  0.00    +0.000 OA
ATOM     31  O   UNL     1     -29.527  66.634 -27.665  0.00  0.00    +0.000 OA
ATOM     32  C   UNL     1     -30.733  65.157 -24.827  0.00  0.00    +0.000 C 
ATOM     33  C   UNL     1     -31.965  65.258 -25.650  0.00  0.00    +0.000 C 
ATOM     34  C   UNL     1     -29.698  65.647 -25.510  0.00  0.00    +0.000 C 
ATOM     35  C   UNL     1     -30.205  66.113 -26.799  0.00  0.00    +0.000 C 
ENDBRANCH  19  32
BRANCH  11  36
ATOM     36  O   UNL     1     -31.679  63.422 -20.965  0.00  0.00    +0.000 OA
ATOM     37  H   UNL     1     -31.204  62.574 -21.002  0.00  0.00    +0.000 HD
ENDBRANCH  11  36
ENDBRANCH  10  29
ENDBRANCH   2  10
BRANCH   6  38
ATOM     38  O   UNL     1     -33.033  65.473 -10.415  0.00  0.00    +0.000 OA
BRANCH  38  40
ATOM     39  O   UNL     1     -34.769  63.859 -10.307  0.00  0.00    +0.000 OA
ATOM     40  C   UNL     1     -33.629  64.421  -9.671  0.00  0.00    +0.000 C 
ATOM     41  C   UNL     1     -33.898  64.720  -8.199  0.00  0.00    +0.000 C 
ATOM     42  C   UNL     1     -35.120  63.977  -7.668  0.00  0.00    +0.000 C 
ATOM     43  C   UNL     1     -35.056  62.545  -9.789  0.00  0.00    +0.000 C 
ATOM     44  C   UNL     1     -35.339  62.573  -8.266  0.00  0.00    +0.000 C 
ATOM     45  C   UNL     1     -36.264  62.023 -10.564  0.00  0.00    +0.000 C 
BRANCH  42  46
ATOM     46  O   UNL     1     -35.122  63.958  -6.241  0.00  0.00    +0.000 OA
ATOM     47  H   UNL     1     -36.012  63.701  -5.941  0.00  0.00    +0.000 HD
ENDBRANCH  42  46
BRANCH  44  48
ATOM     48  O   UNL     1     -34.739  61.458  -7.594  0.00  0.00    +0.000 OA
BRANCH  48  50
ATOM     49  O   UNL     1     -36.907  60.555  -7.564  0.00  0.00    +0.000 OA
ATOM     50  C   UNL     1     -35.582  60.445  -7.058  0.00  0.00    +0.000 C 
ATOM     51  C   UNL     1     -35.607  60.654  -5.540  0.00  0.00    +0.000 C 
ATOM     52  C   UNL     1     -36.912  60.171  -4.911  0.00  0.00    +0.000 C 
ATOM     53  C   UNL     1     -37.749  59.454  -7.176  0.00  0.00    +0.000 C 
ATOM     54  C   UNL     1     -37.521  59.021  -5.716  0.00  0.00    +0.000 C 
ATOM     55  C   UNL     1     -39.183  59.918  -7.399  0.00  0.00    +0.000 C 
BRANCH  52  56
ATOM     56  O   UNL     1     -36.643  59.720  -3.578  0.00  0.00    +0.000 OA
ATOM     57  H   UNL     1     -37.498  59.640  -3.117  0.00  0.00    +0.000 HD
ENDBRANCH  52  56
BRANCH  54  58
ATOM     58  O   UNL     1     -36.598  57.917  -5.690  0.00  0.00    +0.000 OA
ATOM     59  H   UNL     1     -36.356  57.796  -4.749  0.00  0.00    +0.000 HD
ENDBRANCH  54  58
ENDBRANCH  48  50
ENDBRANCH  44  48
ENDBRANCH  38  40
ENDBRANCH   6  38
TORSDOF 12
ENDMDL
MODEL 8
REMARK VINA RESULT:      -7.3     23.139     27.162
REMARK  Name = 
REMARK  17 active torsions:
REMARK  status: ('A' for Active; 'I' for Inactive)
REMARK    1  A    between atoms: O_1  and  C_14
REMARK    2  A    between atoms: O_2  and  C_32
REMARK    3  A    between atoms: O_2  and  C_36
REMARK    4  A    between atoms: O_6  and  C_39
REMARK    5  A    between atoms: O_7  and  C_41
REMARK    6  A    between atoms: O_7  and  C_43
REMARK    7  A    between atoms: O_9  and  C_47
REMARK    8  A    between atoms: O_9  and  C_49
REMARK    9  A    between atoms: O_10  and  C_45
REMARK   10  A    between atoms: O_12  and  C_51
REMARK   11  A    between atoms: O_13  and  C_53
REMARK   12  A    between atoms: C_17  and  C_29
REMARK   13  A    between atoms: C_18  and  C_30
REMARK   14  A    between atoms: C_22  and  C_33
REMARK   15  A    between atoms: C_40  and  C_42
REMARK   16  A    between atoms: C_46  and  C_48
REMARK   17  A    between atoms: C_52  and  C_54
REMARK                            x       y       z     vdW  Elec       q    Type
REMARK                         _______ _______ _______ _____ _____    ______ ____
ROOT
ATOM      1  O   UNL     1     -14.874  56.105   2.123  0.00  0.00    +0.000 OA
ATOM      2  C   UNL     1     -15.621  56.617   3.224  0.00  0.00    +0.000 C 
ATOM      3  C   UNL     1     -15.117  57.989   3.682  0.00  0.00    +0.000 C 
ATOM      4  C   UNL     1     -14.109  58.567   2.701  0.00  0.00    +0.000 C 
ATOM      5  C   UNL     1     -14.983  56.929   0.956  0.00  0.00    +0.000 C 
ATOM      6  C   UNL     1     -14.497  58.374   1.221  0.00  0.00    +0.000 C 
ATOM      7  C   UNL     1     -14.149  56.258  -0.135  0.00  0.00    +0.000 C 
ENDROOT
BRANCH   4   8
ATOM      8  O   UNL     1     -13.772  59.911   3.026  0.00  0.00    +0.000 OA
ATOM      9  H   UNL     1     -14.574  60.305   3.431  0.00  0.00    +0.000 HD
ENDBRANCH   4   8
BRANCH   2  10
ATOM     10  O   UNL     1     -15.671  55.697   4.314  0.00  0.00    +0.000 OA
BRANCH  10  29
ATOM     11  C   UNL     1     -15.599  48.169   2.347  0.00  0.00    +0.000 C 
ATOM     12  C   UNL     1     -15.675  49.674   2.722  0.00  0.00    +0.000 C 
ATOM     13  C   UNL     1     -16.486  49.950   4.013  0.00  0.00    +0.000 C 
ATOM     14  C   UNL     1     -15.185  47.238   3.522  0.00  0.00    +0.000 C 
ATOM     15  C   UNL     1     -16.556  51.485   4.395  0.00  0.00    +0.000 C 
ATOM     16  C   UNL     1     -16.993  52.327   3.151  0.00  0.00    +0.000 C 
ATOM     17  C   UNL     1     -15.973  49.051   5.157  0.00  0.00    +0.000 C 
ATOM     18  C   UNL     1     -16.016  47.568   4.786  0.00  0.00    +0.000 C 
ATOM     19  C   UNL     1     -15.539  45.833   2.937  0.00  0.00    +0.000 C 
ATOM     20  C   UNL     1     -16.216  50.515   1.556  0.00  0.00    +0.000 C 
ATOM     21  C   UNL     1     -16.922  47.562   1.847  0.00  0.00    +0.000 C 
ATOM     22  C   UNL     1     -16.178  51.998   1.888  0.00  0.00    +0.000 C 
ATOM     23  C   UNL     1     -16.864  46.066   2.182  0.00  0.00    +0.000 C 
ATOM     24  C   UNL     1     -15.199  52.015   4.935  0.00  0.00    +0.000 C 
ATOM     25  C   UNL     1     -16.940  53.847   3.410  0.00  0.00    +0.000 C 
ATOM     26  C   UNL     1     -13.682  47.340   3.850  0.00  0.00    +0.000 C 
ATOM     27  C   UNL     1     -17.630  51.651   5.507  0.00  0.00    +0.000 C 
ATOM     28  C   UNL     1     -15.181  53.524   5.178  0.00  0.00    +0.000 C 
ATOM     29  C   UNL     1     -15.581  54.319   3.937  0.00  0.00    +0.000 C 
BRANCH  19  32
ATOM     30  O   UNL     1     -14.901  42.639   4.779  0.00  0.00    +0.000 OA
ATOM     31  O   UNL     1     -16.497  42.590   6.429  0.00  0.00    +0.000 OA
ATOM     32  C   UNL     1     -15.535  44.671   3.893  0.00  0.00    +0.000 C 
ATOM     33  C   UNL     1     -14.561  43.560   3.745  0.00  0.00    +0.000 C 
ATOM     34  C   UNL     1     -16.366  44.406   4.902  0.00  0.00    +0.000 C 
ATOM     35  C   UNL     1     -15.961  43.125   5.477  0.00  0.00    +0.000 C 
ENDBRANCH  19  32
BRANCH  11  36
ATOM     36  O   UNL     1     -14.665  48.012   1.265  0.00  0.00    +0.000 OA
ATOM     37  H   UNL     1     -14.894  48.646   0.564  0.00  0.00    +0.000 HD
ENDBRANCH  11  36
ENDBRANCH  10  29
ENDBRANCH   2  10
BRANCH   6  38
ATOM     38  O   UNL     1     -15.305  59.348   0.553  0.00  0.00    +0.000 OA
BRANCH  38  40
ATOM     39  O   UNL     1     -14.846  60.105  -1.649  0.00  0.00    +0.000 OA
ATOM     40  C   UNL     1     -15.677  59.307  -0.817  0.00  0.00    +0.000 C 
ATOM     41  C   UNL     1     -17.156  59.544  -1.110  0.00  0.00    +0.000 C 
ATOM     42  C   UNL     1     -17.382  60.219  -2.460  0.00  0.00    +0.000 C 
ATOM     43  C   UNL     1     -14.941  59.693  -3.026  0.00  0.00    +0.000 C 
ATOM     44  C   UNL     1     -16.389  59.810  -3.566  0.00  0.00    +0.000 C 
ATOM     45  C   UNL     1     -13.985  60.583  -3.818  0.00  0.00    +0.000 C 
BRANCH  42  46
ATOM     46  O   UNL     1     -18.738  60.076  -2.878  0.00  0.00    +0.000 OA
ATOM     47  H   UNL     1     -18.753  59.537  -3.688  0.00  0.00    +0.000 HD
ENDBRANCH  42  46
BRANCH  44  48
ATOM     48  O   UNL     1     -16.736  58.697  -4.399  0.00  0.00    +0.000 OA
BRANCH  48  50
ATOM     49  O   UNL     1     -17.089  59.508  -6.575  0.00  0.00    +0.000 OA
ATOM     50  C   UNL     1     -16.281  58.679  -5.747  0.00  0.00    +0.000 C 
ATOM     51  C   UNL     1     -16.392  57.229  -6.229  0.00  0.00    +0.000 C 
ATOM     52  C   UNL     1     -16.624  57.136  -7.736  0.00  0.00    +0.000 C 
ATOM     53  C   UNL     1     -16.566  59.648  -7.908  0.00  0.00    +0.000 C 
ATOM     54  C   UNL     1     -16.001  58.329  -8.465  0.00  0.00    +0.000 C 
ATOM     55  C   UNL     1     -17.719  60.162  -8.763  0.00  0.00    +0.000 C 
BRANCH  52  56
ATOM     56  O   UNL     1     -16.028  55.926  -8.221  0.00  0.00    +0.000 OA
ATOM     57  H   UNL     1     -15.077  55.966  -8.015  0.00  0.00    +0.000 HD
ENDBRANCH  52  56
BRANCH  54  58
ATOM     58  O   UNL     1     -14.579  58.295  -8.247  0.00  0.00    +0.000 OA
ATOM     59  H   UNL     1     -14.173  58.322  -9.138  0.00  0.00    +0.000 HD
ENDBRANCH  54  58
ENDBRANCH  48  50
ENDBRANCH  44  48
ENDBRANCH  38  40
ENDBRANCH   6  38
TORSDOF 12
ENDMDL
MODEL 9
REMARK VINA RESULT:      -7.2      9.505     13.757
REMARK  Name = 
REMARK  17 active torsions:
REMARK  status: ('A' for Active; 'I' for Inactive)
REMARK    1  A    between atoms: O_1  and  C_14
REMARK    2  A    between atoms: O_2  and  C_32
REMARK    3  A    between atoms: O_2  and  C_36
REMARK    4  A    between atoms: O_6  and  C_39
REMARK    5  A    between atoms: O_7  and  C_41
REMARK    6  A    between atoms: O_7  and  C_43
REMARK    7  A    between atoms: O_9  and  C_47
REMARK    8  A    between atoms: O_9  and  C_49
REMARK    9  A    between atoms: O_10  and  C_45
REMARK   10  A    between atoms: O_12  and  C_51
REMARK   11  A    between atoms: O_13  and  C_53
REMARK   12  A    between atoms: C_17  and  C_29
REMARK   13  A    between atoms: C_18  and  C_30
REMARK   14  A    between atoms: C_22  and  C_33
REMARK   15  A    between atoms: C_40  and  C_42
REMARK   16  A    between atoms: C_46  and  C_48
REMARK   17  A    between atoms: C_52  and  C_54
REMARK                            x       y       z     vdW  Elec       q    Type
REMARK                         _______ _______ _______ _____ _____    ______ ____
ROOT
ATOM      1  O   UNL     1     -39.582  56.328 -20.496  0.00  0.00    +0.000 OA
ATOM      2  C   UNL     1     -40.968  56.079 -20.281  0.00  0.00    +0.000 C 
ATOM      3  C   UNL     1     -41.610  57.118 -19.358  0.00  0.00    +0.000 C 
ATOM      4  C   UNL     1     -40.671  58.286 -19.098  0.00  0.00    +0.000 C 
ATOM      5  C   UNL     1     -39.345  57.578 -21.154  0.00  0.00    +0.000 C 
ATOM      6  C   UNL     1     -39.917  58.771 -20.353  0.00  0.00    +0.000 C 
ATOM      7  C   UNL     1     -37.831  57.704 -21.327  0.00  0.00    +0.000 C 
ENDROOT
BRANCH   4   8
ATOM      8  O   UNL     1     -41.323  59.335 -18.391  0.00  0.00    +0.000 OA
ATOM      9  H   UNL     1     -40.945  59.333 -17.486  0.00  0.00    +0.000 HD
ENDBRANCH   4   8
BRANCH   2  10
ATOM     10  O   UNL     1     -41.209  54.753 -19.809  0.00  0.00    +0.000 OA
BRANCH  10  29
ATOM     11  C   UNL     1     -35.301  49.713 -20.292  0.00  0.00    +0.000 C 
ATOM     12  C   UNL     1     -36.509  50.688 -20.244  0.00  0.00    +0.000 C 
ATOM     13  C   UNL     1     -37.792  50.054 -19.649  0.00  0.00    +0.000 C 
ATOM     14  C   UNL     1     -35.032  48.962 -18.957  0.00  0.00    +0.000 C 
ATOM     15  C   UNL     1     -39.019  51.053 -19.596  0.00  0.00    +0.000 C 
ATOM     16  C   UNL     1     -39.210  51.741 -20.989  0.00  0.00    +0.000 C 
ATOM     17  C   UNL     1     -37.470  49.397 -18.291  0.00  0.00    +0.000 C 
ATOM     18  C   UNL     1     -36.348  48.364 -18.403  0.00  0.00    +0.000 C 
ATOM     19  C   UNL     1     -34.035  47.854 -19.426  0.00  0.00    +0.000 C 
ATOM     20  C   UNL     1     -36.798  51.290 -21.627  0.00  0.00    +0.000 C 
ATOM     21  C   UNL     1     -35.426  48.582 -21.329  0.00  0.00    +0.000 C 
ATOM     22  C   UNL     1     -37.904  52.330 -21.550  0.00  0.00    +0.000 C 
ATOM     23  C   UNL     1     -34.583  47.416 -20.799  0.00  0.00    +0.000 C 
ATOM     24  C   UNL     1     -38.844  52.137 -18.496  0.00  0.00    +0.000 C 
ATOM     25  C   UNL     1     -40.295  52.837 -20.969  0.00  0.00    +0.000 C 
ATOM     26  C   UNL     1     -34.389  49.873 -17.891  0.00  0.00    +0.000 C 
ATOM     27  C   UNL     1     -40.295  50.224 -19.276  0.00  0.00    +0.000 C 
ATOM     28  C   UNL     1     -39.935  53.207 -18.507  0.00  0.00    +0.000 C 
ATOM     29  C   UNL     1     -40.074  53.882 -19.871  0.00  0.00    +0.000 C 
BRANCH  19  32
ATOM     30  O   UNL     1     -33.754  44.595 -17.607  0.00  0.00    +0.000 OA
ATOM     31  O   UNL     1     -32.766  45.130 -15.605  0.00  0.00    +0.000 OA
ATOM     32  C   UNL     1     -33.745  46.738 -18.458  0.00  0.00    +0.000 C 
ATOM     33  C   UNL     1     -34.133  45.339 -18.765  0.00  0.00    +0.000 C 
ATOM     34  C   UNL     1     -33.212  46.798 -17.237  0.00  0.00    +0.000 C 
ATOM     35  C   UNL     1     -33.202  45.440 -16.698  0.00  0.00    +0.000 C 
ENDBRANCH  19  32
BRANCH  11  36
ATOM     36  O   UNL     1     -34.127  50.455 -20.665  0.00  0.00    +0.000 OA
ATOM     37  H   UNL     1     -33.533  50.502 -19.896  0.00  0.00    +0.000 HD
ENDBRANCH  11  36
ENDBRANCH  10  29
ENDBRANCH   2  10
BRANCH   6  38
ATOM     38  O   UNL     1     -40.492  59.769 -21.202  0.00  0.00    +0.000 OA
BRANCH  38  40
ATOM     39  O   UNL     1     -39.691  61.065 -23.021  0.00  0.00    +0.000 OA
ATOM     40  C   UNL     1     -40.311  59.855 -22.608  0.00  0.00    +0.000 C 
ATOM     41  C   UNL     1     -41.540  59.537 -23.455  0.00  0.00    +0.000 C 
ATOM     42  C   UNL     1     -41.563  60.318 -24.765  0.00  0.00    +0.000 C 
ATOM     43  C   UNL     1     -39.114  60.930 -24.335  0.00  0.00    +0.000 C 
ATOM     44  C   UNL     1     -40.179  60.565 -25.399  0.00  0.00    +0.000 C 
ATOM     45  C   UNL     1     -38.446  62.264 -24.659  0.00  0.00    +0.000 C 
BRANCH  42  46
ATOM     46  O   UNL     1     -42.479  59.733 -25.689  0.00  0.00    +0.000 OA
ATOM     47  H   UNL     1     -42.984  60.449 -26.113  0.00  0.00    +0.000 HD
ENDBRANCH  42  46
BRANCH  44  48
ATOM     48  O   UNL     1     -39.687  59.595 -26.332  0.00  0.00    +0.000 OA
BRANCH  48  50
ATOM     49  O   UNL     1     -37.851  58.131 -26.296  0.00  0.00    +0.000 OA
ATOM     50  C   UNL     1     -39.177  58.363 -25.836  0.00  0.00    +0.000 C 
ATOM     51  C   UNL     1     -40.094  57.260 -26.375  0.00  0.00    +0.000 C 
ATOM     52  C   UNL     1     -39.362  55.931 -26.546  0.00  0.00    +0.000 C 
ATOM     53  C   UNL     1     -37.240  56.979 -25.686  0.00  0.00    +0.000 C 
ATOM     54  C   UNL     1     -38.217  55.798 -25.540  0.00  0.00    +0.000 C 
ATOM     55  C   UNL     1     -36.054  56.611 -26.570  0.00  0.00    +0.000 C 
BRANCH  52  56
ATOM     56  O   UNL     1     -40.294  54.861 -26.340  0.00  0.00    +0.000 OA
ATOM     57  H   UNL     1     -40.015  54.381 -25.540  0.00  0.00    +0.000 HD
ENDBRANCH  52  56
BRANCH  54  58
ATOM     58  O   UNL     1     -38.778  55.812 -24.216  0.00  0.00    +0.000 OA
ATOM     59  H   UNL     1     -38.277  56.492 -23.721  0.00  0.00    +0.000 HD
ENDBRANCH  54  58
ENDBRANCH  48  50
ENDBRANCH  44  48
ENDBRANCH  38  40
ENDBRANCH   6  38
TORSDOF 12
ENDMDL
