MODEL 1
REMARK VINA RESULT:      -6.3      0.000      0.000
REMARK  Name = CHEMBL35349.pdbqt.pdb
REMARK  2 active torsions:
REMARK  status: ('A' for Active; 'I' for Inactive)
REMARK    1  A    between atoms: C_2  and  C_11
REMARK    2  A    between atoms: C_5  and  O_21
REMARK                            x       y       z     vdW  Elec       q    Type
REMARK                         _______ _______ _______ _____ _____    ______ ____
ROOT
ATOM      1  N   UNL     1     -32.347  45.486  -6.331  0.00  0.00    +0.000 N 
ATOM      2  C   UNL     1     -34.314  45.789  -7.344  0.00  0.00    +0.000 A 
ATOM      3  C   UNL     1     -34.422  44.697  -6.414  0.00  0.00    +0.000 A 
ATOM      4  C   UNL     1     -33.180  44.535  -5.802  0.00  0.00    +0.000 A 
ATOM      5  C   UNL     1     -33.007  46.247  -7.258  0.00  0.00    +0.000 A 
ATOM      6  C   UNL     1     -35.466  43.829  -6.037  0.00  0.00    +0.000 A 
ATOM      7  C   UNL     1     -32.923  43.557  -4.836  0.00  0.00    +0.000 A 
ATOM      8  C   UNL     1     -35.232  42.845  -5.074  0.00  0.00    +0.000 A 
ATOM      9  C   UNL     1     -33.979  42.715  -4.486  0.00  0.00    +0.000 A 
ATOM     10  H   UNL     1     -31.377  45.618  -6.083  0.00  0.00    +0.000 HD
ENDROOT
BRANCH   2  11
ATOM     11  C   UNL     1     -35.359  46.306  -8.198  0.00  0.00    +0.000 C 
ATOM     12  N   UNL     1     -36.248  47.168  -7.776  0.00  0.00    +0.000 NA
ATOM     13  C   UNL     1     -37.093  47.438  -8.871  0.00  0.00    +0.000 A 
ATOM     14  C   UNL     1     -36.756  46.743 -10.029  0.00  0.00    +0.000 A 
ATOM     15  C   UNL     1     -38.177  48.296  -8.884  0.00  0.00    +0.000 A 
ATOM     16  C   UNL     1     -35.597  45.955  -9.664  0.00  0.00    +0.000 C 
ATOM     17  C   UNL     1     -37.439  46.847 -11.222  0.00  0.00    +0.000 A 
ATOM     18  O   UNL     1     -34.946  45.189 -10.336  0.00  0.00    +0.000 OA
ATOM     19  C   UNL     1     -38.531  47.713 -11.229  0.00  0.00    +0.000 A 
ATOM     20  C   UNL     1     -38.896  48.429 -10.076  0.00  0.00    +0.000 A 
ENDBRANCH   2  11
BRANCH   5  21
ATOM     21  O   UNL     1     -32.322  47.214  -7.858  0.00  0.00    +0.000 OA
ATOM     22  H   UNL     1     -32.843  47.585  -8.607  0.00  0.00    +0.000 HD
ENDBRANCH   5  21
TORSDOF 2
ENDMDL
MODEL 2
REMARK VINA RESULT:      -6.0      1.691      6.318
REMARK  Name = CHEMBL35349.pdbqt.pdb
REMARK  2 active torsions:
REMARK  status: ('A' for Active; 'I' for Inactive)
REMARK    1  A    between atoms: C_2  and  C_11
REMARK    2  A    between atoms: C_5  and  O_21
REMARK                            x       y       z     vdW  Elec       q    Type
REMARK                         _______ _______ _______ _____ _____    ______ ____
ROOT
ATOM      1  N   UNL     1     -34.923  45.294 -11.658  0.00  0.00    +0.000 N 
ATOM      2  C   UNL     1     -34.702  45.044  -9.450  0.00  0.00    +0.000 A 
ATOM      3  C   UNL     1     -35.827  45.897  -9.721  0.00  0.00    +0.000 A 
ATOM      4  C   UNL     1     -35.936  46.033 -11.104  0.00  0.00    +0.000 A 
ATOM      5  C   UNL     1     -34.171  44.694 -10.683  0.00  0.00    +0.000 A 
ATOM      6  C   UNL     1     -36.765  46.570  -8.912  0.00  0.00    +0.000 A 
ATOM      7  C   UNL     1     -36.927  46.800 -11.724  0.00  0.00    +0.000 A 
ATOM      8  C   UNL     1     -37.764  47.341  -9.510  0.00  0.00    +0.000 A 
ATOM      9  C   UNL     1     -37.840  47.452 -10.893  0.00  0.00    +0.000 A 
ATOM     10  H   UNL     1     -34.743  45.197 -12.646  0.00  0.00    +0.000 HD
ENDROOT
BRANCH   2  11
ATOM     11  C   UNL     1     -34.220  44.632  -8.151  0.00  0.00    +0.000 C 
ATOM     12  N   UNL     1     -34.558  43.492  -7.606  0.00  0.00    +0.000 NA
ATOM     13  C   UNL     1     -33.904  43.437  -6.358  0.00  0.00    +0.000 A 
ATOM     14  C   UNL     1     -33.125  44.557  -6.079  0.00  0.00    +0.000 A 
ATOM     15  C   UNL     1     -33.973  42.410  -5.437  0.00  0.00    +0.000 A 
ATOM     16  C   UNL     1     -33.281  45.414  -7.236  0.00  0.00    +0.000 C 
ATOM     17  C   UNL     1     -32.396  44.725  -4.921  0.00  0.00    +0.000 A 
ATOM     18  O   UNL     1     -32.797  46.499  -7.458  0.00  0.00    +0.000 OA
ATOM     19  C   UNL     1     -32.469  43.686  -3.995  0.00  0.00    +0.000 A 
ATOM     20  C   UNL     1     -33.247  42.543  -4.248  0.00  0.00    +0.000 A 
ENDBRANCH   2  11
BRANCH   5  21
ATOM     21  O   UNL     1     -33.149  43.942 -11.074  0.00  0.00    +0.000 OA
ATOM     22  H   UNL     1     -32.386  44.064 -10.464  0.00  0.00    +0.000 HD
ENDBRANCH   5  21
TORSDOF 2
ENDMDL
MODEL 3
REMARK VINA RESULT:      -6.0     23.112     25.054
REMARK  Name = CHEMBL35349.pdbqt.pdb
REMARK  2 active torsions:
REMARK  status: ('A' for Active; 'I' for Inactive)
REMARK    1  A    between atoms: C_2  and  C_11
REMARK    2  A    between atoms: C_5  and  O_21
REMARK                            x       y       z     vdW  Elec       q    Type
REMARK                         _______ _______ _______ _____ _____    ______ ____
ROOT
ATOM      1  N   UNL     1     -26.317  61.353 -26.603  0.00  0.00    +0.000 N 
ATOM      2  C   UNL     1     -28.392  61.841 -25.939  0.00  0.00    +0.000 A 
ATOM      3  C   UNL     1     -28.442  61.220 -27.235  0.00  0.00    +0.000 A 
ATOM      4  C   UNL     1     -27.134  60.930 -27.618  0.00  0.00    +0.000 A 
ATOM      5  C   UNL     1     -27.052  61.903 -25.586  0.00  0.00    +0.000 A 
ATOM      6  C   UNL     1     -29.485  60.878 -28.119  0.00  0.00    +0.000 A 
ATOM      7  C   UNL     1     -26.808  60.318 -28.834  0.00  0.00    +0.000 A 
ATOM      8  C   UNL     1     -29.184  60.266 -29.338  0.00  0.00    +0.000 A 
ATOM      9  C   UNL     1     -27.865  59.993 -29.685  0.00  0.00    +0.000 A 
ATOM     10  H   UNL     1     -25.310  61.277 -26.591  0.00  0.00    +0.000 HD
ENDROOT
BRANCH   2  11
ATOM     11  C   UNL     1     -29.515  62.308 -25.158  0.00  0.00    +0.000 C 
ATOM     12  N   UNL     1     -29.645  63.557 -24.792  0.00  0.00    +0.000 NA
ATOM     13  C   UNL     1     -30.844  63.634 -24.056  0.00  0.00    +0.000 A 
ATOM     14  C   UNL     1     -31.514  62.419 -23.936  0.00  0.00    +0.000 A 
ATOM     15  C   UNL     1     -31.381  64.767 -23.472  0.00  0.00    +0.000 A 
ATOM     16  C   UNL     1     -30.686  61.470 -24.651  0.00  0.00    +0.000 C 
ATOM     17  C   UNL     1     -32.704  62.253 -23.262  0.00  0.00    +0.000 A 
ATOM     18  O   UNL     1     -30.853  60.285 -24.825  0.00  0.00    +0.000 OA
ATOM     19  C   UNL     1     -33.241  63.397 -22.675  0.00  0.00    +0.000 A 
ATOM     20  C   UNL     1     -32.589  64.639 -22.778  0.00  0.00    +0.000 A 
ENDBRANCH   2  11
BRANCH   5  21
ATOM     21  O   UNL     1     -26.390  62.359 -24.529  0.00  0.00    +0.000 OA
ATOM     22  H   UNL     1     -26.987  62.901 -23.964  0.00  0.00    +0.000 HD
ENDBRANCH   5  21
TORSDOF 2
ENDMDL
MODEL 4
REMARK VINA RESULT:      -5.9      8.453     11.732
REMARK  Name = CHEMBL35349.pdbqt.pdb
REMARK  2 active torsions:
REMARK  status: ('A' for Active; 'I' for Inactive)
REMARK    1  A    between atoms: C_2  and  C_11
REMARK    2  A    between atoms: C_5  and  O_21
REMARK                            x       y       z     vdW  Elec       q    Type
REMARK                         _______ _______ _______ _____ _____    ______ ____
ROOT
ATOM      1  N   UNL     1     -34.784  49.909 -19.932  0.00  0.00    +0.000 N 
ATOM      2  C   UNL     1     -34.408  48.235 -18.504  0.00  0.00    +0.000 A 
ATOM      3  C   UNL     1     -34.549  47.703 -19.833  0.00  0.00    +0.000 A 
ATOM      4  C   UNL     1     -34.783  48.771 -20.696  0.00  0.00    +0.000 A 
ATOM      5  C   UNL     1     -34.561  49.609 -18.615  0.00  0.00    +0.000 A 
ATOM      6  C   UNL     1     -34.501  46.405 -20.380  0.00  0.00    +0.000 A 
ATOM      7  C   UNL     1     -34.970  48.618 -22.074  0.00  0.00    +0.000 A 
ATOM      8  C   UNL     1     -34.684  46.228 -21.753  0.00  0.00    +0.000 A 
ATOM      9  C   UNL     1     -34.915  47.319 -22.582  0.00  0.00    +0.000 A 
ATOM     10  H   UNL     1     -34.928  50.847 -20.279  0.00  0.00    +0.000 HD
ENDROOT
BRANCH   2  11
ATOM     11  C   UNL     1     -34.156  47.486 -17.293  0.00  0.00    +0.000 C 
ATOM     12  N   UNL     1     -34.855  47.661 -16.202  0.00  0.00    +0.000 NA
ATOM     13  C   UNL     1     -34.329  46.770 -15.245  0.00  0.00    +0.000 A 
ATOM     14  C   UNL     1     -33.269  45.998 -15.713  0.00  0.00    +0.000 A 
ATOM     15  C   UNL     1     -34.762  46.610 -13.942  0.00  0.00    +0.000 A 
ATOM     16  C   UNL     1     -33.086  46.418 -17.088  0.00  0.00    +0.000 C 
ATOM     17  C   UNL     1     -32.599  45.061 -14.957  0.00  0.00    +0.000 A 
ATOM     18  O   UNL     1     -32.285  46.033 -17.907  0.00  0.00    +0.000 OA
ATOM     19  C   UNL     1     -33.040  44.904 -13.645  0.00  0.00    +0.000 A 
ATOM     20  C   UNL     1     -34.107  45.668 -13.142  0.00  0.00    +0.000 A 
ENDBRANCH   2  11
BRANCH   5  21
ATOM     21  O   UNL     1     -34.535  50.619 -17.752  0.00  0.00    +0.000 OA
ATOM     22  H   UNL     1     -35.415  51.058 -17.717  0.00  0.00    +0.000 HD
ENDBRANCH   5  21
TORSDOF 2
ENDMDL
MODEL 5
REMARK VINA RESULT:      -5.9      3.743      7.571
REMARK  Name = CHEMBL35349.pdbqt.pdb
REMARK  2 active torsions:
REMARK  status: ('A' for Active; 'I' for Inactive)
REMARK    1  A    between atoms: C_2  and  C_11
REMARK    2  A    between atoms: C_5  and  O_21
REMARK                            x       y       z     vdW  Elec       q    Type
REMARK                         _______ _______ _______ _____ _____    ______ ____
ROOT
ATOM      1  N   UNL     1     -32.490  45.250  -4.784  0.00  0.00    +0.000 N 
ATOM      2  C   UNL     1     -33.652  43.358  -4.548  0.00  0.00    +0.000 A 
ATOM      3  C   UNL     1     -33.994  43.973  -5.802  0.00  0.00    +0.000 A 
ATOM      4  C   UNL     1     -33.254  45.148  -5.917  0.00  0.00    +0.000 A 
ATOM      5  C   UNL     1     -32.714  44.187  -3.950  0.00  0.00    +0.000 A 
ATOM      6  C   UNL     1     -34.871  43.635  -6.853  0.00  0.00    +0.000 A 
ATOM      7  C   UNL     1     -33.339  46.004  -7.020  0.00  0.00    +0.000 A 
ATOM      8  C   UNL     1     -34.972  44.474  -7.964  0.00  0.00    +0.000 A 
ATOM      9  C   UNL     1     -34.216  45.639  -8.042  0.00  0.00    +0.000 A 
ATOM     10  H   UNL     1     -31.846  46.000  -4.578  0.00  0.00    +0.000 HD
ENDROOT
BRANCH   2  11
ATOM     11  C   UNL     1     -34.179  42.121  -4.017  0.00  0.00    +0.000 C 
ATOM     12  N   UNL     1     -34.408  41.076  -4.769  0.00  0.00    +0.000 NA
ATOM     13  C   UNL     1     -34.912  40.074  -3.915  0.00  0.00    +0.000 A 
ATOM     14  C   UNL     1     -35.016  40.466  -2.582  0.00  0.00    +0.000 A 
ATOM     15  C   UNL     1     -35.292  38.795  -4.278  0.00  0.00    +0.000 A 
ATOM     16  C   UNL     1     -34.542  41.835  -2.563  0.00  0.00    +0.000 C 
ATOM     17  C   UNL     1     -35.482  39.656  -1.570  0.00  0.00    +0.000 A 
ATOM     18  O   UNL     1     -34.444  42.599  -1.631  0.00  0.00    +0.000 OA
ATOM     19  C   UNL     1     -35.864  38.368  -1.942  0.00  0.00    +0.000 A 
ATOM     20  C   UNL     1     -35.771  37.942  -3.279  0.00  0.00    +0.000 A 
ENDBRANCH   2  11
BRANCH   5  21
ATOM     21  O   UNL     1     -32.038  44.151  -2.807  0.00  0.00    +0.000 OA
ATOM     22  H   UNL     1     -32.627  44.397  -2.058  0.00  0.00    +0.000 HD
ENDBRANCH   5  21
TORSDOF 2
ENDMDL
MODEL 6
REMARK VINA RESULT:      -5.8      9.075     11.587
REMARK  Name = CHEMBL35349.pdbqt.pdb
REMARK  2 active torsions:
REMARK  status: ('A' for Active; 'I' for Inactive)
REMARK    1  A    between atoms: C_2  and  C_11
REMARK    2  A    between atoms: C_5  and  O_21
REMARK                            x       y       z     vdW  Elec       q    Type
REMARK                         _______ _______ _______ _____ _____    ______ ____
ROOT
ATOM      1  N   UNL     1     -33.514  46.704 -14.902  0.00  0.00    +0.000 N 
ATOM      2  C   UNL     1     -32.441  45.656 -16.556  0.00  0.00    +0.000 A 
ATOM      3  C   UNL     1     -33.273  46.691 -17.110  0.00  0.00    +0.000 A 
ATOM      4  C   UNL     1     -33.926  47.322 -16.054  0.00  0.00    +0.000 A 
ATOM      5  C   UNL     1     -32.624  45.702 -15.182  0.00  0.00    +0.000 A 
ATOM      6  C   UNL     1     -33.530  47.147 -18.418  0.00  0.00    +0.000 A 
ATOM      7  C   UNL     1     -34.821  48.383 -16.229  0.00  0.00    +0.000 A 
ATOM      8  C   UNL     1     -34.419  48.206 -18.618  0.00  0.00    +0.000 A 
ATOM      9  C   UNL     1     -35.051  48.810 -17.538  0.00  0.00    +0.000 A 
ATOM     10  H   UNL     1     -33.816  46.943 -13.969  0.00  0.00    +0.000 HD
ENDROOT
BRANCH   2  11
ATOM     11  C   UNL     1     -31.585  44.749 -17.287  0.00  0.00    +0.000 C 
ATOM     12  N   UNL     1     -30.853  45.137 -18.299  0.00  0.00    +0.000 NA
ATOM     13  C   UNL     1     -30.162  43.995 -18.752  0.00  0.00    +0.000 A 
ATOM     14  C   UNL     1     -30.443  42.839 -18.028  0.00  0.00    +0.000 A 
ATOM     15  C   UNL     1     -29.271  43.936 -19.807  0.00  0.00    +0.000 A 
ATOM     16  C   UNL     1     -31.395  43.259 -17.019  0.00  0.00    +0.000 C 
ATOM     17  C   UNL     1     -29.887  41.606 -18.288  0.00  0.00    +0.000 A 
ATOM     18  O   UNL     1     -31.933  42.608 -16.154  0.00  0.00    +0.000 OA
ATOM     19  C   UNL     1     -28.989  41.552 -19.353  0.00  0.00    +0.000 A 
ATOM     20  C   UNL     1     -28.684  42.700 -20.104  0.00  0.00    +0.000 A 
ENDBRANCH   2  11
BRANCH   5  21
ATOM     21  O   UNL     1     -32.136  45.012 -14.158  0.00  0.00    +0.000 OA
ATOM     22  H   UNL     1     -32.858  44.776 -13.532  0.00  0.00    +0.000 HD
ENDBRANCH   5  21
TORSDOF 2
ENDMDL
MODEL 7
REMARK VINA RESULT:      -5.7     17.030     19.340
REMARK  Name = CHEMBL35349.pdbqt.pdb
REMARK  2 active torsions:
REMARK  status: ('A' for Active; 'I' for Inactive)
REMARK    1  A    between atoms: C_2  and  C_11
REMARK    2  A    between atoms: C_5  and  O_21
REMARK                            x       y       z     vdW  Elec       q    Type
REMARK                         _______ _______ _______ _____ _____    ______ ____
ROOT
ATOM      1  N   UNL     1     -15.238  41.136  -0.959  0.00  0.00    +0.000 N 
ATOM      2  C   UNL     1     -16.865  40.813  -2.454  0.00  0.00    +0.000 A 
ATOM      3  C   UNL     1     -16.665  42.225  -2.267  0.00  0.00    +0.000 A 
ATOM      4  C   UNL     1     -15.646  42.391  -1.330  0.00  0.00    +0.000 A 
ATOM      5  C   UNL     1     -15.957  40.176  -1.620  0.00  0.00    +0.000 A 
ATOM      6  C   UNL     1     -17.261  43.380  -2.811  0.00  0.00    +0.000 A 
ATOM      7  C   UNL     1     -15.189  43.643  -0.907  0.00  0.00    +0.000 A 
ATOM      8  C   UNL     1     -16.820  44.641  -2.404  0.00  0.00    +0.000 A 
ATOM      9  C   UNL     1     -15.801  44.765  -1.467  0.00  0.00    +0.000 A 
ATOM     10  H   UNL     1     -14.510  40.932  -0.290  0.00  0.00    +0.000 HD
ENDROOT
BRANCH   2  11
ATOM     11  C   UNL     1     -17.822  40.183  -3.334  0.00  0.00    +0.000 C 
ATOM     12  N   UNL     1     -17.588  39.998  -4.608  0.00  0.00    +0.000 NA
ATOM     13  C   UNL     1     -18.731  39.364  -5.136  0.00  0.00    +0.000 A 
ATOM     14  C   UNL     1     -19.731  39.129  -4.196  0.00  0.00    +0.000 A 
ATOM     15  C   UNL     1     -18.926  38.977  -6.448  0.00  0.00    +0.000 A 
ATOM     16  C   UNL     1     -19.200  39.651  -2.953  0.00  0.00    +0.000 C 
ATOM     17  C   UNL     1     -20.935  38.523  -4.481  0.00  0.00    +0.000 A 
ATOM     18  O   UNL     1     -19.704  39.675  -1.854  0.00  0.00    +0.000 OA
ATOM     19  C   UNL     1     -21.128  38.135  -5.806  0.00  0.00    +0.000 A 
ATOM     20  C   UNL     1     -20.137  38.358  -6.778  0.00  0.00    +0.000 A 
ENDBRANCH   2  11
BRANCH   5  21
ATOM     21  O   UNL     1     -15.669  38.907  -1.359  0.00  0.00    +0.000 OA
ATOM     22  H   UNL     1     -14.822  38.655  -1.793  0.00  0.00    +0.000 HD
ENDBRANCH   5  21
TORSDOF 2
ENDMDL
MODEL 8
REMARK VINA RESULT:      -5.6      2.816      3.717
REMARK  Name = CHEMBL35349.pdbqt.pdb
REMARK  2 active torsions:
REMARK  status: ('A' for Active; 'I' for Inactive)
REMARK    1  A    between atoms: C_2  and  C_11
REMARK    2  A    between atoms: C_5  and  O_21
REMARK                            x       y       z     vdW  Elec       q    Type
REMARK                         _______ _______ _______ _____ _____    ______ ____
ROOT
ATOM      1  N   UNL     1     -33.363  42.795  -8.306  0.00  0.00    +0.000 N 
ATOM      2  C   UNL     1     -34.021  44.402  -9.710  0.00  0.00    +0.000 A 
ATOM      3  C   UNL     1     -33.635  44.994  -8.457  0.00  0.00    +0.000 A 
ATOM      4  C   UNL     1     -33.232  43.966  -7.607  0.00  0.00    +0.000 A 
ATOM      5  C   UNL     1     -33.836  43.034  -9.569  0.00  0.00    +0.000 A 
ATOM      6  C   UNL     1     -33.594  46.315  -7.969  0.00  0.00    +0.000 A 
ATOM      7  C   UNL     1     -32.790  44.183  -6.297  0.00  0.00    +0.000 A 
ATOM      8  C   UNL     1     -33.155  46.556  -6.665  0.00  0.00    +0.000 A 
ATOM      9  C   UNL     1     -32.760  45.503  -5.847  0.00  0.00    +0.000 A 
ATOM     10  H   UNL     1     -33.146  41.875  -7.952  0.00  0.00    +0.000 HD
ENDROOT
BRANCH   2  11
ATOM     11  C   UNL     1     -34.506  45.094 -10.882  0.00  0.00    +0.000 C 
ATOM     12  N   UNL     1     -35.665  45.701 -10.911  0.00  0.00    +0.000 NA
ATOM     13  C   UNL     1     -35.793  46.254 -12.200  0.00  0.00    +0.000 A 
ATOM     14  C   UNL     1     -34.704  46.009 -13.033  0.00  0.00    +0.000 A 
ATOM     15  C   UNL     1     -36.863  46.986 -12.680  0.00  0.00    +0.000 A 
ATOM     16  C   UNL     1     -33.788  45.232 -12.222  0.00  0.00    +0.000 C 
ATOM     17  C   UNL     1     -34.608  46.451 -14.334  0.00  0.00    +0.000 A 
ATOM     18  O   UNL     1     -32.703  44.782 -12.509  0.00  0.00    +0.000 OA
ATOM     19  C   UNL     1     -35.689  47.188 -14.813  0.00  0.00    +0.000 A 
ATOM     20  C   UNL     1     -36.804  47.452 -13.998  0.00  0.00    +0.000 A 
ENDBRANCH   2  11
BRANCH   5  21
ATOM     21  O   UNL     1     -34.014  41.987 -10.366  0.00  0.00    +0.000 OA
ATOM     22  H   UNL     1     -34.860  42.077 -10.861  0.00  0.00    +0.000 HD
ENDBRANCH   5  21
TORSDOF 2
ENDMDL
MODEL 9
REMARK VINA RESULT:      -5.6     22.488     23.439
REMARK  Name = CHEMBL35349.pdbqt.pdb
REMARK  2 active torsions:
REMARK  status: ('A' for Active; 'I' for Inactive)
REMARK    1  A    between atoms: C_2  and  C_11
REMARK    2  A    between atoms: C_5  and  O_21
REMARK                            x       y       z     vdW  Elec       q    Type
REMARK                         _______ _______ _______ _____ _____    ______ ____
ROOT
ATOM      1  N   UNL     1     -18.834  53.595   5.794  0.00  0.00    +0.000 N 
ATOM      2  C   UNL     1     -17.520  51.957   5.034  0.00  0.00    +0.000 A 
ATOM      3  C   UNL     1     -17.670  51.823   6.458  0.00  0.00    +0.000 A 
ATOM      4  C   UNL     1     -18.492  52.858   6.899  0.00  0.00    +0.000 A 
ATOM      5  C   UNL     1     -18.261  53.071   4.666  0.00  0.00    +0.000 A 
ATOM      6  C   UNL     1     -17.177  50.914   7.414  0.00  0.00    +0.000 A 
ATOM      7  C   UNL     1     -18.850  53.036   8.239  0.00  0.00    +0.000 A 
ATOM      8  C   UNL     1     -17.522  51.070   8.758  0.00  0.00    +0.000 A 
ATOM      9  C   UNL     1     -18.346  52.116   9.159  0.00  0.00    +0.000 A 
ATOM     10  H   UNL     1     -19.425  54.413   5.797  0.00  0.00    +0.000 HD
ENDROOT
BRANCH   2  11
ATOM     11  C   UNL     1     -16.752  51.101   4.159  0.00  0.00    +0.000 C 
ATOM     12  N   UNL     1     -16.791  49.796   4.242  0.00  0.00    +0.000 NA
ATOM     13  C   UNL     1     -15.925  49.307   3.243  0.00  0.00    +0.000 A 
ATOM     14  C   UNL     1     -15.308  50.303   2.492  0.00  0.00    +0.000 A 
ATOM     15  C   UNL     1     -15.655  47.980   2.965  0.00  0.00    +0.000 A 
ATOM     16  C   UNL     1     -15.810  51.545   3.044  0.00  0.00    +0.000 C 
ATOM     17  C   UNL     1     -14.423  50.063   1.464  0.00  0.00    +0.000 A 
ATOM     18  O   UNL     1     -15.561  52.684   2.721  0.00  0.00    +0.000 OA
ATOM     19  C   UNL     1     -14.154  48.724   1.187  0.00  0.00    +0.000 A 
ATOM     20  C   UNL     1     -14.761  47.695   1.927  0.00  0.00    +0.000 A 
ENDBRANCH   2  11
BRANCH   5  21
ATOM     21  O   UNL     1     -18.505  53.684   3.514  0.00  0.00    +0.000 OA
ATOM     22  H   UNL     1     -18.063  53.207   2.775  0.00  0.00    +0.000 HD
ENDBRANCH   5  21
TORSDOF 2
ENDMDL
