MODEL 1
REMARK VINA RESULT:      -6.6      0.000      0.000
REMARK  Name = Chlortetracycline.pdbqt.pdb
REMARK  7 active torsions:
REMARK  status: ('A' for Active; 'I' for Inactive)
REMARK    1  A    between atoms: C_7  and  O_30
REMARK    2  A    between atoms: C_8  and  N_32
REMARK    3  A    between atoms: C_9  and  O_37
REMARK    4  A    between atoms: C_12  and  O_28
REMARK    5  A    between atoms: C_15  and  O_35
REMARK    6  A    between atoms: C_16  and  C_23
REMARK    7  A    between atoms: C_20  and  O_39
REMARK                            x       y       z     vdW  Elec       q    Type
REMARK                         _______ _______ _______ _____ _____    ______ ____
ROOT
ATOM      1 CL   UNL     1     -32.602  42.830 -16.732  0.00  0.00    +0.000 Cl
ATOM      2  O   UNL     1     -36.600  46.605 -11.158  0.00  0.00    +0.000 OA
ATOM      3  O   UNL     1     -31.837  43.764  -8.469  0.00  0.00    +0.000 OA
ATOM      4  C   UNL     1     -34.871  43.481 -10.075  0.00  0.00    +0.000 C 
ATOM      5  C   UNL     1     -34.445  44.038 -12.619  0.00  0.00    +0.000 C 
ATOM      6  C   UNL     1     -34.468  43.306 -11.415  0.00  0.00    +0.000 C 
ATOM      7  C   UNL     1     -35.544  44.811  -9.835  0.00  0.00    +0.000 C 
ATOM      8  C   UNL     1     -34.018  42.995  -9.004  0.00  0.00    +0.000 C 
ATOM      9  C   UNL     1     -34.076  43.535 -13.987  0.00  0.00    +0.000 C 
ATOM     10  C   UNL     1     -35.051  45.343 -12.461  0.00  0.00    +0.000 C 
ATOM     11  C   UNL     1     -35.796  45.662 -11.168  0.00  0.00    +0.000 C 
ATOM     12  C   UNL     1     -34.772  45.709  -8.862  0.00  0.00    +0.000 C 
ATOM     13  C   UNL     1     -33.784  44.644 -14.985  0.00  0.00    +0.000 A 
ATOM     14  C   UNL     1     -33.035  44.004  -8.522  0.00  0.00    +0.000 C 
ATOM     15  C   UNL     1     -34.986  46.251 -13.452  0.00  0.00    +0.000 C 
ATOM     16  C   UNL     1     -33.606  45.365  -8.268  0.00  0.00    +0.000 C 
ATOM     17  C   UNL     1     -34.206  45.979 -14.699  0.00  0.00    +0.000 A 
ATOM     18  C   UNL     1     -35.205  42.609 -14.482  0.00  0.00    +0.000 C 
ATOM     19  C   UNL     1     -33.109  44.397 -16.204  0.00  0.00    +0.000 A 
ATOM     20  C   UNL     1     -33.864  47.000 -15.613  0.00  0.00    +0.000 A 
ATOM     21  C   UNL     1     -32.821  45.427 -17.096  0.00  0.00    +0.000 A 
ATOM     22  C   UNL     1     -33.183  46.726 -16.796  0.00  0.00    +0.000 A 
ENDROOT
BRANCH  16  23
ATOM     23  C   UNL     1     -32.909  46.243  -7.287  0.00  0.00    +0.000 C 
ATOM     24  O   UNL     1     -32.902  46.000  -6.087  0.00  0.00    +0.000 OA
ATOM     25  N   UNL     1     -32.288  47.349  -7.779  0.00  0.00    +0.000 N 
ATOM     26  H   UNL     1     -32.526  47.698  -8.701  0.00  0.00    +0.000 HD
ATOM     27  H   UNL     1     -31.919  48.004  -7.103  0.00  0.00    +0.000 HD
ENDBRANCH  16  23
BRANCH   8  28
ATOM     28  N   UNL     1     -34.451  41.954  -8.110  0.00  0.00    +0.000 NA
ATOM     29  C   UNL     1     -33.699  40.714  -8.235  0.00  0.00    +0.000 C 
ATOM     30  C   UNL     1     -34.446  42.342  -6.714  0.00  0.00    +0.000 C 
ENDBRANCH   8  28
BRANCH  12  31
ATOM     31  O   UNL     1     -35.397  46.920  -8.549  0.00  0.00    +0.000 OA
ATOM     32  H   UNL     1     -34.713  47.545  -8.217  0.00  0.00    +0.000 HD
ENDBRANCH  12  31
BRANCH   7  33
ATOM     33  O   UNL     1     -36.793  44.566  -9.186  0.00  0.00    +0.000 OA
ATOM     34  H   UNL     1     -36.634  44.536  -8.225  0.00  0.00    +0.000 HD
ENDBRANCH   7  33
BRANCH  15  35
ATOM     35  O   UNL     1     -35.638  47.465 -13.401  0.00  0.00    +0.000 OA
ATOM     36  H   UNL     1     -35.030  48.166 -13.083  0.00  0.00    +0.000 HD
ENDBRANCH  15  35
BRANCH   9  37
ATOM     37  O   UNL     1     -32.937  42.717 -13.807  0.00  0.00    +0.000 OA
ATOM     38  H   UNL     1     -32.679  42.949 -12.896  0.00  0.00    +0.000 HD
ENDBRANCH   9  37
BRANCH  20  39
ATOM     39  O   UNL     1     -34.146  48.314 -15.356  0.00  0.00    +0.000 OA
ATOM     40  H   UNL     1     -34.890  48.602 -15.913  0.00  0.00    +0.000 HD
ENDBRANCH  20  39
TORSDOF 7
ENDMDL
MODEL 2
REMARK VINA RESULT:      -6.4     22.266     25.608
REMARK  Name = Chlortetracycline.pdbqt.pdb
REMARK  7 active torsions:
REMARK  status: ('A' for Active; 'I' for Inactive)
REMARK    1  A    between atoms: C_7  and  O_30
REMARK    2  A    between atoms: C_8  and  N_32
REMARK    3  A    between atoms: C_9  and  O_37
REMARK    4  A    between atoms: C_12  and  O_28
REMARK    5  A    between atoms: C_15  and  O_35
REMARK    6  A    between atoms: C_16  and  C_23
REMARK    7  A    between atoms: C_20  and  O_39
REMARK                            x       y       z     vdW  Elec       q    Type
REMARK                         _______ _______ _______ _____ _____    ______ ____
ROOT
ATOM      1 CL   UNL     1     -31.776  61.915 -23.923  0.00  0.00    +0.000 Cl
ATOM      2  O   UNL     1     -26.351  59.855 -29.180  0.00  0.00    +0.000 OA
ATOM      3  O   UNL     1     -30.595  63.256 -32.080  0.00  0.00    +0.000 OA
ATOM      4  C   UNL     1     -29.810  60.293 -30.510  0.00  0.00    +0.000 C 
ATOM      5  C   UNL     1     -29.651  60.813 -27.928  0.00  0.00    +0.000 C 
ATOM      6  C   UNL     1     -30.226  60.553 -29.188  0.00  0.00    +0.000 C 
ATOM      7  C   UNL     1     -28.309  60.188 -30.642  0.00  0.00    +0.000 C 
ATOM      8  C   UNL     1     -30.505  60.931 -31.615  0.00  0.00    +0.000 C 
ATOM      9  C   UNL     1     -30.357  60.916 -26.605  0.00  0.00    +0.000 C 
ATOM     10  C   UNL     1     -28.205  60.759 -27.980  0.00  0.00    +0.000 C 
ATOM     11  C   UNL     1     -27.529  60.236 -29.244  0.00  0.00    +0.000 C 
ATOM     12  C   UNL     1     -27.707  61.277 -31.536  0.00  0.00    +0.000 C 
ATOM     13  C   UNL     1     -29.523  61.576 -25.518  0.00  0.00    +0.000 A 
ATOM     14  C   UNL     1     -29.918  62.241 -32.010  0.00  0.00    +0.000 C 
ATOM     15  C   UNL     1     -27.468  61.132 -26.918  0.00  0.00    +0.000 C 
ATOM     16  C   UNL     1     -28.427  62.242 -32.154  0.00  0.00    +0.000 C 
ATOM     17  C   UNL     1     -28.111  61.706 -25.696  0.00  0.00    +0.000 A 
ATOM     18  C   UNL     1     -30.813  59.502 -26.189  0.00  0.00    +0.000 C 
ATOM     19  C   UNL     1     -30.100  62.064 -24.322  0.00  0.00    +0.000 A 
ATOM     20  C   UNL     1     -27.371  62.382 -24.700  0.00  0.00    +0.000 A 
ATOM     21  C   UNL     1     -29.330  62.694 -23.349  0.00  0.00    +0.000 A 
ATOM     22  C   UNL     1     -27.972  62.867 -23.542  0.00  0.00    +0.000 A 
ENDROOT
BRANCH  16  23
ATOM     23  C   UNL     1     -27.814  63.255 -33.058  0.00  0.00    +0.000 C 
ATOM     24  O   UNL     1     -26.817  63.891 -32.741  0.00  0.00    +0.000 OA
ATOM     25  N   UNL     1     -28.421  63.461 -34.258  0.00  0.00    +0.000 N 
ATOM     26  H   UNL     1     -29.378  63.158 -34.403  0.00  0.00    +0.000 HD
ATOM     27  H   UNL     1     -28.076  64.229 -34.818  0.00  0.00    +0.000 HD
ENDBRANCH  16  23
BRANCH   8  28
ATOM     28  N   UNL     1     -31.230  60.163 -32.592  0.00  0.00    +0.000 NA
ATOM     29  C   UNL     1     -30.521  59.985 -33.851  0.00  0.00    +0.000 C 
ATOM     30  C   UNL     1     -31.643  58.856 -32.123  0.00  0.00    +0.000 C 
ENDBRANCH   8  28
BRANCH  12  31
ATOM     31  O   UNL     1     -26.329  61.173 -31.751  0.00  0.00    +0.000 OA
ATOM     32  H   UNL     1     -26.183  60.779 -32.641  0.00  0.00    +0.000 HD
ENDBRANCH  12  31
BRANCH   7  33
ATOM     33  O   UNL     1     -28.007  58.963 -31.311  0.00  0.00    +0.000 OA
ATOM     34  H   UNL     1     -28.294  59.046 -32.240  0.00  0.00    +0.000 HD
ENDBRANCH   7  33
BRANCH  15  35
ATOM     35  O   UNL     1     -26.097  60.997 -26.871  0.00  0.00    +0.000 OA
ATOM     36  H   UNL     1     -25.810  60.736 -25.971  0.00  0.00    +0.000 HD
ENDBRANCH  15  35
BRANCH   9  37
ATOM     37  O   UNL     1     -31.534  61.661 -26.849  0.00  0.00    +0.000 OA
ATOM     38  H   UNL     1     -31.594  62.191 -26.033  0.00  0.00    +0.000 HD
ENDBRANCH   9  37
BRANCH  20  39
ATOM     39  O   UNL     1     -26.034  62.633 -24.850  0.00  0.00    +0.000 OA
ATOM     40  H   UNL     1     -25.536  61.802 -24.768  0.00  0.00    +0.000 HD
ENDBRANCH  20  39
TORSDOF 7
ENDMDL
MODEL 3
REMARK VINA RESULT:      -6.2     16.130     18.340
REMARK  Name = Chlortetracycline.pdbqt.pdb
REMARK  7 active torsions:
REMARK  status: ('A' for Active; 'I' for Inactive)
REMARK    1  A    between atoms: C_7  and  O_30
REMARK    2  A    between atoms: C_8  and  N_32
REMARK    3  A    between atoms: C_9  and  O_37
REMARK    4  A    between atoms: C_12  and  O_28
REMARK    5  A    between atoms: C_15  and  O_35
REMARK    6  A    between atoms: C_16  and  C_23
REMARK    7  A    between atoms: C_20  and  O_39
REMARK                            x       y       z     vdW  Elec       q    Type
REMARK                         _______ _______ _______ _____ _____    ______ ____
ROOT
ATOM      1 CL   UNL     1     -34.677  64.298  -2.334  0.00  0.00    +0.000 Cl
ATOM      2  O   UNL     1     -36.810  57.878  -6.275  0.00  0.00    +0.000 OA
ATOM      3  O   UNL     1     -41.783  61.470  -5.685  0.00  0.00    +0.000 OA
ATOM      4  C   UNL     1     -39.462  59.434  -4.160  0.00  0.00    +0.000 C 
ATOM      5  C   UNL     1     -37.194  60.781  -4.086  0.00  0.00    +0.000 C 
ATOM      6  C   UNL     1     -38.496  60.371  -3.737  0.00  0.00    +0.000 C 
ATOM      7  C   UNL     1     -38.964  58.541  -5.272  0.00  0.00    +0.000 C 
ATOM      8  C   UNL     1     -40.856  59.833  -4.238  0.00  0.00    +0.000 C 
ATOM      9  C   UNL     1     -36.311  61.745  -3.344  0.00  0.00    +0.000 C 
ATOM     10  C   UNL     1     -36.657  59.986  -5.170  0.00  0.00    +0.000 C 
ATOM     11  C   UNL     1     -37.413  58.740  -5.620  0.00  0.00    +0.000 C 
ATOM     12  C   UNL     1     -39.748  58.711  -6.577  0.00  0.00    +0.000 C 
ATOM     13  C   UNL     1     -35.142  62.261  -4.170  0.00  0.00    +0.000 A 
ATOM     14  C   UNL     1     -41.245  60.379  -5.568  0.00  0.00    +0.000 C 
ATOM     15  C   UNL     1     -35.490  60.322  -5.751  0.00  0.00    +0.000 C 
ATOM     16  C   UNL     1     -40.783  59.567  -6.739  0.00  0.00    +0.000 C 
ATOM     17  C   UNL     1     -34.768  61.574  -5.366  0.00  0.00    +0.000 A 
ATOM     18  C   UNL     1     -35.830  61.062  -2.048  0.00  0.00    +0.000 C 
ATOM     19  C   UNL     1     -34.400  63.403  -3.787  0.00  0.00    +0.000 A 
ATOM     20  C   UNL     1     -33.722  62.113  -6.147  0.00  0.00    +0.000 A 
ATOM     21  C   UNL     1     -33.353  63.883  -4.569  0.00  0.00    +0.000 A 
ATOM     22  C   UNL     1     -33.023  63.250  -5.752  0.00  0.00    +0.000 A 
ENDROOT
BRANCH  16  23
ATOM     23  C   UNL     1     -41.557  59.669  -8.008  0.00  0.00    +0.000 C 
ATOM     24  O   UNL     1     -41.008  59.781  -9.097  0.00  0.00    +0.000 OA
ATOM     25  N   UNL     1     -42.913  59.652  -7.909  0.00  0.00    +0.000 N 
ATOM     26  H   UNL     1     -43.361  59.845  -7.019  0.00  0.00    +0.000 HD
ATOM     27  H   UNL     1     -43.435  59.840  -8.754  0.00  0.00    +0.000 HD
ENDBRANCH  16  23
BRANCH   8  28
ATOM     28  N   UNL     1     -41.862  59.223  -3.409  0.00  0.00    +0.000 NA
ATOM     29  C   UNL     1     -42.459  60.129  -2.438  0.00  0.00    +0.000 C 
ATOM     30  C   UNL     1     -42.934  58.595  -4.153  0.00  0.00    +0.000 C 
ENDBRANCH   8  28
BRANCH  12  31
ATOM     31  O   UNL     1     -39.372  57.848  -7.611  0.00  0.00    +0.000 OA
ATOM     32  H   UNL     1     -39.818  56.982  -7.469  0.00  0.00    +0.000 HD
ENDBRANCH  12  31
BRANCH   7  33
ATOM     33  O   UNL     1     -39.192  57.184  -4.887  0.00  0.00    +0.000 OA
ATOM     34  H   UNL     1     -39.505  56.696  -5.671  0.00  0.00    +0.000 HD
ENDBRANCH   7  33
BRANCH  15  35
ATOM     35  O   UNL     1     -34.877  59.542  -6.708  0.00  0.00    +0.000 OA
ATOM     36  H   UNL     1     -34.537  60.102  -7.438  0.00  0.00    +0.000 HD
ENDBRANCH  15  35
BRANCH   9  37
ATOM     37  O   UNL     1     -37.147  62.813  -2.947  0.00  0.00    +0.000 OA
ATOM     38  H   UNL     1     -36.497  63.530  -2.831  0.00  0.00    +0.000 HD
ENDBRANCH   9  37
BRANCH  20  39
ATOM     39  O   UNL     1     -33.377  61.568  -7.354  0.00  0.00    +0.000 OA
ATOM     40  H   UNL     1     -32.601  62.034  -7.711  0.00  0.00    +0.000 HD
ENDBRANCH  20  39
TORSDOF 7
ENDMDL
MODEL 4
REMARK VINA RESULT:      -6.2     22.645     24.702
REMARK  Name = Chlortetracycline.pdbqt.pdb
REMARK  7 active torsions:
REMARK  status: ('A' for Active; 'I' for Inactive)
REMARK    1  A    between atoms: C_7  and  O_30
REMARK    2  A    between atoms: C_8  and  N_32
REMARK    3  A    between atoms: C_9  and  O_37
REMARK    4  A    between atoms: C_12  and  O_28
REMARK    5  A    between atoms: C_15  and  O_35
REMARK    6  A    between atoms: C_16  and  C_23
REMARK    7  A    between atoms: C_20  and  O_39
REMARK                            x       y       z     vdW  Elec       q    Type
REMARK                         _______ _______ _______ _____ _____    ______ ____
ROOT
ATOM      1 CL   UNL     1     -34.586  64.475   5.072  0.00  0.00    +0.000 Cl
ATOM      2  O   UNL     1     -28.838  60.133   2.005  0.00  0.00    +0.000 OA
ATOM      3  O   UNL     1     -26.306  65.252   4.321  0.00  0.00    +0.000 OA
ATOM      4  C   UNL     1     -28.306  63.825   1.907  0.00  0.00    +0.000 C 
ATOM      5  C   UNL     1     -30.573  63.165   3.084  0.00  0.00    +0.000 C 
ATOM      6  C   UNL     1     -29.587  63.969   2.478  0.00  0.00    +0.000 C 
ATOM      7  C   UNL     1     -27.849  62.387   1.849  0.00  0.00    +0.000 C 
ATOM      8  C   UNL     1     -27.279  64.809   2.201  0.00  0.00    +0.000 C 
ATOM      9  C   UNL     1     -31.962  63.573   3.488  0.00  0.00    +0.000 C 
ATOM     10  C   UNL     1     -30.193  61.769   3.092  0.00  0.00    +0.000 C 
ATOM     11  C   UNL     1     -28.967  61.330   2.296  0.00  0.00    +0.000 C 
ATOM     12  C   UNL     1     -26.603  62.116   2.699  0.00  0.00    +0.000 C 
ATOM     13  C   UNL     1     -32.628  62.600   4.449  0.00  0.00    +0.000 A 
ATOM     14  C   UNL     1     -26.453  64.470   3.393  0.00  0.00    +0.000 C 
ATOM     15  C   UNL     1     -30.927  60.863   3.764  0.00  0.00    +0.000 C 
ATOM     16  C   UNL     1     -25.963  63.055   3.434  0.00  0.00    +0.000 C 
ATOM     17  C   UNL     1     -32.094  61.284   4.601  0.00  0.00    +0.000 A 
ATOM     18  C   UNL     1     -32.801  63.770   2.209  0.00  0.00    +0.000 C 
ATOM     19  C   UNL     1     -33.776  62.953   5.199  0.00  0.00    +0.000 A 
ATOM     20  C   UNL     1     -32.693  60.423   5.547  0.00  0.00    +0.000 A 
ATOM     21  C   UNL     1     -34.357  62.063   6.097  0.00  0.00    +0.000 A 
ATOM     22  C   UNL     1     -33.810  60.808   6.284  0.00  0.00    +0.000 A 
ENDROOT
BRANCH  16  23
ATOM     23  C   UNL     1     -24.723  62.768   4.209  0.00  0.00    +0.000 C 
ATOM     24  O   UNL     1     -23.725  62.292   3.684  0.00  0.00    +0.000 OA
ATOM     25  N   UNL     1     -24.748  63.043   5.541  0.00  0.00    +0.000 N 
ATOM     26  H   UNL     1     -25.635  63.162   6.019  0.00  0.00    +0.000 HD
ATOM     27  H   UNL     1     -23.953  62.738   6.085  0.00  0.00    +0.000 HD
ENDBRANCH  16  23
BRANCH   8  28
ATOM     28  N   UNL     1     -26.715  65.641   1.171  0.00  0.00    +0.000 NA
ATOM     29  C   UNL     1     -25.301  65.400   0.923  0.00  0.00    +0.000 C 
ATOM     30  C   UNL     1     -27.413  65.558  -0.096  0.00  0.00    +0.000 C 
ENDBRANCH   8  28
BRANCH  12  31
ATOM     31  O   UNL     1     -26.098  60.816   2.614  0.00  0.00    +0.000 OA
ATOM     32  H   UNL     1     -25.117  60.869   2.544  0.00  0.00    +0.000 HD
ENDBRANCH  12  31
BRANCH   7  33
ATOM     33  O   UNL     1     -27.440  62.105   0.509  0.00  0.00    +0.000 OA
ATOM     34  H   UNL     1     -27.018  62.906   0.146  0.00  0.00    +0.000 HD
ENDBRANCH   7  33
BRANCH  15  35
ATOM     35  O   UNL     1     -30.677  59.508   3.716  0.00  0.00    +0.000 OA
ATOM     36  H   UNL     1     -30.741  59.182   2.793  0.00  0.00    +0.000 HD
ENDBRANCH  15  35
BRANCH   9  37
ATOM     37  O   UNL     1     -31.836  64.849   4.084  0.00  0.00    +0.000 OA
ATOM     38  H   UNL     1     -31.163  65.260   3.511  0.00  0.00    +0.000 HD
ENDBRANCH   9  37
BRANCH  20  39
ATOM     39  O   UNL     1     -32.173  59.187   5.820  0.00  0.00    +0.000 OA
ATOM     40  H   UNL     1     -31.712  59.210   6.676  0.00  0.00    +0.000 HD
ENDBRANCH  20  39
TORSDOF 7
ENDMDL
MODEL 5
REMARK VINA RESULT:      -6.2     20.771     22.544
REMARK  Name = Chlortetracycline.pdbqt.pdb
REMARK  7 active torsions:
REMARK  status: ('A' for Active; 'I' for Inactive)
REMARK    1  A    between atoms: C_7  and  O_30
REMARK    2  A    between atoms: C_8  and  N_32
REMARK    3  A    between atoms: C_9  and  O_37
REMARK    4  A    between atoms: C_12  and  O_28
REMARK    5  A    between atoms: C_15  and  O_35
REMARK    6  A    between atoms: C_16  and  C_23
REMARK    7  A    between atoms: C_20  and  O_39
REMARK                            x       y       z     vdW  Elec       q    Type
REMARK                         _______ _______ _______ _____ _____    ______ ____
ROOT
ATOM      1 CL   UNL     1     -11.289  50.711 -14.806  0.00  0.00    +0.000 Cl
ATOM      2  O   UNL     1     -12.160  45.597  -8.942  0.00  0.00    +0.000 OA
ATOM      3  O   UNL     1     -13.542  51.200  -6.781  0.00  0.00    +0.000 OA
ATOM      4  C   UNL     1     -11.126  49.041  -7.945  0.00  0.00    +0.000 C 
ATOM      5  C   UNL     1     -11.494  48.813 -10.549  0.00  0.00    +0.000 C 
ATOM      6  C   UNL     1     -11.090  49.367  -9.317  0.00  0.00    +0.000 C 
ATOM      7  C   UNL     1     -11.698  47.668  -7.685  0.00  0.00    +0.000 C 
ATOM      8  C   UNL     1     -11.465  50.068  -6.977  0.00  0.00    +0.000 C 
ATOM      9  C   UNL     1     -11.190  49.332 -11.926  0.00  0.00    +0.000 C 
ATOM     10  C   UNL     1     -12.081  47.501 -10.377  0.00  0.00    +0.000 C 
ATOM     11  C   UNL     1     -11.991  46.822  -9.013  0.00  0.00    +0.000 C 
ATOM     12  C   UNL     1     -12.996  47.701  -6.872  0.00  0.00    +0.000 C 
ATOM     13  C   UNL     1     -12.076  48.738 -13.010  0.00  0.00    +0.000 A 
ATOM     14  C   UNL     1     -12.923  50.151  -6.684  0.00  0.00    +0.000 C 
ATOM     15  C   UNL     1     -12.669  46.874 -11.412  0.00  0.00    +0.000 C 
ATOM     16  C   UNL     1     -13.586  48.834  -6.424  0.00  0.00    +0.000 C 
ATOM     17  C   UNL     1     -12.822  47.550 -12.738  0.00  0.00    +0.000 A 
ATOM     18  C   UNL     1      -9.695  49.085 -12.218  0.00  0.00    +0.000 C 
ATOM     19  C   UNL     1     -12.182  49.321 -14.295  0.00  0.00    +0.000 A 
ATOM     20  C   UNL     1     -13.687  47.058 -13.740  0.00  0.00    +0.000 A 
ATOM     21  C   UNL     1     -13.021  48.785 -15.268  0.00  0.00    +0.000 A 
ATOM     22  C   UNL     1     -13.783  47.666 -14.989  0.00  0.00    +0.000 A 
ENDROOT
BRANCH  16  23
ATOM     23  C   UNL     1     -14.822  48.826  -5.591  0.00  0.00    +0.000 C 
ATOM     24  O   UNL     1     -15.014  47.986  -4.722  0.00  0.00    +0.000 OA
ATOM     25  N   UNL     1     -15.748  49.788  -5.850  0.00  0.00    +0.000 N 
ATOM     26  H   UNL     1     -15.727  50.292  -6.731  0.00  0.00    +0.000 HD
ATOM     27  H   UNL     1     -16.634  49.710  -5.369  0.00  0.00    +0.000 HD
ENDBRANCH  16  23
BRANCH   8  28
ATOM     28  N   UNL     1     -10.524  50.505  -5.980  0.00  0.00    +0.000 NA
ATOM     29  C   UNL     1     -10.770  49.961  -4.652  0.00  0.00    +0.000 C 
ATOM     30  C   UNL     1      -9.142  50.239  -6.323  0.00  0.00    +0.000 C 
ENDBRANCH   8  28
BRANCH  12  31
ATOM     31  O   UNL     1     -13.520  46.448  -6.539  0.00  0.00    +0.000 OA
ATOM     32  H   UNL     1     -13.612  45.922  -7.366  0.00  0.00    +0.000 HD
ENDBRANCH  12  31
BRANCH   7  33
ATOM     33  O   UNL     1     -10.775  46.952  -6.862  0.00  0.00    +0.000 OA
ATOM     34  H   UNL     1     -11.245  46.667  -6.056  0.00  0.00    +0.000 HD
ENDBRANCH   7  33
BRANCH  15  35
ATOM     35  O   UNL     1     -13.144  45.582 -11.336  0.00  0.00    +0.000 OA
ATOM     36  H   UNL     1     -12.608  45.058 -10.704  0.00  0.00    +0.000 HD
ENDBRANCH  15  35
BRANCH   9  37
ATOM     37  O   UNL     1     -11.359  50.734 -11.861  0.00  0.00    +0.000 OA
ATOM     38  H   UNL     1     -10.494  51.013 -11.507  0.00  0.00    +0.000 HD
ENDBRANCH   9  37
BRANCH  20  39
ATOM     39  O   UNL     1     -14.508  45.986 -13.514  0.00  0.00    +0.000 OA
ATOM     40  H   UNL     1     -13.969  45.201 -13.315  0.00  0.00    +0.000 HD
ENDBRANCH  20  39
TORSDOF 7
ENDMDL
MODEL 6
REMARK VINA RESULT:      -6.2     21.975     24.564
REMARK  Name = Chlortetracycline.pdbqt.pdb
REMARK  7 active torsions:
REMARK  status: ('A' for Active; 'I' for Inactive)
REMARK    1  A    between atoms: C_7  and  O_30
REMARK    2  A    between atoms: C_8  and  N_32
REMARK    3  A    between atoms: C_9  and  O_37
REMARK    4  A    between atoms: C_12  and  O_28
REMARK    5  A    between atoms: C_15  and  O_35
REMARK    6  A    between atoms: C_16  and  C_23
REMARK    7  A    between atoms: C_20  and  O_39
REMARK                            x       y       z     vdW  Elec       q    Type
REMARK                         _______ _______ _______ _____ _____    ______ ____
ROOT
ATOM      1 CL   UNL     1     -25.704  66.055 -30.188  0.00  0.00    +0.000 Cl
ATOM      2  O   UNL     1     -28.087  59.908 -25.964  0.00  0.00    +0.000 OA
ATOM      3  O   UNL     1     -32.830  63.812 -26.457  0.00  0.00    +0.000 OA
ATOM      4  C   UNL     1     -29.713  63.164 -25.142  0.00  0.00    +0.000 C 
ATOM      5  C   UNL     1     -27.987  63.373 -27.127  0.00  0.00    +0.000 C 
ATOM      6  C   UNL     1     -28.870  63.763 -26.101  0.00  0.00    +0.000 C 
ATOM      7  C   UNL     1     -29.617  61.657 -25.139  0.00  0.00    +0.000 C 
ATOM      8  C   UNL     1     -31.034  63.720 -24.907  0.00  0.00    +0.000 C 
ATOM      9  C   UNL     1     -27.073  64.255 -27.931  0.00  0.00    +0.000 C 
ATOM     10  C   UNL     1     -27.864  61.933 -27.206  0.00  0.00    +0.000 C 
ATOM     11  C   UNL     1     -28.477  61.075 -26.102  0.00  0.00    +0.000 C 
ATOM     12  C   UNL     1     -30.931  60.970 -25.524  0.00  0.00    +0.000 C 
ATOM     13  C   UNL     1     -26.547  63.596 -29.197  0.00  0.00    +0.000 A 
ATOM     14  C   UNL     1     -32.093  63.122 -25.767  0.00  0.00    +0.000 C 
ATOM     15  C   UNL     1     -27.191  61.358 -28.219  0.00  0.00    +0.000 C 
ATOM     16  C   UNL     1     -32.072  61.627 -25.839  0.00  0.00    +0.000 C 
ATOM     17  C   UNL     1     -26.639  62.178 -29.342  0.00  0.00    +0.000 A 
ATOM     18  C   UNL     1     -25.924  64.723 -27.015  0.00  0.00    +0.000 C 
ATOM     19  C   UNL     1     -25.957  64.345 -30.242  0.00  0.00    +0.000 A 
ATOM     20  C   UNL     1     -26.202  61.600 -30.555  0.00  0.00    +0.000 A 
ATOM     21  C   UNL     1     -25.508  63.733 -31.409  0.00  0.00    +0.000 A 
ATOM     22  C   UNL     1     -25.642  62.367 -31.573  0.00  0.00    +0.000 A 
ENDROOT
BRANCH  16  23
ATOM     23  C   UNL     1     -33.347  60.925 -26.160  0.00  0.00    +0.000 C 
ATOM     24  O   UNL     1     -33.382  59.941 -26.887  0.00  0.00    +0.000 OA
ATOM     25  N   UNL     1     -34.486  61.436 -25.621  0.00  0.00    +0.000 N 
ATOM     26  H   UNL     1     -34.500  62.386 -25.266  0.00  0.00    +0.000 HD
ATOM     27  H   UNL     1     -35.359  61.034 -25.933  0.00  0.00    +0.000 HD
ENDBRANCH  16  23
BRANCH   8  28
ATOM     28  N   UNL     1     -31.399  64.283 -23.634  0.00  0.00    +0.000 NA
ATOM     29  C   UNL     1     -32.284  63.438 -22.844  0.00  0.00    +0.000 C 
ATOM     30  C   UNL     1     -30.266  64.642 -22.806  0.00  0.00    +0.000 C 
ENDBRANCH   8  28
BRANCH  12  31
ATOM     31  O   UNL     1     -30.912  59.573 -25.459  0.00  0.00    +0.000 OA
ATOM     32  H   UNL     1     -31.720  59.231 -25.906  0.00  0.00    +0.000 HD
ENDBRANCH  12  31
BRANCH   7  33
ATOM     33  O   UNL     1     -29.367  61.231 -23.799  0.00  0.00    +0.000 OA
ATOM     34  H   UNL     1     -29.155  60.280 -23.817  0.00  0.00    +0.000 HD
ENDBRANCH   7  33
BRANCH  15  35
ATOM     35  O   UNL     1     -26.947  60.003 -28.286  0.00  0.00    +0.000 OA
ATOM     36  H   UNL     1     -26.388  59.794 -29.064  0.00  0.00    +0.000 HD
ENDBRANCH  15  35
BRANCH   9  37
ATOM     37  O   UNL     1     -27.827  65.409 -28.249  0.00  0.00    +0.000 OA
ATOM     38  H   UNL     1     -28.453  65.438 -27.502  0.00  0.00    +0.000 HD
ENDBRANCH   9  37
BRANCH  20  39
ATOM     39  O   UNL     1     -26.353  60.263 -30.805  0.00  0.00    +0.000 OA
ATOM     40  H   UNL     1     -25.637  59.769 -30.370  0.00  0.00    +0.000 HD
ENDBRANCH  20  39
TORSDOF 7
ENDMDL
MODEL 7
REMARK VINA RESULT:      -6.2      3.297      5.905
REMARK  Name = Chlortetracycline.pdbqt.pdb
REMARK  7 active torsions:
REMARK  status: ('A' for Active; 'I' for Inactive)
REMARK    1  A    between atoms: C_7  and  O_30
REMARK    2  A    between atoms: C_8  and  N_32
REMARK    3  A    between atoms: C_9  and  O_37
REMARK    4  A    between atoms: C_12  and  O_28
REMARK    5  A    between atoms: C_15  and  O_35
REMARK    6  A    between atoms: C_16  and  C_23
REMARK    7  A    between atoms: C_20  and  O_39
REMARK                            x       y       z     vdW  Elec       q    Type
REMARK                         _______ _______ _______ _____ _____    ______ ____
ROOT
ATOM      1 CL   UNL     1     -38.120  47.219 -11.633  0.00  0.00    +0.000 Cl
ATOM      2  O   UNL     1     -32.692  44.232  -6.845  0.00  0.00    +0.000 OA
ATOM      3  O   UNL     1     -37.827  40.886  -6.199  0.00  0.00    +0.000 OA
ATOM      4  C   UNL     1     -36.227  43.893  -5.696  0.00  0.00    +0.000 C 
ATOM      5  C   UNL     1     -36.041  45.065  -8.054  0.00  0.00    +0.000 C 
ATOM      6  C   UNL     1     -36.611  44.615  -6.845  0.00  0.00    +0.000 C 
ATOM      7  C   UNL     1     -34.759  43.537  -5.692  0.00  0.00    +0.000 C 
ATOM      8  C   UNL     1     -37.127  42.895  -5.147  0.00  0.00    +0.000 C 
ATOM      9  C   UNL     1     -36.667  45.973  -9.075  0.00  0.00    +0.000 C 
ATOM     10  C   UNL     1     -34.635  44.733  -8.136  0.00  0.00    +0.000 C 
ATOM     11  C   UNL     1     -33.929  44.183  -6.900  0.00  0.00    +0.000 C 
ATOM     12  C   UNL     1     -34.507  42.026  -5.724  0.00  0.00    +0.000 C 
ATOM     13  C   UNL     1     -35.958  45.955 -10.421  0.00  0.00    +0.000 A 
ATOM     14  C   UNL     1     -36.914  41.531  -5.704  0.00  0.00    +0.000 C 
ATOM     15  C   UNL     1     -33.950  44.938  -9.277  0.00  0.00    +0.000 C 
ATOM     16  C   UNL     1     -35.484  41.090  -5.755  0.00  0.00    +0.000 C 
ATOM     17  C   UNL     1     -34.639  45.416 -10.515  0.00  0.00    +0.000 A 
ATOM     18  C   UNL     1     -36.726  47.397  -8.485  0.00  0.00    +0.000 C 
ATOM     19  C   UNL     1     -36.564  46.466 -11.594  0.00  0.00    +0.000 A 
ATOM     20  C   UNL     1     -34.031  45.352 -11.789  0.00  0.00    +0.000 A 
ATOM     21  C   UNL     1     -35.917  46.416 -12.825  0.00  0.00    +0.000 A 
ATOM     22  C   UNL     1     -34.661  45.848 -12.927  0.00  0.00    +0.000 A 
ENDROOT
BRANCH  16  23
ATOM     23  C   UNL     1     -35.202  39.627  -5.734  0.00  0.00    +0.000 C 
ATOM     24  O   UNL     1     -34.540  39.105  -4.847  0.00  0.00    +0.000 OA
ATOM     25  N   UNL     1     -35.700  38.887  -6.761  0.00  0.00    +0.000 N 
ATOM     26  H   UNL     1     -35.993  39.340  -7.619  0.00  0.00    +0.000 HD
ATOM     27  H   UNL     1     -35.410  37.920  -6.809  0.00  0.00    +0.000 HD
ENDBRANCH  16  23
BRANCH   8  28
ATOM     28  N   UNL     1     -37.696  43.035  -3.832  0.00  0.00    +0.000 NA
ATOM     29  C   UNL     1     -39.129  43.290  -3.830  0.00  0.00    +0.000 C 
ATOM     30  C   UNL     1     -37.441  41.907  -2.960  0.00  0.00    +0.000 C 
ENDBRANCH   8  28
BRANCH  12  31
ATOM     31  O   UNL     1     -33.164  41.647  -5.643  0.00  0.00    +0.000 OA
ATOM     32  H   UNL     1     -32.638  42.241  -6.226  0.00  0.00    +0.000 HD
ENDBRANCH  12  31
BRANCH   7  33
ATOM     33  O   UNL     1     -34.201  43.970  -4.450  0.00  0.00    +0.000 OA
ATOM     34  H   UNL     1     -33.389  43.455  -4.287  0.00  0.00    +0.000 HD
ENDBRANCH   7  33
BRANCH  15  35
ATOM     35  O   UNL     1     -32.589  44.746  -9.379  0.00  0.00    +0.000 OA
ATOM     36  H   UNL     1     -32.388  44.090 -10.079  0.00  0.00    +0.000 HD
ENDBRANCH  15  35
BRANCH   9  37
ATOM     37  O   UNL     1     -38.006  45.541  -9.213  0.00  0.00    +0.000 OA
ATOM     38  H   UNL     1     -37.947  44.996 -10.019  0.00  0.00    +0.000 HD
ENDBRANCH   9  37
BRANCH  20  39
ATOM     39  O   UNL     1     -32.813  44.757 -11.971  0.00  0.00    +0.000 OA
ATOM     40  H   UNL     1     -32.659  44.618 -12.922  0.00  0.00    +0.000 HD
ENDBRANCH  20  39
TORSDOF 7
ENDMDL
MODEL 8
REMARK VINA RESULT:      -5.7     22.626     24.102
REMARK  Name = Chlortetracycline.pdbqt.pdb
REMARK  7 active torsions:
REMARK  status: ('A' for Active; 'I' for Inactive)
REMARK    1  A    between atoms: C_7  and  O_30
REMARK    2  A    between atoms: C_8  and  N_32
REMARK    3  A    between atoms: C_9  and  O_37
REMARK    4  A    between atoms: C_12  and  O_28
REMARK    5  A    between atoms: C_15  and  O_35
REMARK    6  A    between atoms: C_16  and  C_23
REMARK    7  A    between atoms: C_20  and  O_39
REMARK                            x       y       z     vdW  Elec       q    Type
REMARK                         _______ _______ _______ _____ _____    ______ ____
ROOT
ATOM      1 CL   UNL     1     -15.743  58.273 -23.990  0.00  0.00    +0.000 Cl
ATOM      2  O   UNL     1     -17.024  57.728 -16.285  0.00  0.00    +0.000 OA
ATOM      3  O   UNL     1     -11.224  55.946 -17.365  0.00  0.00    +0.000 OA
ATOM      4  C   UNL     1     -14.587  55.281 -17.697  0.00  0.00    +0.000 C 
ATOM      5  C   UNL     1     -15.519  56.942 -19.523  0.00  0.00    +0.000 C 
ATOM      6  C   UNL     1     -14.860  55.827 -18.968  0.00  0.00    +0.000 C 
ATOM      7  C   UNL     1     -15.232  56.058 -16.575  0.00  0.00    +0.000 C 
ATOM      8  C   UNL     1     -13.267  54.739 -17.422  0.00  0.00    +0.000 C 
ATOM      9  C   UNL     1     -15.791  57.213 -20.977  0.00  0.00    +0.000 C 
ATOM     10  C   UNL     1     -16.142  57.756 -18.501  0.00  0.00    +0.000 C 
ATOM     11  C   UNL     1     -16.207  57.228 -17.071  0.00  0.00    +0.000 C 
ATOM     12  C   UNL     1     -14.216  56.689 -15.618  0.00  0.00    +0.000 C 
ATOM     13  C   UNL     1     -16.168  58.657 -21.268  0.00  0.00    +0.000 A 
ATOM     14  C   UNL     1     -12.319  55.741 -16.861  0.00  0.00    +0.000 C 
ATOM     15  C   UNL     1     -16.685  58.948 -18.813  0.00  0.00    +0.000 C 
ATOM     16  C   UNL     1     -12.873  56.574 -15.747  0.00  0.00    +0.000 C 
ATOM     17  C   UNL     1     -16.574  59.509 -20.195  0.00  0.00    +0.000 A 
ATOM     18  C   UNL     1     -16.884  56.235 -21.454  0.00  0.00    +0.000 C 
ATOM     19  C   UNL     1     -16.138  59.190 -22.578  0.00  0.00    +0.000 A 
ATOM     20  C   UNL     1     -16.855  60.862 -20.485  0.00  0.00    +0.000 A 
ATOM     21  C   UNL     1     -16.456  60.523 -22.827  0.00  0.00    +0.000 A 
ATOM     22  C   UNL     1     -16.799  61.361 -21.783  0.00  0.00    +0.000 A 
ENDROOT
BRANCH  16  23
ATOM     23  C   UNL     1     -11.914  57.159 -14.768  0.00  0.00    +0.000 C 
ATOM     24  O   UNL     1     -11.991  58.323 -14.398  0.00  0.00    +0.000 OA
ATOM     25  N   UNL     1     -10.927  56.344 -14.308  0.00  0.00    +0.000 N 
ATOM     26  H   UNL     1     -10.692  55.495 -14.811  0.00  0.00    +0.000 HD
ATOM     27  H   UNL     1     -10.209  56.772 -13.739  0.00  0.00    +0.000 HD
ENDBRANCH  16  23
BRANCH   8  28
ATOM     28  N   UNL     1     -13.072  53.345 -17.127  0.00  0.00    +0.000 NA
ATOM     29  C   UNL     1     -12.123  52.679 -18.007  0.00  0.00    +0.000 C 
ATOM     30  C   UNL     1     -12.670  53.086 -15.759  0.00  0.00    +0.000 C 
ENDBRANCH   8  28
BRANCH  12  31
ATOM     31  O   UNL     1     -14.768  57.354 -14.519  0.00  0.00    +0.000 OA
ATOM     32  H   UNL     1     -14.100  57.990 -14.174  0.00  0.00    +0.000 HD
ENDBRANCH  12  31
BRANCH   7  33
ATOM     33  O   UNL     1     -15.969  55.140 -15.765  0.00  0.00    +0.000 OA
ATOM     34  H   UNL     1     -15.415  54.900 -15.000  0.00  0.00    +0.000 HD
ENDBRANCH   7  33
BRANCH  15  35
ATOM     35  O   UNL     1     -17.387  59.712 -17.906  0.00  0.00    +0.000 OA
ATOM     36  H   UNL     1     -17.702  59.157 -17.162  0.00  0.00    +0.000 HD
ENDBRANCH  15  35
BRANCH   9  37
ATOM     37  O   UNL     1     -14.608  56.860 -21.667  0.00  0.00    +0.000 OA
ATOM     38  H   UNL     1     -14.883  56.033 -22.103  0.00  0.00    +0.000 HD
ENDBRANCH   9  37
BRANCH  20  39
ATOM     39  O   UNL     1     -17.151  61.760 -19.494  0.00  0.00    +0.000 OA
ATOM     40  H   UNL     1     -17.886  61.418 -18.956  0.00  0.00    +0.000 HD
ENDBRANCH  20  39
TORSDOF 7
ENDMDL
MODEL 9
REMARK VINA RESULT:      -5.7      5.082      8.142
REMARK  Name = Chlortetracycline.pdbqt.pdb
REMARK  7 active torsions:
REMARK  status: ('A' for Active; 'I' for Inactive)
REMARK    1  A    between atoms: C_7  and  O_30
REMARK    2  A    between atoms: C_8  and  N_32
REMARK    3  A    between atoms: C_9  and  O_37
REMARK    4  A    between atoms: C_12  and  O_28
REMARK    5  A    between atoms: C_15  and  O_35
REMARK    6  A    between atoms: C_16  and  C_23
REMARK    7  A    between atoms: C_20  and  O_39
REMARK                            x       y       z     vdW  Elec       q    Type
REMARK                         _______ _______ _______ _____ _____    ______ ____
ROOT
ATOM      1 CL   UNL     1     -40.962  50.914 -17.309  0.00  0.00    +0.000 Cl
ATOM      2  O   UNL     1     -33.321  49.214 -17.187  0.00  0.00    +0.000 OA
ATOM      3  O   UNL     1     -36.439  43.936 -16.550  0.00  0.00    +0.000 OA
ATOM      4  C   UNL     1     -35.512  46.957 -15.180  0.00  0.00    +0.000 C 
ATOM      5  C   UNL     1     -36.880  48.824 -16.448  0.00  0.00    +0.000 C 
ATOM      6  C   UNL     1     -36.599  47.780 -15.545  0.00  0.00    +0.000 C 
ATOM      7  C   UNL     1     -34.237  47.317 -15.903  0.00  0.00    +0.000 C 
ATOM      8  C   UNL     1     -35.737  45.541 -14.948  0.00  0.00    +0.000 C 
ATOM      9  C   UNL     1     -38.135  49.648 -16.529  0.00  0.00    +0.000 C 
ATOM     10  C   UNL     1     -35.706  49.207 -17.203  0.00  0.00    +0.000 C 
ATOM     11  C   UNL     1     -34.348  48.640 -16.800  0.00  0.00    +0.000 C 
ATOM     12  C   UNL     1     -33.722  46.196 -16.811  0.00  0.00    +0.000 C 
ATOM     13  C   UNL     1     -38.276  50.417 -17.834  0.00  0.00    +0.000 A 
ATOM     14  C   UNL     1     -35.568  44.704 -16.168  0.00  0.00    +0.000 C 
ATOM     15  C   UNL     1     -35.804  50.078 -18.225  0.00  0.00    +0.000 C 
ATOM     16  C   UNL     1     -34.334  44.998 -16.964  0.00  0.00    +0.000 C 
ATOM     17  C   UNL     1     -37.134  50.594 -18.674  0.00  0.00    +0.000 A 
ATOM     18  C   UNL     1     -38.173  50.591 -15.309  0.00  0.00    +0.000 C 
ATOM     19  C   UNL     1     -39.510  50.975 -18.245  0.00  0.00    +0.000 A 
ATOM     20  C   UNL     1     -37.309  51.255 -19.910  0.00  0.00    +0.000 A 
ATOM     21  C   UNL     1     -39.633  51.649 -19.457  0.00  0.00    +0.000 A 
ATOM     22  C   UNL     1     -38.541  51.777 -20.295  0.00  0.00    +0.000 A 
ENDROOT
BRANCH  16  23
ATOM     23  C   UNL     1     -33.777  43.909 -17.817  0.00  0.00    +0.000 C 
ATOM     24  O   UNL     1     -33.393  44.112 -18.961  0.00  0.00    +0.000 OA
ATOM     25  N   UNL     1     -33.727  42.663 -17.274  0.00  0.00    +0.000 N 
ATOM     26  H   UNL     1     -34.290  42.439 -16.460  0.00  0.00    +0.000 HD
ATOM     27  H   UNL     1     -33.462  41.907 -17.890  0.00  0.00    +0.000 HD
ENDBRANCH  16  23
BRANCH   8  28
ATOM     28  N   UNL     1     -35.525  44.947 -13.655  0.00  0.00    +0.000 NA
ATOM     29  C   UNL     1     -34.297  44.170 -13.553  0.00  0.00    +0.000 C 
ATOM     30  C   UNL     1     -35.545  45.898 -12.562  0.00  0.00    +0.000 C 
ENDBRANCH   8  28
BRANCH  12  31
ATOM     31  O   UNL     1     -32.501  46.454 -17.441  0.00  0.00    +0.000 OA
ATOM     32  H   UNL     1     -32.680  46.673 -18.384  0.00  0.00    +0.000 HD
ENDBRANCH  12  31
BRANCH   7  33
ATOM     33  O   UNL     1     -33.208  47.492 -14.928  0.00  0.00    +0.000 OA
ATOM     34  H   UNL     1     -32.378  47.134 -15.294  0.00  0.00    +0.000 HD
ENDBRANCH   7  33
BRANCH  15  35
ATOM     35  O   UNL     1     -34.708  50.563 -18.905  0.00  0.00    +0.000 OA
ATOM     36  H   UNL     1     -34.964  50.846 -19.808  0.00  0.00    +0.000 HD
ENDBRANCH  15  35
BRANCH   9  37
ATOM     37  O   UNL     1     -39.208  48.742 -16.368  0.00  0.00    +0.000 OA
ATOM     38  H   UNL     1     -39.769  48.975 -17.130  0.00  0.00    +0.000 HD
ENDBRANCH   9  37
BRANCH  20  39
ATOM     39  O   UNL     1     -36.285  51.371 -20.810  0.00  0.00    +0.000 OA
ATOM     40  H   UNL     1     -36.603  51.831 -21.606  0.00  0.00    +0.000 HD
ENDBRANCH  20  39
TORSDOF 7
ENDMDL
