MODEL 1
REMARK VINA RESULT:      -4.9      0.000      0.000
REMARK  Name = Ciclopirox.pdbqt.pdb
REMARK  2 active torsions:
REMARK  status: ('A' for Active; 'I' for Inactive)
REMARK    1  A    between atoms: N_2  and  O_15
REMARK    2  A    between atoms: C_3  and  C_9
REMARK                            x       y       z     vdW  Elec       q    Type
REMARK                         _______ _______ _______ _____ _____    ______ ____
ROOT
ATOM      1  O   UNL     1     -38.955  48.397 -10.169  0.00  0.00    +0.000 OA
ATOM      2  N   UNL     1     -37.142  47.463  -9.017  0.00  0.00    +0.000 N 
ATOM      3  C   UNL     1     -36.021  46.622  -9.045  0.00  0.00    +0.000 C 
ATOM      4  C   UNL     1     -35.890  46.046 -10.214  0.00  0.00    +0.000 C 
ATOM      5  C   UNL     1     -36.587  46.027 -11.457  0.00  0.00    +0.000 C 
ATOM      6  C   UNL     1     -37.992  47.645 -10.123  0.00  0.00    +0.000 C 
ATOM      7  C   UNL     1     -37.575  46.846 -11.252  0.00  0.00    +0.000 C 
ATOM      8  C   UNL     1     -36.787  44.744 -12.193  0.00  0.00    +0.000 C 
ENDROOT
BRANCH   3   9
ATOM      9  C   UNL     1     -35.117  46.421  -7.951  0.00  0.00    +0.000 A 
ATOM     10  C   UNL     1     -33.704  46.720  -8.007  0.00  0.00    +0.000 A 
ATOM     11  C   UNL     1     -32.558  46.341  -7.042  0.00  0.00    +0.000 A 
ATOM     12  C   UNL     1     -32.956  45.509  -5.808  0.00  0.00    +0.000 A 
ATOM     13  C   UNL     1     -34.443  45.139  -5.655  0.00  0.00    +0.000 A 
ATOM     14  C   UNL     1     -35.389  45.646  -6.766  0.00  0.00    +0.000 A 
ENDBRANCH   3   9
BRANCH   2  15
ATOM     15  O   UNL     1     -37.388  48.235  -7.865  0.00  0.00    +0.000 OA
ATOM     16  H   UNL     1     -36.568  48.109  -7.345  0.00  0.00    +0.000 HD
ENDBRANCH   2  15
TORSDOF 2
ENDMDL
MODEL 2
REMARK VINA RESULT:      -4.7      7.766      9.261
REMARK  Name = Ciclopirox.pdbqt.pdb
REMARK  2 active torsions:
REMARK  status: ('A' for Active; 'I' for Inactive)
REMARK    1  A    between atoms: N_2  and  O_15
REMARK    2  A    between atoms: C_3  and  C_9
REMARK                            x       y       z     vdW  Elec       q    Type
REMARK                         _______ _______ _______ _____ _____    ______ ____
ROOT
ATOM      1  O   UNL     1     -33.115  47.233 -18.351  0.00  0.00    +0.000 OA
ATOM      2  N   UNL     1     -32.067  45.471 -17.219  0.00  0.00    +0.000 N 
ATOM      3  C   UNL     1     -32.044  44.619 -16.106  0.00  0.00    +0.000 C 
ATOM      4  C   UNL     1     -33.006  44.910 -15.266  0.00  0.00    +0.000 C 
ATOM      5  C   UNL     1     -34.056  45.868 -15.168  0.00  0.00    +0.000 C 
ATOM      6  C   UNL     1     -33.020  46.492 -17.382  0.00  0.00    +0.000 C 
ATOM      7  C   UNL     1     -33.929  46.557 -16.262  0.00  0.00    +0.000 C 
ATOM      8  C   UNL     1     -34.352  46.534 -13.865  0.00  0.00    +0.000 C 
ENDROOT
BRANCH   3   9
ATOM      9  C   UNL     1     -31.106  43.553 -15.907  0.00  0.00    +0.000 A 
ATOM     10  C   UNL     1     -29.672  43.717 -15.975  0.00  0.00    +0.000 A 
ATOM     11  C   UNL     1     -28.542  42.664 -16.040  0.00  0.00    +0.000 A 
ATOM     12  C   UNL     1     -28.987  41.189 -16.030  0.00  0.00    +0.000 A 
ATOM     13  C   UNL     1     -30.499  40.908 -15.956  0.00  0.00    +0.000 A 
ATOM     14  C   UNL     1     -31.421  42.146 -15.900  0.00  0.00    +0.000 A 
ENDBRANCH   3   9
BRANCH   2  15
ATOM     15  O   UNL     1     -31.158  45.246 -18.271  0.00  0.00    +0.000 OA
ATOM     16  H   UNL     1     -30.454  44.723 -17.836  0.00  0.00    +0.000 HD
ENDBRANCH   2  15
TORSDOF 2
ENDMDL
MODEL 3
REMARK VINA RESULT:      -4.5     18.438     20.775
REMARK  Name = Ciclopirox.pdbqt.pdb
REMARK  2 active torsions:
REMARK  status: ('A' for Active; 'I' for Inactive)
REMARK    1  A    between atoms: N_2  and  O_15
REMARK    2  A    between atoms: C_3  and  C_9
REMARK                            x       y       z     vdW  Elec       q    Type
REMARK                         _______ _______ _______ _____ _____    ______ ____
ROOT
ATOM      1  O   UNL     1     -14.562  40.421  -0.525  0.00  0.00    +0.000 OA
ATOM      2  N   UNL     1     -16.507  40.169  -1.804  0.00  0.00    +0.000 N 
ATOM      3  C   UNL     1     -17.443  40.747  -2.674  0.00  0.00    +0.000 C 
ATOM      4  C   UNL     1     -17.177  42.012  -2.882  0.00  0.00    +0.000 C 
ATOM      5  C   UNL     1     -16.208  42.964  -2.451  0.00  0.00    +0.000 C 
ATOM      6  C   UNL     1     -15.431  40.884  -1.251  0.00  0.00    +0.000 C 
ATOM      7  C   UNL     1     -15.439  42.267  -1.669  0.00  0.00    +0.000 C 
ATOM      8  C   UNL     1     -16.620  44.353  -2.091  0.00  0.00    +0.000 C 
ENDROOT
BRANCH   3   9
ATOM      9  C   UNL     1     -18.542  40.053  -3.278  0.00  0.00    +0.000 A 
ATOM     10  C   UNL     1     -18.506  39.484  -4.605  0.00  0.00    +0.000 A 
ATOM     11  C   UNL     1     -19.645  38.940  -5.497  0.00  0.00    +0.000 A 
ATOM     12  C   UNL     1     -21.063  38.999  -4.899  0.00  0.00    +0.000 A 
ATOM     13  C   UNL     1     -21.208  39.588  -3.484  0.00  0.00    +0.000 A 
ATOM     14  C   UNL     1     -19.904  40.063  -2.805  0.00  0.00    +0.000 A 
ENDBRANCH   3   9
BRANCH   2  15
ATOM     15  O   UNL     1     -16.585  38.788  -1.538  0.00  0.00    +0.000 OA
ATOM     16  H   UNL     1     -17.407  38.528  -2.001  0.00  0.00    +0.000 HD
ENDBRANCH   2  15
TORSDOF 2
ENDMDL
MODEL 4
REMARK VINA RESULT:      -4.5      1.930      2.930
REMARK  Name = Ciclopirox.pdbqt.pdb
REMARK  2 active torsions:
REMARK  status: ('A' for Active; 'I' for Inactive)
REMARK    1  A    between atoms: N_2  and  O_15
REMARK    2  A    between atoms: C_3  and  C_9
REMARK                            x       y       z     vdW  Elec       q    Type
REMARK                         _______ _______ _______ _____ _____    ______ ____
ROOT
ATOM      1  O   UNL     1     -38.320  47.438  -7.114  0.00  0.00    +0.000 OA
ATOM      2  N   UNL     1     -36.505  46.011  -6.721  0.00  0.00    +0.000 N 
ATOM      3  C   UNL     1     -35.355  45.384  -7.220  0.00  0.00    +0.000 C 
ATOM      4  C   UNL     1     -35.175  45.663  -8.487  0.00  0.00    +0.000 C 
ATOM      5  C   UNL     1     -35.841  46.415  -9.499  0.00  0.00    +0.000 C 
ATOM      6  C   UNL     1     -37.333  46.832  -7.507  0.00  0.00    +0.000 C 
ATOM      7  C   UNL     1     -36.861  46.916  -8.870  0.00  0.00    +0.000 C 
ATOM      8  C   UNL     1     -35.978  45.867 -10.881  0.00  0.00    +0.000 C 
ENDROOT
BRANCH   3   9
ATOM      9  C   UNL     1     -34.472  44.556  -6.453  0.00  0.00    +0.000 A 
ATOM     10  C   UNL     1     -34.745  43.177  -6.120  0.00  0.00    +0.000 A 
ATOM     11  C   UNL     1     -34.052  42.229  -5.115  0.00  0.00    +0.000 A 
ATOM     12  C   UNL     1     -32.871  42.824  -4.325  0.00  0.00    +0.000 A 
ATOM     13  C   UNL     1     -32.497  44.290  -4.610  0.00  0.00    +0.000 A 
ATOM     14  C   UNL     1     -33.354  45.019  -5.668  0.00  0.00    +0.000 A 
ENDBRANCH   3   9
BRANCH   2  15
ATOM     15  O   UNL     1     -36.806  45.895  -5.350  0.00  0.00    +0.000 OA
ATOM     16  H   UNL     1     -37.046  44.949  -5.264  0.00  0.00    +0.000 HD
ENDBRANCH   2  15
TORSDOF 2
ENDMDL
MODEL 5
REMARK VINA RESULT:      -4.4     22.319     23.384
REMARK  Name = Ciclopirox.pdbqt.pdb
REMARK  2 active torsions:
REMARK  status: ('A' for Active; 'I' for Inactive)
REMARK    1  A    between atoms: N_2  and  O_15
REMARK    2  A    between atoms: C_3  and  C_9
REMARK                            x       y       z     vdW  Elec       q    Type
REMARK                         _______ _______ _______ _____ _____    ______ ____
ROOT
ATOM      1  O   UNL     1     -14.180  52.454   1.061  0.00  0.00    +0.000 OA
ATOM      2  N   UNL     1     -15.109  50.483   1.922  0.00  0.00    +0.000 N 
ATOM      3  C   UNL     1     -16.163  49.867   2.611  0.00  0.00    +0.000 C 
ATOM      4  C   UNL     1     -17.051  50.746   3.002  0.00  0.00    +0.000 C 
ATOM      5  C   UNL     1     -17.228  52.159   2.935  0.00  0.00    +0.000 C 
ATOM      6  C   UNL     1     -15.050  51.870   1.693  0.00  0.00    +0.000 C 
ATOM      7  C   UNL     1     -16.180  52.554   2.275  0.00  0.00    +0.000 C 
ATOM      8  C   UNL     1     -17.726  52.916   4.120  0.00  0.00    +0.000 C 
ENDROOT
BRANCH   3   9
ATOM      9  C   UNL     1     -16.276  48.458   2.850  0.00  0.00    +0.000 A 
ATOM     10  C   UNL     1     -16.812  47.518   1.892  0.00  0.00    +0.000 A 
ATOM     11  C   UNL     1     -17.238  46.042   2.063  0.00  0.00    +0.000 A 
ATOM     12  C   UNL     1     -17.074  45.447   3.475  0.00  0.00    +0.000 A 
ATOM     13  C   UNL     1     -16.508  46.370   4.569  0.00  0.00    +0.000 A 
ATOM     14  C   UNL     1     -16.158  47.811   4.133  0.00  0.00    +0.000 A 
ENDBRANCH   3   9
BRANCH   2  15
ATOM     15  O   UNL     1     -14.105  49.679   1.348  0.00  0.00    +0.000 OA
ATOM     16  H   UNL     1     -14.519  49.388   0.510  0.00  0.00    +0.000 HD
ENDBRANCH   2  15
TORSDOF 2
ENDMDL
MODEL 6
REMARK VINA RESULT:      -4.3     16.902     17.902
REMARK  Name = Ciclopirox.pdbqt.pdb
REMARK  2 active torsions:
REMARK  status: ('A' for Active; 'I' for Inactive)
REMARK    1  A    between atoms: N_2  and  O_15
REMARK    2  A    between atoms: C_3  and  C_9
REMARK                            x       y       z     vdW  Elec       q    Type
REMARK                         _______ _______ _______ _____ _____    ______ ____
ROOT
ATOM      1  O   UNL     1     -28.272  48.450   8.688  0.00  0.00    +0.000 OA
ATOM      2  N   UNL     1     -30.569  48.719   8.323  0.00  0.00    +0.000 N 
ATOM      3  C   UNL     1     -31.594  49.365   7.617  0.00  0.00    +0.000 C 
ATOM      4  C   UNL     1     -31.110  50.256   6.788  0.00  0.00    +0.000 C 
ATOM      5  C   UNL     1     -29.827  50.759   6.423  0.00  0.00    +0.000 C 
ATOM      6  C   UNL     1     -29.206  49.012   8.135  0.00  0.00    +0.000 C 
ATOM      7  C   UNL     1     -29.017  50.060   7.160  0.00  0.00    +0.000 C 
ATOM      8  C   UNL     1     -29.620  52.224   6.221  0.00  0.00    +0.000 C 
ENDROOT
BRANCH   3   9
ATOM      9  C   UNL     1     -32.993  49.086   7.761  0.00  0.00    +0.000 A 
ATOM     10  C   UNL     1     -33.625  47.871   7.301  0.00  0.00    +0.000 A 
ATOM     11  C   UNL     1     -35.120  47.514   7.142  0.00  0.00    +0.000 A 
ATOM     12  C   UNL     1     -36.126  48.613   7.532  0.00  0.00    +0.000 A 
ATOM     13  C   UNL     1     -35.552  49.949   8.038  0.00  0.00    +0.000 A 
ATOM     14  C   UNL     1     -34.011  50.048   8.103  0.00  0.00    +0.000 A 
ENDBRANCH   3   9
BRANCH   2  15
ATOM     15  O   UNL     1     -30.900  47.664   9.196  0.00  0.00    +0.000 OA
ATOM     16  H   UNL     1     -31.809  47.898   9.476  0.00  0.00    +0.000 HD
ENDBRANCH   2  15
TORSDOF 2
ENDMDL
MODEL 7
REMARK VINA RESULT:      -4.3      3.497      5.075
REMARK  Name = Ciclopirox.pdbqt.pdb
REMARK  2 active torsions:
REMARK  status: ('A' for Active; 'I' for Inactive)
REMARK    1  A    between atoms: N_2  and  O_15
REMARK    2  A    between atoms: C_3  and  C_9
REMARK                            x       y       z     vdW  Elec       q    Type
REMARK                         _______ _______ _______ _____ _____    ______ ____
ROOT
ATOM      1  O   UNL     1     -34.765  44.109  -9.987  0.00  0.00    +0.000 OA
ATOM      2  N   UNL     1     -34.153  43.786  -7.749  0.00  0.00    +0.000 N 
ATOM      3  C   UNL     1     -33.675  44.342  -6.554  0.00  0.00    +0.000 C 
ATOM      4  C   UNL     1     -33.402  45.614  -6.700  0.00  0.00    +0.000 C 
ATOM      5  C   UNL     1     -33.440  46.581  -7.747  0.00  0.00    +0.000 C 
ATOM      6  C   UNL     1     -34.311  44.530  -8.932  0.00  0.00    +0.000 C 
ATOM      7  C   UNL     1     -33.899  45.903  -8.756  0.00  0.00    +0.000 C 
ATOM      8  C   UNL     1     -32.324  47.558  -7.915  0.00  0.00    +0.000 C 
ENDROOT
BRANCH   3   9
ATOM      9  C   UNL     1     -33.517  43.628  -5.321  0.00  0.00    +0.000 A 
ATOM     10  C   UNL     1     -34.509  42.731  -4.776  0.00  0.00    +0.000 A 
ATOM     11  C   UNL     1     -34.621  42.089  -3.373  0.00  0.00    +0.000 A 
ATOM     12  C   UNL     1     -33.505  42.446  -2.373  0.00  0.00    +0.000 A 
ATOM     13  C   UNL     1     -32.396  43.396  -2.860  0.00  0.00    +0.000 A 
ATOM     14  C   UNL     1     -32.519  43.898  -4.316  0.00  0.00    +0.000 A 
ENDBRANCH   3   9
BRANCH   2  15
ATOM     15  O   UNL     1     -34.584  42.445  -7.755  0.00  0.00    +0.000 OA
ATOM     16  H   UNL     1     -34.674  42.247  -6.800  0.00  0.00    +0.000 HD
ENDBRANCH   2  15
TORSDOF 2
ENDMDL
MODEL 8
REMARK VINA RESULT:      -4.2     26.467     27.423
REMARK  Name = Ciclopirox.pdbqt.pdb
REMARK  2 active torsions:
REMARK  status: ('A' for Active; 'I' for Inactive)
REMARK    1  A    between atoms: N_2  and  O_15
REMARK    2  A    between atoms: C_3  and  C_9
REMARK                            x       y       z     vdW  Elec       q    Type
REMARK                         _______ _______ _______ _____ _____    ______ ____
ROOT
ATOM      1  O   UNL     1     -16.049  59.725 -25.276  0.00  0.00    +0.000 OA
ATOM      2  N   UNL     1     -16.361  57.451 -25.741  0.00  0.00    +0.000 N 
ATOM      3  C   UNL     1     -16.722  56.180 -25.274  0.00  0.00    +0.000 C 
ATOM      4  C   UNL     1     -16.992  56.206 -23.992  0.00  0.00    +0.000 C 
ATOM      5  C   UNL     1     -17.000  57.170 -22.942  0.00  0.00    +0.000 C 
ATOM      6  C   UNL     1     -16.312  58.587 -24.914  0.00  0.00    +0.000 C 
ATOM      7  C   UNL     1     -16.649  58.265 -23.547  0.00  0.00    +0.000 C 
ATOM      8  C   UNL     1     -16.461  56.824 -21.594  0.00  0.00    +0.000 C 
ENDROOT
BRANCH   3   9
ATOM      9  C   UNL     1     -16.805  54.999 -26.083  0.00  0.00    +0.000 A 
ATOM     10  C   UNL     1     -17.819  54.782 -27.089  0.00  0.00    +0.000 A 
ATOM     11  C   UNL     1     -18.210  53.500 -27.860  0.00  0.00    +0.000 A 
ATOM     12  C   UNL     1     -17.405  52.231 -27.521  0.00  0.00    +0.000 A 
ATOM     13  C   UNL     1     -16.298  52.360 -26.459  0.00  0.00    +0.000 A 
ATOM     14  C   UNL     1     -16.108  53.762 -25.838  0.00  0.00    +0.000 A 
ENDBRANCH   3   9
BRANCH   2  15
ATOM     15  O   UNL     1     -16.123  57.631 -27.118  0.00  0.00    +0.000 OA
ATOM     16  H   UNL     1     -15.682  58.505 -27.145  0.00  0.00    +0.000 HD
ENDBRANCH   2  15
TORSDOF 2
ENDMDL
MODEL 9
REMARK VINA RESULT:      -4.2     17.435     18.756
REMARK  Name = Ciclopirox.pdbqt.pdb
REMARK  2 active torsions:
REMARK  status: ('A' for Active; 'I' for Inactive)
REMARK    1  A    between atoms: N_2  and  O_15
REMARK    2  A    between atoms: C_3  and  C_9
REMARK                            x       y       z     vdW  Elec       q    Type
REMARK                         _______ _______ _______ _____ _____    ______ ____
ROOT
ATOM      1  O   UNL     1     -30.907  65.287  -9.290  0.00  0.00    +0.000 OA
ATOM      2  N   UNL     1     -32.999  64.688 -10.153  0.00  0.00    +0.000 N 
ATOM      3  C   UNL     1     -33.811  64.499 -11.281  0.00  0.00    +0.000 C 
ATOM      4  C   UNL     1     -33.173  64.809 -12.382  0.00  0.00    +0.000 C 
ATOM      5  C   UNL     1     -31.886  65.303 -12.743  0.00  0.00    +0.000 C 
ATOM      6  C   UNL     1     -31.672  65.147 -10.233  0.00  0.00    +0.000 C 
ATOM      7  C   UNL     1     -31.282  65.416 -11.597  0.00  0.00    +0.000 C 
ATOM      8  C   UNL     1     -31.747  66.352 -13.795  0.00  0.00    +0.000 C 
ENDROOT
BRANCH   3   9
ATOM      9  C   UNL     1     -35.160  64.014 -11.250  0.00  0.00    +0.000 A 
ATOM     10  C   UNL     1     -36.322  64.869 -11.163  0.00  0.00    +0.000 A 
ATOM     11  C   UNL     1     -37.801  64.527 -10.869  0.00  0.00    +0.000 A 
ATOM     12  C   UNL     1     -38.118  63.040 -10.625  0.00  0.00    +0.000 A 
ATOM     13  C   UNL     1     -36.945  62.046 -10.699  0.00  0.00    +0.000 A 
ATOM     14  C   UNL     1     -35.558  62.649 -11.012  0.00  0.00    +0.000 A 
ENDBRANCH   3   9
BRANCH   2  15
ATOM     15  O   UNL     1     -33.492  64.318  -8.887  0.00  0.00    +0.000 OA
ATOM     16  H   UNL     1     -33.122  63.419  -8.769  0.00  0.00    +0.000 HD
ENDBRANCH   2  15
TORSDOF 2
ENDMDL
