MODEL 1
REMARK VINA RESULT:      -6.6      0.000      0.000
REMARK  Name = 
REMARK  5 active torsions:
REMARK  status: ('A' for Active; 'I' for Inactive)
REMARK    1  A    between atoms: O_5  and  C_10
REMARK    2  A    between atoms: N_9  and  C_20
REMARK    3  A    between atoms: N_9  and  C_25
REMARK    4  A    between atoms: C_10  and  C_11
REMARK    5  A    between atoms: C_18  and  C_19
REMARK                            x       y       z     vdW  Elec       q    Type
REMARK                         _______ _______ _______ _____ _____    ______ ____
ROOT
ATOM      1  F   UNL     1     -30.643  45.081 -14.854  0.00  0.00    +0.000 F 
ATOM      2  F   UNL     1     -29.903  44.078 -17.249  0.00  0.00    +0.000 F 
ATOM      3  C   UNL     1     -33.533  45.962 -16.883  0.00  0.00    +0.000 A 
ATOM      4  C   UNL     1     -32.714  45.860 -15.736  0.00  0.00    +0.000 A 
ATOM      5  C   UNL     1     -33.134  45.450 -18.130  0.00  0.00    +0.000 A 
ATOM      6  C   UNL     1     -31.485  45.204 -15.892  0.00  0.00    +0.000 A 
ATOM      7  C   UNL     1     -31.902  44.813 -18.249  0.00  0.00    +0.000 A 
ATOM      8  C   UNL     1     -31.087  44.695 -17.129  0.00  0.00    +0.000 A 
ENDROOT
BRANCH   3  14
ATOM      9  O   UNL     1     -35.860  45.906 -16.712  0.00  0.00    +0.000 OA
ATOM     10  N   UNL     1     -34.880  47.987 -16.798  0.00  0.00    +0.000 N 
ATOM     11  C   UNL     1     -35.264  49.482 -18.203  0.00  0.00    +0.000 C 
ATOM     12  C   UNL     1     -33.993  48.889 -17.530  0.00  0.00    +0.000 C 
ATOM     13  C   UNL     1     -36.063  48.808 -17.048  0.00  0.00    +0.000 C 
ATOM     14  C   UNL     1     -34.858  46.610 -16.771  0.00  0.00    +0.000 C 
BRANCH  11  16
ATOM     15  N   UNL     1     -36.192  50.013 -20.441  0.00  0.00    +0.000 NA
ATOM     16  C   UNL     1     -35.650  48.917 -19.596  0.00  0.00    +0.000 C 
ATOM     17  C   UNL     1     -34.439  48.284 -20.305  0.00  0.00    +0.000 C 
ATOM     18  C   UNL     1     -34.828  47.757 -21.687  0.00  0.00    +0.000 C 
ATOM     19  C   UNL     1     -36.677  49.470 -21.718  0.00  0.00    +0.000 C 
ATOM     20  C   UNL     1     -35.539  48.826 -22.508  0.00  0.00    +0.000 C 
ATOM     21  H   UNL     1     -35.421  50.649 -20.661  0.00  0.00    +0.000 HD
ENDBRANCH  11  16
BRANCH  11  22
ATOM     22  O   UNL     1     -35.327  50.938 -18.218  0.00  0.00    +0.000 OA
ATOM     23  H   UNL     1     -34.477  51.190 -18.626  0.00  0.00    +0.000 HD
ENDBRANCH  11  22
ENDBRANCH   3  14
BRANCH   4  24
ATOM     24  N   UNL     1     -33.184  46.333 -14.492  0.00  0.00    +0.000 N 
ATOM     25  H   UNL     1     -33.218  47.356 -14.428  0.00  0.00    +0.000 HD
BRANCH  24  28
ATOM     26  I   UNL     1     -36.206  43.663  -9.649  0.00  0.00    +0.000 I 
ATOM     27  F   UNL     1     -35.568  47.293 -13.544  0.00  0.00    +0.000 F 
ATOM     28  C   UNL     1     -33.822  45.693 -13.412  0.00  0.00    +0.000 A 
ATOM     29  C   UNL     1     -35.038  46.218 -12.937  0.00  0.00    +0.000 A 
ATOM     30  C   UNL     1     -33.305  44.573 -12.755  0.00  0.00    +0.000 A 
ATOM     31  C   UNL     1     -35.727  45.655 -11.867  0.00  0.00    +0.000 A 
ATOM     32  C   UNL     1     -33.986  43.994 -11.675  0.00  0.00    +0.000 A 
ATOM     33  C   UNL     1     -35.195  44.535 -11.239  0.00  0.00    +0.000 A 
ENDBRANCH  24  28
ENDBRANCH   4  24
TORSDOF 5
ENDMDL
MODEL 2
REMARK VINA RESULT:      -6.5      5.725     10.986
REMARK  Name = 
REMARK  5 active torsions:
REMARK  status: ('A' for Active; 'I' for Inactive)
REMARK    1  A    between atoms: O_5  and  C_10
REMARK    2  A    between atoms: N_9  and  C_20
REMARK    3  A    between atoms: N_9  and  C_25
REMARK    4  A    between atoms: C_10  and  C_11
REMARK    5  A    between atoms: C_18  and  C_19
REMARK                            x       y       z     vdW  Elec       q    Type
REMARK                         _______ _______ _______ _____ _____    ______ ____
ROOT
ATOM      1  F   UNL     1     -36.624  43.593 -12.335  0.00  0.00    +0.000 F 
ATOM      2  F   UNL     1     -37.698  41.443 -11.107  0.00  0.00    +0.000 F 
ATOM      3  C   UNL     1     -34.607  43.461  -9.309  0.00  0.00    +0.000 A 
ATOM      4  C   UNL     1     -35.068  43.923 -10.562  0.00  0.00    +0.000 A 
ATOM      5  C   UNL     1     -35.181  42.349  -8.669  0.00  0.00    +0.000 A 
ATOM      6  C   UNL     1     -36.119  43.208 -11.154  0.00  0.00    +0.000 A 
ATOM      7  C   UNL     1     -36.229  41.669  -9.283  0.00  0.00    +0.000 A 
ATOM      8  C   UNL     1     -36.690  42.104 -10.519  0.00  0.00    +0.000 A 
ENDROOT
BRANCH   3  14
ATOM      9  O   UNL     1     -32.333  43.775  -8.888  0.00  0.00    +0.000 OA
ATOM     10  N   UNL     1     -33.792  45.158  -7.767  0.00  0.00    +0.000 N 
ATOM     11  C   UNL     1     -33.955  45.374  -5.698  0.00  0.00    +0.000 C 
ATOM     12  C   UNL     1     -34.953  45.249  -6.884  0.00  0.00    +0.000 C 
ATOM     13  C   UNL     1     -32.883  45.724  -6.773  0.00  0.00    +0.000 C 
ATOM     14  C   UNL     1     -33.476  44.153  -8.654  0.00  0.00    +0.000 C 
BRANCH  11  16
ATOM     15  N   UNL     1     -33.272  44.406  -3.519  0.00  0.00    +0.000 NA
ATOM     16  C   UNL     1     -33.615  44.072  -4.925  0.00  0.00    +0.000 C 
ATOM     17  C   UNL     1     -34.794  43.083  -4.937  0.00  0.00    +0.000 C 
ATOM     18  C   UNL     1     -34.454  41.816  -4.150  0.00  0.00    +0.000 C 
ATOM     19  C   UNL     1     -32.827  43.199  -2.809  0.00  0.00    +0.000 C 
ATOM     20  C   UNL     1     -33.938  42.152  -2.755  0.00  0.00    +0.000 C 
ATOM     21  H   UNL     1     -34.126  44.726  -3.056  0.00  0.00    +0.000 HD
ENDBRANCH  11  16
BRANCH  11  22
ATOM     22  O   UNL     1     -34.250  46.450  -4.760  0.00  0.00    +0.000 OA
ATOM     23  H   UNL     1     -33.545  47.100  -4.942  0.00  0.00    +0.000 HD
ENDBRANCH  11  22
ENDBRANCH   3  14
BRANCH   4  24
ATOM     24  N   UNL     1     -34.420  45.005 -11.196  0.00  0.00    +0.000 N 
ATOM     25  H   UNL     1     -33.941  45.636 -10.543  0.00  0.00    +0.000 HD
BRANCH  24  28
ATOM     26  I   UNL     1     -33.219  46.331 -17.238  0.00  0.00    +0.000 I 
ATOM     27  F   UNL     1     -35.766  46.961 -12.562  0.00  0.00    +0.000 F 
ATOM     28  C   UNL     1     -34.106  45.267 -12.543  0.00  0.00    +0.000 A 
ATOM     29  C   UNL     1     -34.825  46.267 -13.223  0.00  0.00    +0.000 A 
ATOM     30  C   UNL     1     -33.134  44.570 -13.266  0.00  0.00    +0.000 A 
ATOM     31  C   UNL     1     -34.587  46.580 -14.559  0.00  0.00    +0.000 A 
ATOM     32  C   UNL     1     -32.882  44.872 -14.611  0.00  0.00    +0.000 A 
ATOM     33  C   UNL     1     -33.608  45.877 -15.250  0.00  0.00    +0.000 A 
ENDBRANCH  24  28
ENDBRANCH   4  24
TORSDOF 5
ENDMDL
MODEL 3
REMARK VINA RESULT:      -6.0      4.398      8.430
REMARK  Name = 
REMARK  5 active torsions:
REMARK  status: ('A' for Active; 'I' for Inactive)
REMARK    1  A    between atoms: O_5  and  C_10
REMARK    2  A    between atoms: N_9  and  C_20
REMARK    3  A    between atoms: N_9  and  C_25
REMARK    4  A    between atoms: C_10  and  C_11
REMARK    5  A    between atoms: C_18  and  C_19
REMARK                            x       y       z     vdW  Elec       q    Type
REMARK                         _______ _______ _______ _____ _____    ______ ____
ROOT
ATOM      1  F   UNL     1     -34.422  46.976 -16.868  0.00  0.00    +0.000 F 
ATOM      2  F   UNL     1     -35.492  49.115 -15.616  0.00  0.00    +0.000 F 
ATOM      3  C   UNL     1     -35.322  45.507 -13.662  0.00  0.00    +0.000 A 
ATOM      4  C   UNL     1     -34.816  45.579 -14.979  0.00  0.00    +0.000 A 
ATOM      5  C   UNL     1     -35.864  46.629 -13.012  0.00  0.00    +0.000 A 
ATOM      6  C   UNL     1     -34.896  46.822 -15.622  0.00  0.00    +0.000 A 
ATOM      7  C   UNL     1     -35.919  47.850 -13.678  0.00  0.00    +0.000 A 
ATOM      8  C   UNL     1     -35.434  47.937 -14.978  0.00  0.00    +0.000 A 
ENDROOT
BRANCH   3  14
ATOM      9  O   UNL     1     -36.291  43.494 -12.986  0.00  0.00    +0.000 OA
ATOM     10  N   UNL     1     -34.161  43.922 -12.226  0.00  0.00    +0.000 N 
ATOM     11  C   UNL     1     -33.550  44.015 -10.233  0.00  0.00    +0.000 C 
ATOM     12  C   UNL     1     -33.280  44.849 -11.517  0.00  0.00    +0.000 C 
ATOM     13  C   UNL     1     -34.056  42.895 -11.191  0.00  0.00    +0.000 C 
ATOM     14  C   UNL     1     -35.298  44.213 -12.947  0.00  0.00    +0.000 C 
BRANCH  11  16
ATOM     15  N   UNL     1     -34.593  43.791  -7.994  0.00  0.00    +0.000 NA
ATOM     16  C   UNL     1     -34.664  44.527  -9.282  0.00  0.00    +0.000 C 
ATOM     17  C   UNL     1     -34.526  46.036  -9.010  0.00  0.00    +0.000 C 
ATOM     18  C   UNL     1     -35.614  46.522  -8.052  0.00  0.00    +0.000 C 
ATOM     19  C   UNL     1     -35.718  44.177  -7.131  0.00  0.00    +0.000 C 
ATOM     20  C   UNL     1     -35.664  45.666  -6.791  0.00  0.00    +0.000 C 
ATOM     21  H   UNL     1     -33.737  44.081  -7.514  0.00  0.00    +0.000 HD
ENDBRANCH  11  16
BRANCH  11  22
ATOM     22  O   UNL     1     -32.359  43.667  -9.467  0.00  0.00    +0.000 OA
ATOM     23  H   UNL     1     -32.713  43.509  -8.571  0.00  0.00    +0.000 HD
ENDBRANCH  11  22
ENDBRANCH   3  14
BRANCH   4  24
ATOM     24  N   UNL     1     -34.338  44.412 -15.615  0.00  0.00    +0.000 N 
ATOM     25  H   UNL     1     -35.042  43.946 -16.198  0.00  0.00    +0.000 HD
BRANCH  24  28
ATOM     26  I   UNL     1     -28.614  41.862 -16.270  0.00  0.00    +0.000 I 
ATOM     27  F   UNL     1     -33.792  41.830 -14.881  0.00  0.00    +0.000 F 
ATOM     28  C   UNL     1     -33.044  43.888 -15.791  0.00  0.00    +0.000 A 
ATOM     29  C   UNL     1     -32.789  42.564 -15.390  0.00  0.00    +0.000 A 
ATOM     30  C   UNL     1     -31.974  44.617 -16.318  0.00  0.00    +0.000 A 
ATOM     31  C   UNL     1     -31.535  41.973 -15.517  0.00  0.00    +0.000 A 
ATOM     32  C   UNL     1     -30.705  44.038 -16.452  0.00  0.00    +0.000 A 
ATOM     33  C   UNL     1     -30.492  42.719 -16.054  0.00  0.00    +0.000 A 
ENDBRANCH  24  28
ENDBRANCH   4  24
TORSDOF 5
ENDMDL
MODEL 4
REMARK VINA RESULT:      -5.9      5.775      9.513
REMARK  Name = 
REMARK  5 active torsions:
REMARK  status: ('A' for Active; 'I' for Inactive)
REMARK    1  A    between atoms: O_5  and  C_10
REMARK    2  A    between atoms: N_9  and  C_20
REMARK    3  A    between atoms: N_9  and  C_25
REMARK    4  A    between atoms: C_10  and  C_11
REMARK    5  A    between atoms: C_18  and  C_19
REMARK                            x       y       z     vdW  Elec       q    Type
REMARK                         _______ _______ _______ _____ _____    ______ ____
ROOT
ATOM      1  F   UNL     1     -36.168  47.140 -12.689  0.00  0.00    +0.000 F 
ATOM      2  F   UNL     1     -34.074  47.087 -14.391  0.00  0.00    +0.000 F 
ATOM      3  C   UNL     1     -34.631  43.970 -11.776  0.00  0.00    +0.000 A 
ATOM      4  C   UNL     1     -35.552  45.041 -11.746  0.00  0.00    +0.000 A 
ATOM      5  C   UNL     1     -33.552  43.943 -12.676  0.00  0.00    +0.000 A 
ATOM      6  C   UNL     1     -35.329  46.094 -12.645  0.00  0.00    +0.000 A 
ATOM      7  C   UNL     1     -33.368  45.001 -13.561  0.00  0.00    +0.000 A 
ATOM      8  C   UNL     1     -34.258  46.068 -13.539  0.00  0.00    +0.000 A 
ENDROOT
BRANCH   3  14
ATOM      9  O   UNL     1     -35.687  42.031 -11.020  0.00  0.00    +0.000 OA
ATOM     10  N   UNL     1     -33.950  42.830  -9.737  0.00  0.00    +0.000 N 
ATOM     11  C   UNL     1     -34.042  43.372  -7.724  0.00  0.00    +0.000 C 
ATOM     12  C   UNL     1     -33.395  43.968  -9.007  0.00  0.00    +0.000 C 
ATOM     13  C   UNL     1     -34.154  42.040  -8.524  0.00  0.00    +0.000 C 
ATOM     14  C   UNL     1     -34.794  42.849 -10.825  0.00  0.00    +0.000 C 
BRANCH  11  16
ATOM     15  N   UNL     1     -36.280  42.823  -6.807  0.00  0.00    +0.000 NA
ATOM     16  C   UNL     1     -35.429  43.932  -7.311  0.00  0.00    +0.000 C 
ATOM     17  C   UNL     1     -35.301  45.008  -6.218  0.00  0.00    +0.000 C 
ATOM     18  C   UNL     1     -36.677  45.532  -5.802  0.00  0.00    +0.000 C 
ATOM     19  C   UNL     1     -37.636  43.317  -6.529  0.00  0.00    +0.000 C 
ATOM     20  C   UNL     1     -37.619  44.389  -5.441  0.00  0.00    +0.000 C 
ATOM     21  H   UNL     1     -35.889  42.509  -5.915  0.00  0.00    +0.000 HD
ENDBRANCH  11  16
BRANCH  11  22
ATOM     22  O   UNL     1     -33.160  43.312  -6.564  0.00  0.00    +0.000 OA
ATOM     23  H   UNL     1     -33.644  42.729  -5.950  0.00  0.00    +0.000 HD
ENDBRANCH  11  22
ENDBRANCH   3  14
BRANCH   4  24
ATOM     24  N   UNL     1     -36.584  45.056 -10.783  0.00  0.00    +0.000 N 
ATOM     25  H   UNL     1     -36.768  44.136 -10.365  0.00  0.00    +0.000 HD
BRANCH  24  28
ATOM     26  I   UNL     1     -39.358  49.786  -7.678  0.00  0.00    +0.000 I 
ATOM     27  F   UNL     1     -35.200  46.710  -9.094  0.00  0.00    +0.000 F 
ATOM     28  C   UNL     1     -37.250  46.104 -10.120  0.00  0.00    +0.000 A 
ATOM     29  C   UNL     1     -36.517  46.927  -9.247  0.00  0.00    +0.000 A 
ATOM     30  C   UNL     1     -38.617  46.364 -10.253  0.00  0.00    +0.000 A 
ATOM     31  C   UNL     1     -37.101  47.977  -8.543  0.00  0.00    +0.000 A 
ATOM     32  C   UNL     1     -39.221  47.417  -9.551  0.00  0.00    +0.000 A 
ATOM     33  C   UNL     1     -38.460  48.219  -8.702  0.00  0.00    +0.000 A 
ENDBRANCH  24  28
ENDBRANCH   4  24
TORSDOF 5
ENDMDL
MODEL 5
REMARK VINA RESULT:      -5.9      5.300      9.124
REMARK  Name = 
REMARK  5 active torsions:
REMARK  status: ('A' for Active; 'I' for Inactive)
REMARK    1  A    between atoms: O_5  and  C_10
REMARK    2  A    between atoms: N_9  and  C_20
REMARK    3  A    between atoms: N_9  and  C_25
REMARK    4  A    between atoms: C_10  and  C_11
REMARK    5  A    between atoms: C_18  and  C_19
REMARK                            x       y       z     vdW  Elec       q    Type
REMARK                         _______ _______ _______ _____ _____    ______ ____
ROOT
ATOM      1  F   UNL     1     -36.838  51.083 -24.103  0.00  0.00    +0.000 F 
ATOM      2  F   UNL     1     -34.536  49.727 -24.491  0.00  0.00    +0.000 F 
ATOM      3  C   UNL     1     -36.036  50.113 -20.688  0.00  0.00    +0.000 A 
ATOM      4  C   UNL     1     -36.752  50.705 -21.753  0.00  0.00    +0.000 A 
ATOM      5  C   UNL     1     -34.846  49.396 -20.900  0.00  0.00    +0.000 A 
ATOM      6  C   UNL     1     -36.209  50.564 -23.037  0.00  0.00    +0.000 A 
ATOM      7  C   UNL     1     -34.342  49.268 -22.192  0.00  0.00    +0.000 A 
ATOM      8  C   UNL     1     -35.028  49.852 -23.250  0.00  0.00    +0.000 A 
ENDROOT
BRANCH   3  14
ATOM      9  O   UNL     1     -36.246  51.271 -18.672  0.00  0.00    +0.000 OA
ATOM     10  N   UNL     1     -37.271  49.213 -18.795  0.00  0.00    +0.000 N 
ATOM     11  C   UNL     1     -36.932  47.581 -17.540  0.00  0.00    +0.000 C 
ATOM     12  C   UNL     1     -37.116  47.786 -19.071  0.00  0.00    +0.000 C 
ATOM     13  C   UNL     1     -37.562  48.996 -17.379  0.00  0.00    +0.000 C 
ATOM     14  C   UNL     1     -36.540  50.262 -19.305  0.00  0.00    +0.000 C 
BRANCH  11  16
ATOM     15  N   UNL     1     -35.460  46.862 -15.677  0.00  0.00    +0.000 NA
ATOM     16  C   UNL     1     -35.474  47.519 -17.010  0.00  0.00    +0.000 C 
ATOM     17  C   UNL     1     -34.557  46.739 -17.968  0.00  0.00    +0.000 C 
ATOM     18  C   UNL     1     -33.131  46.663 -17.420  0.00  0.00    +0.000 C 
ATOM     19  C   UNL     1     -34.106  46.908 -15.108  0.00  0.00    +0.000 C 
ATOM     20  C   UNL     1     -33.115  46.146 -15.986  0.00  0.00    +0.000 C 
ATOM     21  H   UNL     1     -35.693  45.875 -15.812  0.00  0.00    +0.000 HD
ENDBRANCH  11  16
BRANCH  11  22
ATOM     22  O   UNL     1     -37.719  46.496 -16.968  0.00  0.00    +0.000 OA
ATOM     23  H   UNL     1     -38.360  46.293 -17.675  0.00  0.00    +0.000 HD
ENDBRANCH  11  22
ENDBRANCH   3  14
BRANCH   4  24
ATOM     24  N   UNL     1     -37.908  51.470 -21.484  0.00  0.00    +0.000 N 
ATOM     25  H   UNL     1     -38.712  50.906 -21.184  0.00  0.00    +0.000 HD
BRANCH  24  28
ATOM     26  I   UNL     1     -38.986  57.611 -20.573  0.00  0.00    +0.000 I 
ATOM     27  F   UNL     1     -39.114  52.425 -19.218  0.00  0.00    +0.000 F 
ATOM     28  C   UNL     1     -38.117  52.852 -21.327  0.00  0.00    +0.000 A 
ATOM     29  C   UNL     1     -38.753  53.312 -20.159  0.00  0.00    +0.000 A 
ATOM     30  C   UNL     1     -37.756  53.808 -22.280  0.00  0.00    +0.000 A 
ATOM     31  C   UNL     1     -39.010  54.661 -19.930  0.00  0.00    +0.000 A 
ATOM     32  C   UNL     1     -38.007  55.170 -22.066  0.00  0.00    +0.000 A 
ATOM     33  C   UNL     1     -38.631  55.591 -20.892  0.00  0.00    +0.000 A 
ENDBRANCH  24  28
ENDBRANCH   4  24
TORSDOF 5
ENDMDL
MODEL 6
REMARK VINA RESULT:      -5.9     26.236     27.513
REMARK  Name = 
REMARK  5 active torsions:
REMARK  status: ('A' for Active; 'I' for Inactive)
REMARK    1  A    between atoms: O_5  and  C_10
REMARK    2  A    between atoms: N_9  and  C_20
REMARK    3  A    between atoms: N_9  and  C_25
REMARK    4  A    between atoms: C_10  and  C_11
REMARK    5  A    between atoms: C_18  and  C_19
REMARK                            x       y       z     vdW  Elec       q    Type
REMARK                         _______ _______ _______ _____ _____    ______ ____
ROOT
ATOM      1  F   UNL     1     -13.492  47.864   1.396  0.00  0.00    +0.000 F 
ATOM      2  F   UNL     1     -11.726  49.772   0.667  0.00  0.00    +0.000 F 
ATOM      3  C   UNL     1     -15.452  50.870   1.998  0.00  0.00    +0.000 A 
ATOM      4  C   UNL     1     -15.143  49.493   1.936  0.00  0.00    +0.000 A 
ATOM      5  C   UNL     1     -14.523  51.858   1.630  0.00  0.00    +0.000 A 
ATOM      6  C   UNL     1     -13.867  49.150   1.469  0.00  0.00    +0.000 A 
ATOM      7  C   UNL     1     -13.260  51.481   1.180  0.00  0.00    +0.000 A 
ATOM      8  C   UNL     1     -12.942  50.130   1.104  0.00  0.00    +0.000 A 
ENDROOT
BRANCH   3  14
ATOM      9  O   UNL     1     -17.711  51.327   1.629  0.00  0.00    +0.000 OA
ATOM     10  N   UNL     1     -16.921  51.674   3.763  0.00  0.00    +0.000 N 
ATOM     11  C   UNL     1     -16.985  53.464   4.835  0.00  0.00    +0.000 C 
ATOM     12  C   UNL     1     -15.931  52.344   4.605  0.00  0.00    +0.000 C 
ATOM     13  C   UNL     1     -18.037  52.436   4.320  0.00  0.00    +0.000 C 
ATOM     14  C   UNL     1     -16.797  51.292   2.447  0.00  0.00    +0.000 C 
BRANCH  11  16
ATOM     15  N   UNL     1     -17.296  55.921   4.695  0.00  0.00    +0.000 NA
ATOM     16  C   UNL     1     -16.889  54.718   3.924  0.00  0.00    +0.000 C 
ATOM     17  C   UNL     1     -15.461  54.919   3.389  0.00  0.00    +0.000 C 
ATOM     18  C   UNL     1     -15.375  56.172   2.516  0.00  0.00    +0.000 C 
ATOM     19  C   UNL     1     -17.330  57.096   3.812  0.00  0.00    +0.000 C 
ATOM     20  C   UNL     1     -15.946  57.389   3.235  0.00  0.00    +0.000 C 
ATOM     21  H   UNL     1     -16.577  56.099   5.400  0.00  0.00    +0.000 HD
ENDBRANCH  11  16
BRANCH  11  22
ATOM     22  O   UNL     1     -17.158  53.867   6.225  0.00  0.00    +0.000 OA
ATOM     23  H   UNL     1     -18.110  53.718   6.380  0.00  0.00    +0.000 HD
ENDBRANCH  11  22
ENDBRANCH   3  14
BRANCH   4  24
ATOM     24  N   UNL     1     -16.130  48.535   2.255  0.00  0.00    +0.000 N 
ATOM     25  H   UNL     1     -16.729  48.283   1.460  0.00  0.00    +0.000 HD
BRANCH  24  28
ATOM     26  I   UNL     1     -17.051  44.604   7.092  0.00  0.00    +0.000 I 
ATOM     27  F   UNL     1     -16.849  45.916   1.897  0.00  0.00    +0.000 F 
ATOM     28  C   UNL     1     -16.315  47.697   3.370  0.00  0.00    +0.000 A 
ATOM     29  C   UNL     1     -16.699  46.360   3.156  0.00  0.00    +0.000 A 
ATOM     30  C   UNL     1     -16.167  48.119   4.694  0.00  0.00    +0.000 A 
ATOM     31  C   UNL     1     -16.915  45.469   4.203  0.00  0.00    +0.000 A 
ATOM     32  C   UNL     1     -16.381  47.234   5.760  0.00  0.00    +0.000 A 
ATOM     33  C   UNL     1     -16.751  45.913   5.510  0.00  0.00    +0.000 A 
ENDBRANCH  24  28
ENDBRANCH   4  24
TORSDOF 5
ENDMDL
MODEL 7
REMARK VINA RESULT:      -5.8     25.807     28.738
REMARK  Name = 
REMARK  5 active torsions:
REMARK  status: ('A' for Active; 'I' for Inactive)
REMARK    1  A    between atoms: O_5  and  C_10
REMARK    2  A    between atoms: N_9  and  C_20
REMARK    3  A    between atoms: N_9  and  C_25
REMARK    4  A    between atoms: C_10  and  C_11
REMARK    5  A    between atoms: C_18  and  C_19
REMARK                            x       y       z     vdW  Elec       q    Type
REMARK                         _______ _______ _______ _____ _____    ______ ____
ROOT
ATOM      1  F   UNL     1     -17.350  51.241   5.542  0.00  0.00    +0.000 F 
ATOM      2  F   UNL     1     -18.178  51.322   8.111  0.00  0.00    +0.000 F 
ATOM      3  C   UNL     1     -15.575  48.378   6.919  0.00  0.00    +0.000 A 
ATOM      4  C   UNL     1     -16.010  49.317   5.956  0.00  0.00    +0.000 A 
ATOM      5  C   UNL     1     -15.999  48.436   8.258  0.00  0.00    +0.000 A 
ATOM      6  C   UNL     1     -16.904  50.304   6.392  0.00  0.00    +0.000 A 
ATOM      7  C   UNL     1     -16.881  49.437   8.657  0.00  0.00    +0.000 A 
ATOM      8  C   UNL     1     -17.326  50.363   7.722  0.00  0.00    +0.000 A 
ENDROOT
BRANCH   3  14
ATOM      9  O   UNL     1     -13.485  47.560   6.280  0.00  0.00    +0.000 OA
ATOM     10  N   UNL     1     -15.212  46.039   6.356  0.00  0.00    +0.000 N 
ATOM     11  C   UNL     1     -15.887  44.849   4.780  0.00  0.00    +0.000 C 
ATOM     12  C   UNL     1     -16.557  45.696   5.899  0.00  0.00    +0.000 C 
ATOM     13  C   UNL     1     -14.591  44.924   5.642  0.00  0.00    +0.000 C 
ATOM     14  C   UNL     1     -14.660  47.291   6.509  0.00  0.00    +0.000 C 
BRANCH  11  16
ATOM     15  N   UNL     1     -15.195  44.533   2.419  0.00  0.00    +0.000 NA
ATOM     16  C   UNL     1     -15.714  45.526   3.394  0.00  0.00    +0.000 C 
ATOM     17  C   UNL     1     -17.046  46.097   2.874  0.00  0.00    +0.000 C 
ATOM     18  C   UNL     1     -16.866  46.737   1.497  0.00  0.00    +0.000 C 
ATOM     19  C   UNL     1     -14.909  45.189   1.136  0.00  0.00    +0.000 C 
ATOM     20  C   UNL     1     -16.179  45.783   0.527  0.00  0.00    +0.000 C 
ATOM     21  H   UNL     1     -15.936  43.849   2.245  0.00  0.00    +0.000 HD
ENDBRANCH  11  16
BRANCH  11  22
ATOM     22  O   UNL     1     -16.432  43.508   4.617  0.00  0.00    +0.000 OA
ATOM     23  H   UNL     1     -17.349  43.602   4.938  0.00  0.00    +0.000 HD
ENDBRANCH  11  22
ENDBRANCH   3  14
BRANCH   4  24
ATOM     24  N   UNL     1     -15.607  49.182   4.610  0.00  0.00    +0.000 N 
ATOM     25  H   UNL     1     -15.871  48.283   4.191  0.00  0.00    +0.000 HD
BRANCH  24  28
ATOM     26  I   UNL     1     -13.644  53.275   0.240  0.00  0.00    +0.000 I 
ATOM     27  F   UNL     1     -17.186  49.950   2.507  0.00  0.00    +0.000 F 
ATOM     28  C   UNL     1     -15.123  50.107   3.666  0.00  0.00    +0.000 A 
ATOM     29  C   UNL     1     -15.951  50.470   2.588  0.00  0.00    +0.000 A 
ATOM     30  C   UNL     1     -13.846  50.673   3.715  0.00  0.00    +0.000 A 
ATOM     31  C   UNL     1     -15.545  51.368   1.604  0.00  0.00    +0.000 A 
ATOM     32  C   UNL     1     -13.421  51.578   2.732  0.00  0.00    +0.000 A 
ATOM     33  C   UNL     1     -14.273  51.923   1.684  0.00  0.00    +0.000 A 
ENDBRANCH  24  28
ENDBRANCH   4  24
TORSDOF 5
ENDMDL
MODEL 8
REMARK VINA RESULT:      -5.6      7.488     10.917
REMARK  Name = 
REMARK  5 active torsions:
REMARK  status: ('A' for Active; 'I' for Inactive)
REMARK    1  A    between atoms: O_5  and  C_10
REMARK    2  A    between atoms: N_9  and  C_20
REMARK    3  A    between atoms: N_9  and  C_25
REMARK    4  A    between atoms: C_10  and  C_11
REMARK    5  A    between atoms: C_18  and  C_19
REMARK                            x       y       z     vdW  Elec       q    Type
REMARK                         _______ _______ _______ _____ _____    ______ ____
ROOT
ATOM      1  F   UNL     1     -38.217  43.907 -11.829  0.00  0.00    +0.000 F 
ATOM      2  F   UNL     1     -38.016  41.270 -11.285  0.00  0.00    +0.000 F 
ATOM      3  C   UNL     1     -35.294  43.882  -9.662  0.00  0.00    +0.000 A 
ATOM      4  C   UNL     1     -36.308  44.405 -10.495  0.00  0.00    +0.000 A 
ATOM      5  C   UNL     1     -35.205  42.510  -9.371  0.00  0.00    +0.000 A 
ATOM      6  C   UNL     1     -37.216  43.487 -11.041  0.00  0.00    +0.000 A 
ATOM      7  C   UNL     1     -36.130  41.629  -9.923  0.00  0.00    +0.000 A 
ATOM      8  C   UNL     1     -37.129  42.124 -10.753  0.00  0.00    +0.000 A 
ENDROOT
BRANCH   3  14
ATOM      9  O   UNL     1     -33.137  44.762  -9.519  0.00  0.00    +0.000 OA
ATOM     10  N   UNL     1     -34.697  45.605  -8.051  0.00  0.00    +0.000 N 
ATOM     11  C   UNL     1     -34.569  45.601  -5.968  0.00  0.00    +0.000 C 
ATOM     12  C   UNL     1     -35.682  45.308  -7.013  0.00  0.00    +0.000 C 
ATOM     13  C   UNL     1     -33.811  46.313  -7.128  0.00  0.00    +0.000 C 
ATOM     14  C   UNL     1     -34.285  44.798  -9.088  0.00  0.00    +0.000 C 
BRANCH  11  16
ATOM     15  N   UNL     1     -33.195  44.730  -4.095  0.00  0.00    +0.000 NA
ATOM     16  C   UNL     1     -33.788  44.380  -5.412  0.00  0.00    +0.000 C 
ATOM     17  C   UNL     1     -34.701  43.153  -5.246  0.00  0.00    +0.000 C 
ATOM     18  C   UNL     1     -33.924  41.967  -4.673  0.00  0.00    +0.000 C 
ATOM     19  C   UNL     1     -32.350  43.628  -3.615  0.00  0.00    +0.000 C 
ATOM     20  C   UNL     1     -33.171  42.357  -3.406  0.00  0.00    +0.000 C 
ATOM     21  H   UNL     1     -33.961  44.831  -3.424  0.00  0.00    +0.000 HD
ENDBRANCH  11  16
BRANCH  11  22
ATOM     22  O   UNL     1     -34.970  46.478  -4.875  0.00  0.00    +0.000 OA
ATOM     23  H   UNL     1     -35.670  47.026  -5.278  0.00  0.00    +0.000 HD
ENDBRANCH  11  22
ENDBRANCH   3  14
BRANCH   4  24
ATOM     24  N   UNL     1     -36.321  45.781 -10.810  0.00  0.00    +0.000 N 
ATOM     25  H   UNL     1     -35.589  46.057 -11.475  0.00  0.00    +0.000 HD
BRANCH  24  28
ATOM     26  I   UNL     1     -40.577  50.358 -10.013  0.00  0.00    +0.000 I 
ATOM     27  F   UNL     1     -37.899  46.687 -12.857  0.00  0.00    +0.000 F 
ATOM     28  C   UNL     1     -37.263  46.800 -10.576  0.00  0.00    +0.000 A 
ATOM     29  C   UNL     1     -38.048  47.256 -11.650  0.00  0.00    +0.000 A 
ATOM     30  C   UNL     1     -37.451  47.417  -9.336  0.00  0.00    +0.000 A 
ATOM     31  C   UNL     1     -38.993  48.268 -11.508  0.00  0.00    +0.000 A 
ATOM     32  C   UNL     1     -38.398  48.438  -9.175  0.00  0.00    +0.000 A 
ATOM     33  C   UNL     1     -39.166  48.857 -10.261  0.00  0.00    +0.000 A 
ENDBRANCH  24  28
ENDBRANCH   4  24
TORSDOF 5
ENDMDL
MODEL 9
REMARK VINA RESULT:      -5.6     25.786     28.038
REMARK  Name = 
REMARK  5 active torsions:
REMARK  status: ('A' for Active; 'I' for Inactive)
REMARK    1  A    between atoms: O_5  and  C_10
REMARK    2  A    between atoms: N_9  and  C_20
REMARK    3  A    between atoms: N_9  and  C_25
REMARK    4  A    between atoms: C_10  and  C_11
REMARK    5  A    between atoms: C_18  and  C_19
REMARK                            x       y       z     vdW  Elec       q    Type
REMARK                         _______ _______ _______ _____ _____    ______ ____
ROOT
ATOM      1  F   UNL     1     -16.659  51.376   1.778  0.00  0.00    +0.000 F 
ATOM      2  F   UNL     1     -18.133  52.357   3.816  0.00  0.00    +0.000 F 
ATOM      3  C   UNL     1     -15.582  49.212   4.498  0.00  0.00    +0.000 A 
ATOM      4  C   UNL     1     -15.656  49.741   3.190  0.00  0.00    +0.000 A 
ATOM      5  C   UNL     1     -16.341  49.738   5.557  0.00  0.00    +0.000 A 
ATOM      6  C   UNL     1     -16.542  50.808   2.988  0.00  0.00    +0.000 A 
ATOM      7  C   UNL     1     -17.204  50.805   5.321  0.00  0.00    +0.000 A 
ATOM      8  C   UNL     1     -17.298  51.332   4.038  0.00  0.00    +0.000 A 
ENDROOT
BRANCH   3  14
ATOM      9  O   UNL     1     -13.477  48.222   4.694  0.00  0.00    +0.000 OA
ATOM     10  N   UNL     1     -15.299  46.853   5.024  0.00  0.00    +0.000 N 
ATOM     11  C   UNL     1     -15.750  45.112   3.966  0.00  0.00    +0.000 C 
ATOM     12  C   UNL     1     -16.555  46.340   4.480  0.00  0.00    +0.000 C 
ATOM     13  C   UNL     1     -14.642  45.549   4.970  0.00  0.00    +0.000 C 
ATOM     14  C   UNL     1     -14.692  48.062   4.764  0.00  0.00    +0.000 C 
BRANCH  11  16
ATOM     15  N   UNL     1     -14.747  43.819   2.103  0.00  0.00    +0.000 NA
ATOM     16  C   UNL     1     -15.264  45.156   2.493  0.00  0.00    +0.000 C 
ATOM     17  C   UNL     1     -16.399  45.558   1.535  0.00  0.00    +0.000 C 
ATOM     18  C   UNL     1     -15.913  45.572   0.085  0.00  0.00    +0.000 C 
ATOM     19  C   UNL     1     -14.168  43.878   0.752  0.00  0.00    +0.000 C 
ATOM     20  C   UNL     1     -15.226  44.261  -0.282  0.00  0.00    +0.000 C 
ATOM     21  H   UNL     1     -15.541  43.176   2.058  0.00  0.00    +0.000 HD
ENDBRANCH  11  16
BRANCH  11  22
ATOM     22  O   UNL     1     -16.357  43.818   4.255  0.00  0.00    +0.000 OA
ATOM     23  H   UNL     1     -16.305  43.355   3.397  0.00  0.00    +0.000 HD
ENDBRANCH  11  22
ENDBRANCH   3  14
BRANCH   4  24
ATOM     24  N   UNL     1     -14.922  49.140   2.145  0.00  0.00    +0.000 N 
ATOM     25  H   UNL     1     -15.398  48.337   1.718  0.00  0.00    +0.000 HD
BRANCH  24  28
ATOM     26  I   UNL     1      -9.768  50.737  -1.110  0.00  0.00    +0.000 I 
ATOM     27  F   UNL     1     -13.397  47.292   0.817  0.00  0.00    +0.000 F 
ATOM     28  C   UNL     1     -13.785  49.551   1.425  0.00  0.00    +0.000 A 
ATOM     29  C   UNL     1     -13.012  48.578   0.766  0.00  0.00    +0.000 A 
ATOM     30  C   UNL     1     -13.352  50.878   1.344  0.00  0.00    +0.000 A 
ATOM     31  C   UNL     1     -11.866  48.897   0.043  0.00  0.00    +0.000 A 
ATOM     32  C   UNL     1     -12.200  51.217   0.621  0.00  0.00    +0.000 A 
ATOM     33  C   UNL     1     -11.464  50.226  -0.028  0.00  0.00    +0.000 A 
ENDBRANCH  24  28
ENDBRANCH   4  24
TORSDOF 5
ENDMDL
