MODEL 1
REMARK VINA RESULT:      -6.5      0.000      0.000
REMARK  Name = COUMESTROL.pdbqt.pdb
REMARK  2 active torsions:
REMARK  status: ('A' for Active; 'I' for Inactive)
REMARK    1  A    between atoms: C_16  and  O_19
REMARK    2  A    between atoms: C_18  and  O_21
REMARK                            x       y       z     vdW  Elec       q    Type
REMARK                         _______ _______ _______ _____ _____    ______ ____
ROOT
ATOM      1  O   UNL     1     -35.836  46.372  -7.528  0.00  0.00    +0.000 OA
ATOM      2  O   UNL     1     -35.046  45.670 -11.473  0.00  0.00    +0.000 OA
ATOM      3  O   UNL     1     -33.129  44.568 -10.802  0.00  0.00    +0.000 OA
ATOM      4  C   UNL     1     -34.502  45.484  -9.123  0.00  0.00    +0.000 A 
ATOM      5  C   UNL     1     -35.650  46.183  -8.852  0.00  0.00    +0.000 A 
ATOM      6  C   UNL     1     -33.912  45.206  -7.865  0.00  0.00    +0.000 A 
ATOM      7  C   UNL     1     -36.575  46.677  -9.827  0.00  0.00    +0.000 A 
ATOM      8  C   UNL     1     -34.769  45.772  -6.915  0.00  0.00    +0.000 A 
ATOM      9  C   UNL     1     -36.236  46.397 -11.159  0.00  0.00    +0.000 A 
ATOM     10  C   UNL     1     -34.139  45.188 -10.490  0.00  0.00    +0.000 A 
ATOM     11  C   UNL     1     -32.757  44.545  -7.418  0.00  0.00    +0.000 A 
ATOM     12  C   UNL     1     -37.735  47.385  -9.539  0.00  0.00    +0.000 A 
ATOM     13  C   UNL     1     -34.556  45.726  -5.538  0.00  0.00    +0.000 A 
ATOM     14  C   UNL     1     -37.038  46.813 -12.214  0.00  0.00    +0.000 A 
ATOM     15  C   UNL     1     -32.513  44.480  -6.043  0.00  0.00    +0.000 A 
ATOM     16  C   UNL     1     -33.397  45.059  -5.136  0.00  0.00    +0.000 A 
ATOM     17  C   UNL     1     -38.549  47.809 -10.589  0.00  0.00    +0.000 A 
ATOM     18  C   UNL     1     -38.196  47.520 -11.910  0.00  0.00    +0.000 A 
ENDROOT
BRANCH  16  19
ATOM     19  O   UNL     1     -33.095  44.958  -3.804  0.00  0.00    +0.000 OA
ATOM     20  H   UNL     1     -33.312  44.056  -3.508  0.00  0.00    +0.000 HD
ENDBRANCH  16  19
BRANCH  18  21
ATOM     21  O   UNL     1     -38.989  47.932 -12.943  0.00  0.00    +0.000 OA
ATOM     22  H   UNL     1     -38.416  48.214 -13.678  0.00  0.00    +0.000 HD
ENDBRANCH  18  21
TORSDOF 2
ENDMDL
MODEL 2
REMARK VINA RESULT:      -6.3      1.658      6.525
REMARK  Name = COUMESTROL.pdbqt.pdb
REMARK  2 active torsions:
REMARK  status: ('A' for Active; 'I' for Inactive)
REMARK    1  A    between atoms: C_16  and  O_19
REMARK    2  A    between atoms: C_18  and  O_21
REMARK                            x       y       z     vdW  Elec       q    Type
REMARK                         _______ _______ _______ _____ _____    ______ ____
ROOT
ATOM      1  O   UNL     1     -33.184  44.634 -10.129  0.00  0.00    +0.000 OA
ATOM      2  O   UNL     1     -35.797  46.412  -7.542  0.00  0.00    +0.000 OA
ATOM      3  O   UNL     1     -37.012  47.100  -9.383  0.00  0.00    +0.000 OA
ATOM      4  C   UNL     1     -35.061  45.843  -9.775  0.00  0.00    +0.000 A 
ATOM      5  C   UNL     1     -33.997  45.193  -9.207  0.00  0.00    +0.000 A 
ATOM      6  C   UNL     1     -34.909  45.682 -11.175  0.00  0.00    +0.000 A 
ATOM      7  C   UNL     1     -33.736  45.091  -7.802  0.00  0.00    +0.000 A 
ATOM      8  C   UNL     1     -33.740  44.933 -11.343  0.00  0.00    +0.000 A 
ATOM      9  C   UNL     1     -34.677  45.726  -6.979  0.00  0.00    +0.000 A 
ATOM     10  C   UNL     1     -36.039  46.502  -8.941  0.00  0.00    +0.000 A 
ATOM     11  C   UNL     1     -35.620  46.083 -12.318  0.00  0.00    +0.000 A 
ATOM     12  C   UNL     1     -32.653  44.428  -7.238  0.00  0.00    +0.000 A 
ATOM     13  C   UNL     1     -33.223  44.548 -12.579  0.00  0.00    +0.000 A 
ATOM     14  C   UNL     1     -34.557  45.712  -5.595  0.00  0.00    +0.000 A 
ATOM     15  C   UNL     1     -35.130  45.714 -13.574  0.00  0.00    +0.000 A 
ATOM     16  C   UNL     1     -33.960  44.966 -13.690  0.00  0.00    +0.000 A 
ATOM     17  C   UNL     1     -32.520  44.406  -5.850  0.00  0.00    +0.000 A 
ATOM     18  C   UNL     1     -33.467  45.045  -5.045  0.00  0.00    +0.000 A 
ENDROOT
BRANCH  16  19
ATOM     19  O   UNL     1     -33.538  44.640 -14.951  0.00  0.00    +0.000 OA
ATOM     20  H   UNL     1     -34.318  44.419 -15.488  0.00  0.00    +0.000 HD
ENDBRANCH  16  19
BRANCH  18  21
ATOM     21  O   UNL     1     -33.342  45.027  -3.685  0.00  0.00    +0.000 OA
ATOM     22  H   UNL     1     -32.693  44.344  -3.444  0.00  0.00    +0.000 HD
ENDBRANCH  18  21
TORSDOF 2
ENDMDL
MODEL 3
REMARK VINA RESULT:      -6.2      1.990      6.041
REMARK  Name = COUMESTROL.pdbqt.pdb
REMARK  2 active torsions:
REMARK  status: ('A' for Active; 'I' for Inactive)
REMARK    1  A    between atoms: C_16  and  O_19
REMARK    2  A    between atoms: C_18  and  O_21
REMARK                            x       y       z     vdW  Elec       q    Type
REMARK                         _______ _______ _______ _____ _____    ______ ____
ROOT
ATOM      1  O   UNL     1     -36.898  47.994  -8.136  0.00  0.00    +0.000 OA
ATOM      2  O   UNL     1     -35.515  45.211 -10.787  0.00  0.00    +0.000 OA
ATOM      3  O   UNL     1     -37.334  45.708 -12.122  0.00  0.00    +0.000 OA
ATOM      4  C   UNL     1     -37.122  46.880 -10.091  0.00  0.00    +0.000 A 
ATOM      5  C   UNL     1     -36.373  47.059  -8.957  0.00  0.00    +0.000 A 
ATOM      6  C   UNL     1     -38.213  47.778  -9.979  0.00  0.00    +0.000 A 
ATOM      7  C   UNL     1     -35.166  46.358  -8.637  0.00  0.00    +0.000 A 
ATOM      8  C   UNL     1     -38.031  48.440  -8.761  0.00  0.00    +0.000 A 
ATOM      9  C   UNL     1     -34.755  45.419  -9.594  0.00  0.00    +0.000 A 
ATOM     10  C   UNL     1     -36.712  45.917 -11.087  0.00  0.00    +0.000 A 
ATOM     11  C   UNL     1     -39.330  48.108 -10.762  0.00  0.00    +0.000 A 
ATOM     12  C   UNL     1     -34.415  46.548  -7.483  0.00  0.00    +0.000 A 
ATOM     13  C   UNL     1     -38.891  49.417  -8.260  0.00  0.00    +0.000 A 
ATOM     14  C   UNL     1     -33.603  44.663  -9.421  0.00  0.00    +0.000 A 
ATOM     15  C   UNL     1     -40.214  49.084 -10.291  0.00  0.00    +0.000 A 
ATOM     16  C   UNL     1     -39.989  49.716  -9.070  0.00  0.00    +0.000 A 
ATOM     17  C   UNL     1     -33.256  45.796  -7.296  0.00  0.00    +0.000 A 
ATOM     18  C   UNL     1     -32.862  44.865  -8.262  0.00  0.00    +0.000 A 
ENDROOT
BRANCH  16  19
ATOM     19  O   UNL     1     -40.895  50.662  -8.670  0.00  0.00    +0.000 OA
ATOM     20  H   UNL     1     -40.620  51.002  -7.801  0.00  0.00    +0.000 HD
ENDBRANCH  16  19
BRANCH  18  21
ATOM     21  O   UNL     1     -31.728  44.124  -8.085  0.00  0.00    +0.000 OA
ATOM     22  H   UNL     1     -31.981  43.252  -7.735  0.00  0.00    +0.000 HD
ENDBRANCH  18  21
TORSDOF 2
ENDMDL
MODEL 4
REMARK VINA RESULT:      -6.2      7.338      9.484
REMARK  Name = COUMESTROL.pdbqt.pdb
REMARK  2 active torsions:
REMARK  status: ('A' for Active; 'I' for Inactive)
REMARK    1  A    between atoms: C_16  and  O_19
REMARK    2  A    between atoms: C_18  and  O_21
REMARK                            x       y       z     vdW  Elec       q    Type
REMARK                         _______ _______ _______ _____ _____    ______ ____
ROOT
ATOM      1  O   UNL     1     -32.768  46.196 -18.661  0.00  0.00    +0.000 OA
ATOM      2  O   UNL     1     -34.937  48.841 -16.428  0.00  0.00    +0.000 OA
ATOM      3  O   UNL     1     -34.215  47.709 -14.548  0.00  0.00    +0.000 OA
ATOM      4  C   UNL     1     -33.471  46.928 -16.641  0.00  0.00    +0.000 A 
ATOM      5  C   UNL     1     -33.510  47.110 -17.999  0.00  0.00    +0.000 A 
ATOM      6  C   UNL     1     -32.634  45.805 -16.425  0.00  0.00    +0.000 A 
ATOM      7  C   UNL     1     -34.239  48.136 -18.682  0.00  0.00    +0.000 A 
ATOM      8  C   UNL     1     -32.227  45.390 -17.697  0.00  0.00    +0.000 A 
ATOM      9  C   UNL     1     -34.958  49.005 -17.848  0.00  0.00    +0.000 A 
ATOM     10  C   UNL     1     -34.206  47.815 -15.768  0.00  0.00    +0.000 A 
ATOM     11  C   UNL     1     -32.174  45.092 -15.306  0.00  0.00    +0.000 A 
ATOM     12  C   UNL     1     -34.270  48.309 -20.060  0.00  0.00    +0.000 A 
ATOM     13  C   UNL     1     -31.386  44.304 -17.938  0.00  0.00    +0.000 A 
ATOM     14  C   UNL     1     -35.713  50.049 -18.367  0.00  0.00    +0.000 A 
ATOM     15  C   UNL     1     -31.329  43.997 -15.512  0.00  0.00    +0.000 A 
ATOM     16  C   UNL     1     -30.951  43.622 -16.799  0.00  0.00    +0.000 A 
ATOM     17  C   UNL     1     -35.024  49.354 -20.595  0.00  0.00    +0.000 A 
ATOM     18  C   UNL     1     -35.735  50.210 -19.749  0.00  0.00    +0.000 A 
ENDROOT
BRANCH  16  19
ATOM     19  O   UNL     1     -30.121  42.540 -16.926  0.00  0.00    +0.000 OA
ATOM     20  H   UNL     1     -29.440  42.593 -16.234  0.00  0.00    +0.000 HD
ENDBRANCH  16  19
BRANCH  18  21
ATOM     21  O   UNL     1     -36.475  51.235 -20.266  0.00  0.00    +0.000 OA
ATOM     22  H   UNL     1     -36.833  50.953 -21.126  0.00  0.00    +0.000 HD
ENDBRANCH  18  21
TORSDOF 2
ENDMDL
MODEL 5
REMARK VINA RESULT:      -6.1     25.756     27.327
REMARK  Name = COUMESTROL.pdbqt.pdb
REMARK  2 active torsions:
REMARK  status: ('A' for Active; 'I' for Inactive)
REMARK    1  A    between atoms: C_16  and  O_19
REMARK    2  A    between atoms: C_18  and  O_21
REMARK                            x       y       z     vdW  Elec       q    Type
REMARK                         _______ _______ _______ _____ _____    ______ ____
ROOT
ATOM      1  O   UNL     1     -17.472  55.518 -26.681  0.00  0.00    +0.000 OA
ATOM      2  O   UNL     1     -15.801  52.067 -25.273  0.00  0.00    +0.000 OA
ATOM      3  O   UNL     1     -16.391  51.071 -27.273  0.00  0.00    +0.000 OA
ATOM      4  C   UNL     1     -16.947  53.340 -26.982  0.00  0.00    +0.000 A 
ATOM      5  C   UNL     1     -16.899  54.421 -26.141  0.00  0.00    +0.000 A 
ATOM      6  C   UNL     1     -17.606  53.790 -28.153  0.00  0.00    +0.000 A 
ATOM      7  C   UNL     1     -16.319  54.433 -24.832  0.00  0.00    +0.000 A 
ATOM      8  C   UNL     1     -17.908  55.135 -27.920  0.00  0.00    +0.000 A 
ATOM      9  C   UNL     1     -15.766  53.212 -24.419  0.00  0.00    +0.000 A 
ATOM     10  C   UNL     1     -16.382  52.075 -26.571  0.00  0.00    +0.000 A 
ATOM     11  C   UNL     1     -17.980  53.220 -29.381  0.00  0.00    +0.000 A 
ATOM     12  C   UNL     1     -16.277  55.536 -23.988  0.00  0.00    +0.000 A 
ATOM     13  C   UNL     1     -18.565  55.963 -28.831  0.00  0.00    +0.000 A 
ATOM     14  C   UNL     1     -15.168  53.071 -23.173  0.00  0.00    +0.000 A 
ATOM     15  C   UNL     1     -18.640  54.021 -30.317  0.00  0.00    +0.000 A 
ATOM     16  C   UNL     1     -18.920  55.357 -30.038  0.00  0.00    +0.000 A 
ATOM     17  C   UNL     1     -15.679  55.409 -22.735  0.00  0.00    +0.000 A 
ATOM     18  C   UNL     1     -15.133  54.184 -22.340  0.00  0.00    +0.000 A 
ENDROOT
BRANCH  16  19
ATOM     19  O   UNL     1     -19.569  56.083 -31.001  0.00  0.00    +0.000 OA
ATOM     20  H   UNL     1     -19.307  55.740 -31.873  0.00  0.00    +0.000 HD
ENDBRANCH  16  19
BRANCH  18  21
ATOM     21  O   UNL     1     -14.546  54.053 -21.113  0.00  0.00    +0.000 OA
ATOM     22  H   UNL     1     -13.580  54.082 -21.229  0.00  0.00    +0.000 HD
ENDBRANCH  18  21
TORSDOF 2
ENDMDL
MODEL 6
REMARK VINA RESULT:      -6.0      7.183     10.740
REMARK  Name = COUMESTROL.pdbqt.pdb
REMARK  2 active torsions:
REMARK  status: ('A' for Active; 'I' for Inactive)
REMARK    1  A    between atoms: C_16  and  O_19
REMARK    2  A    between atoms: C_18  and  O_21
REMARK                            x       y       z     vdW  Elec       q    Type
REMARK                         _______ _______ _______ _____ _____    ______ ____
ROOT
ATOM      1  O   UNL     1     -33.300  47.100 -18.847  0.00  0.00    +0.000 OA
ATOM      2  O   UNL     1     -33.089  45.958 -14.931  0.00  0.00    +0.000 OA
ATOM      3  O   UNL     1     -34.523  47.701 -14.438  0.00  0.00    +0.000 OA
ATOM      4  C   UNL     1     -33.906  47.404 -16.690  0.00  0.00    +0.000 A 
ATOM      5  C   UNL     1     -33.176  46.657 -17.577  0.00  0.00    +0.000 A 
ATOM      6  C   UNL     1     -34.547  48.404 -17.463  0.00  0.00    +0.000 A 
ATOM      7  C   UNL     1     -32.360  45.529 -17.243  0.00  0.00    +0.000 A 
ATOM      8  C   UNL     1     -34.144  48.176 -18.782  0.00  0.00    +0.000 A 
ATOM      9  C   UNL     1     -32.338  45.198 -15.880  0.00  0.00    +0.000 A 
ATOM     10  C   UNL     1     -33.894  47.076 -15.283  0.00  0.00    +0.000 A 
ATOM     11  C   UNL     1     -35.420  49.473 -17.203  0.00  0.00    +0.000 A 
ATOM     12  C   UNL     1     -31.623  44.779 -18.152  0.00  0.00    +0.000 A 
ATOM     13  C   UNL     1     -34.550  48.943 -19.873  0.00  0.00    +0.000 A 
ATOM     14  C   UNL     1     -31.591  44.127 -15.405  0.00  0.00    +0.000 A 
ATOM     15  C   UNL     1     -35.848  50.264 -18.274  0.00  0.00    +0.000 A 
ATOM     16  C   UNL     1     -35.417  49.996 -19.572  0.00  0.00    +0.000 A 
ATOM     17  C   UNL     1     -30.869  43.702 -17.689  0.00  0.00    +0.000 A 
ATOM     18  C   UNL     1     -30.859  43.387 -16.327  0.00  0.00    +0.000 A 
ENDROOT
BRANCH  16  19
ATOM     19  O   UNL     1     -35.876  50.810 -20.572  0.00  0.00    +0.000 OA
ATOM     20  H   UNL     1     -36.817  50.613 -20.722  0.00  0.00    +0.000 HD
ENDBRANCH  16  19
BRANCH  18  21
ATOM     21  O   UNL     1     -30.122  42.333 -15.867  0.00  0.00    +0.000 OA
ATOM     22  H   UNL     1     -30.030  42.419 -14.902  0.00  0.00    +0.000 HD
ENDBRANCH  18  21
TORSDOF 2
ENDMDL
MODEL 7
REMARK VINA RESULT:      -6.0      6.750     10.202
REMARK  Name = COUMESTROL.pdbqt.pdb
REMARK  2 active torsions:
REMARK  status: ('A' for Active; 'I' for Inactive)
REMARK    1  A    between atoms: C_16  and  O_19
REMARK    2  A    between atoms: C_18  and  O_21
REMARK                            x       y       z     vdW  Elec       q    Type
REMARK                         _______ _______ _______ _____ _____    ______ ____
ROOT
ATOM      1  O   UNL     1     -32.458  46.576 -17.924  0.00  0.00    +0.000 OA
ATOM      2  O   UNL     1     -31.708  43.741 -15.082  0.00  0.00    +0.000 OA
ATOM      3  O   UNL     1     -33.309  44.764 -13.766  0.00  0.00    +0.000 OA
ATOM      4  C   UNL     1     -32.883  45.697 -15.885  0.00  0.00    +0.000 A 
ATOM      5  C   UNL     1     -32.149  45.604 -17.039  0.00  0.00    +0.000 A 
ATOM      6  C   UNL     1     -33.727  46.823 -16.053  0.00  0.00    +0.000 A 
ATOM      7  C   UNL     1     -31.160  44.608 -17.320  0.00  0.00    +0.000 A 
ATOM      8  C   UNL     1     -33.429  47.330 -17.322  0.00  0.00    +0.000 A 
ATOM      9  C   UNL     1     -30.958  43.670 -16.297  0.00  0.00    +0.000 A 
ATOM     10  C   UNL     1     -32.688  44.738 -14.822  0.00  0.00    +0.000 A 
ATOM     11  C   UNL     1     -34.705  47.472 -15.283  0.00  0.00    +0.000 A 
ATOM     12  C   UNL     1     -30.423  44.524 -18.494  0.00  0.00    +0.000 A 
ATOM     13  C   UNL     1     -34.041  48.449 -17.886  0.00  0.00    +0.000 A 
ATOM     14  C   UNL     1     -30.030  42.644 -16.425  0.00  0.00    +0.000 A 
ATOM     15  C   UNL     1     -35.340  48.597 -15.818  0.00  0.00    +0.000 A 
ATOM     16  C   UNL     1     -35.008  49.065 -17.088  0.00  0.00    +0.000 A 
ATOM     17  C   UNL     1     -29.487  43.500 -18.637  0.00  0.00    +0.000 A 
ATOM     18  C   UNL     1     -29.300  42.574 -17.606  0.00  0.00    +0.000 A 
ENDROOT
BRANCH  16  19
ATOM     19  O   UNL     1     -35.669  50.172 -17.549  0.00  0.00    +0.000 OA
ATOM     20  H   UNL     1     -36.173  49.920 -18.342  0.00  0.00    +0.000 HD
ENDBRANCH  16  19
BRANCH  18  21
ATOM     21  O   UNL     1     -28.386  41.567 -17.739  0.00  0.00    +0.000 OA
ATOM     22  H   UNL     1     -28.855  40.759 -18.009  0.00  0.00    +0.000 HD
ENDBRANCH  18  21
TORSDOF 2
ENDMDL
MODEL 8
REMARK VINA RESULT:      -6.0      6.320      8.905
REMARK  Name = COUMESTROL.pdbqt.pdb
REMARK  2 active torsions:
REMARK  status: ('A' for Active; 'I' for Inactive)
REMARK    1  A    between atoms: C_16  and  O_19
REMARK    2  A    between atoms: C_18  and  O_21
REMARK                            x       y       z     vdW  Elec       q    Type
REMARK                         _______ _______ _______ _____ _____    ______ ____
ROOT
ATOM      1  O   UNL     1     -32.129  46.024 -17.864  0.00  0.00    +0.000 OA
ATOM      2  O   UNL     1     -34.035  46.145 -14.253  0.00  0.00    +0.000 OA
ATOM      3  O   UNL     1     -32.732  44.350 -13.606  0.00  0.00    +0.000 OA
ATOM      4  C   UNL     1     -32.416  45.196 -15.780  0.00  0.00    +0.000 A 
ATOM      5  C   UNL     1     -32.807  46.133 -16.701  0.00  0.00    +0.000 A 
ATOM      6  C   UNL     1     -31.406  44.429 -16.414  0.00  0.00    +0.000 A 
ATOM      7  C   UNL     1     -33.812  47.132 -16.498  0.00  0.00    +0.000 A 
ATOM      8  C   UNL     1     -31.266  44.977 -17.693  0.00  0.00    +0.000 A 
ATOM      9  C   UNL     1     -34.421  47.110 -15.234  0.00  0.00    +0.000 A 
ATOM     10  C   UNL     1     -33.033  45.160 -14.474  0.00  0.00    +0.000 A 
ATOM     11  C   UNL     1     -30.597  43.339 -16.057  0.00  0.00    +0.000 A 
ATOM     12  C   UNL     1     -34.199  48.077 -17.439  0.00  0.00    +0.000 A 
ATOM     13  C   UNL     1     -30.367  44.512 -18.653  0.00  0.00    +0.000 A 
ATOM     14  C   UNL     1     -35.414  48.019 -14.892  0.00  0.00    +0.000 A 
ATOM     15  C   UNL     1     -29.684  42.847 -16.995  0.00  0.00    +0.000 A 
ATOM     16  C   UNL     1     -29.581  43.427 -18.258  0.00  0.00    +0.000 A 
ATOM     17  C   UNL     1     -35.195  48.995 -17.109  0.00  0.00    +0.000 A 
ATOM     18  C   UNL     1     -35.791  48.959 -15.845  0.00  0.00    +0.000 A 
ENDROOT
BRANCH  16  19
ATOM     19  O   UNL     1     -28.667  42.895 -19.127  0.00  0.00    +0.000 OA
ATOM     20  H   UNL     1     -28.960  43.084 -20.035  0.00  0.00    +0.000 HD
ENDBRANCH  16  19
BRANCH  18  21
ATOM     21  O   UNL     1     -36.767  49.855 -15.515  0.00  0.00    +0.000 OA
ATOM     22  H   UNL     1     -37.383  49.426 -14.895  0.00  0.00    +0.000 HD
ENDBRANCH  18  21
TORSDOF 2
ENDMDL
MODEL 9
REMARK VINA RESULT:      -6.0     25.044     26.115
REMARK  Name = COUMESTROL.pdbqt.pdb
REMARK  2 active torsions:
REMARK  status: ('A' for Active; 'I' for Inactive)
REMARK    1  A    between atoms: C_16  and  O_19
REMARK    2  A    between atoms: C_18  and  O_21
REMARK                            x       y       z     vdW  Elec       q    Type
REMARK                         _______ _______ _______ _____ _____    ______ ____
ROOT
ATOM      1  O   UNL     1     -16.615  56.625 -23.954  0.00  0.00    +0.000 OA
ATOM      2  O   UNL     1     -15.256  53.261 -22.078  0.00  0.00    +0.000 OA
ATOM      3  O   UNL     1     -15.196  54.486 -20.119  0.00  0.00    +0.000 OA
ATOM      4  C   UNL     1     -15.921  55.587 -22.069  0.00  0.00    +0.000 A 
ATOM      5  C   UNL     1     -16.170  55.470 -23.412  0.00  0.00    +0.000 A 
ATOM      6  C   UNL     1     -16.235  56.927 -21.733  0.00  0.00    +0.000 A 
ATOM      7  C   UNL     1     -15.993  54.283 -24.192  0.00  0.00    +0.000 A 
ATOM      8  C   UNL     1     -16.657  57.525 -22.924  0.00  0.00    +0.000 A 
ATOM      9  C   UNL     1     -15.524  53.171 -23.479  0.00  0.00    +0.000 A 
ATOM     10  C   UNL     1     -15.438  54.450 -21.319  0.00  0.00    +0.000 A 
ATOM     11  C   UNL     1     -16.212  57.704 -20.563  0.00  0.00    +0.000 A 
ATOM     12  C   UNL     1     -16.249  54.178 -25.554  0.00  0.00    +0.000 A 
ATOM     13  C   UNL     1     -17.062  58.854 -23.037  0.00  0.00    +0.000 A 
ATOM     14  C   UNL     1     -15.304  51.949 -24.102  0.00  0.00    +0.000 A 
ATOM     15  C   UNL     1     -16.612  59.041 -20.640  0.00  0.00    +0.000 A 
ATOM     16  C   UNL     1     -17.025  59.592 -21.851  0.00  0.00    +0.000 A 
ATOM     17  C   UNL     1     -16.033  52.957 -26.192  0.00  0.00    +0.000 A 
ATOM     18  C   UNL     1     -15.565  51.859 -25.465  0.00  0.00    +0.000 A 
ENDROOT
BRANCH  16  19
ATOM     19  O   UNL     1     -17.403  60.908 -21.854  0.00  0.00    +0.000 OA
ATOM     20  H   UNL     1     -18.001  61.057 -21.101  0.00  0.00    +0.000 HD
ENDBRANCH  16  19
BRANCH  18  21
ATOM     21  O   UNL     1     -15.351  50.660 -26.084  0.00  0.00    +0.000 OA
ATOM     22  H   UNL     1     -15.402  50.798 -27.046  0.00  0.00    +0.000 HD
ENDBRANCH  18  21
TORSDOF 2
ENDMDL
