MODEL 1
REMARK VINA RESULT:      -6.8      0.000      0.000
REMARK  Name = CP466722.pdbqt.pdb
REMARK  3 active torsions:
REMARK  status: ('A' for Active; 'I' for Inactive)
REMARK    1  A    between atoms: C_5  and  C_23
REMARK    2  A    between atoms: C_14  and  O_16
REMARK    3  A    between atoms: C_15  and  O_18
REMARK                            x       y       z     vdW  Elec       q    Type
REMARK                         _______ _______ _______ _____ _____    ______ ____
ROOT
ATOM      1  N   UNL     1     -34.832  48.135 -16.560  0.00  0.00    +0.000 N 
ATOM      2  N   UNL     1     -34.484  48.092 -17.867  0.00  0.00    +0.000 NA
ATOM      3  N   UNL     1     -35.952  49.794 -17.500  0.00  0.00    +0.000 NA
ATOM      4  C   UNL     1     -35.720  49.195 -16.361  0.00  0.00    +0.000 A 
ATOM      5  C   UNL     1     -35.179  49.105 -18.406  0.00  0.00    +0.000 A 
ATOM      6  C   UNL     1     -34.360  47.185 -15.593  0.00  0.00    +0.000 A 
ATOM      7  N   UNL     1     -34.894  47.263 -14.345  0.00  0.00    +0.000 NA
ATOM      8  C   UNL     1     -34.470  46.363 -13.452  0.00  0.00    +0.000 A 
ATOM      9  N   UNL     1     -33.577  45.397 -13.688  0.00  0.00    +0.000 NA
ATOM     10  C   UNL     1     -33.056  45.325 -14.914  0.00  0.00    +0.000 A 
ATOM     11  C   UNL     1     -33.402  46.213 -15.942  0.00  0.00    +0.000 A 
ATOM     12  C   UNL     1     -32.136  44.320 -15.174  0.00  0.00    +0.000 A 
ATOM     13  C   UNL     1     -32.763  46.067 -17.197  0.00  0.00    +0.000 A 
ATOM     14  C   UNL     1     -31.814  45.079 -17.434  0.00  0.00    +0.000 A 
ATOM     15  C   UNL     1     -31.539  44.162 -16.427  0.00  0.00    +0.000 A 
ATOM     16  N   UNL     1     -36.247  49.545 -15.171  0.00  0.00    +0.000 N 
ATOM     17  H   UNL     1     -37.052  50.162 -15.167  0.00  0.00    +0.000 HD
ATOM     18  H   UNL     1     -36.190  48.896 -14.387  0.00  0.00    +0.000 HD
ENDROOT
BRANCH   5  19
ATOM     19  C   UNL     1     -35.142  49.462 -19.828  0.00  0.00    +0.000 A 
ATOM     20  N   UNL     1     -35.783  50.597 -20.218  0.00  0.00    +0.000 NA
ATOM     21  C   UNL     1     -35.735  50.904 -21.533  0.00  0.00    +0.000 A 
ATOM     22  C   UNL     1     -35.081  50.143 -22.485  0.00  0.00    +0.000 A 
ATOM     23  C   UNL     1     -34.434  48.991 -22.057  0.00  0.00    +0.000 A 
ATOM     24  C   UNL     1     -34.459  48.638 -20.714  0.00  0.00    +0.000 A 
ENDBRANCH   5  19
BRANCH  14  25
ATOM     25  O   UNL     1     -31.262  44.995 -18.683  0.00  0.00    +0.000 OA
ATOM     26  C   UNL     1     -32.157  44.381 -19.576  0.00  0.00    +0.000 C 
ENDBRANCH  14  25
BRANCH  15  27
ATOM     27  O   UNL     1     -30.628  43.158 -16.615  0.00  0.00    +0.000 OA
ATOM     28  C   UNL     1     -29.405  43.494 -16.009  0.00  0.00    +0.000 C 
ENDBRANCH  15  27
TORSDOF 3
ENDMDL
MODEL 2
REMARK VINA RESULT:      -6.6      2.582      6.335
REMARK  Name = CP466722.pdbqt.pdb
REMARK  3 active torsions:
REMARK  status: ('A' for Active; 'I' for Inactive)
REMARK    1  A    between atoms: C_5  and  C_23
REMARK    2  A    between atoms: C_14  and  O_16
REMARK    3  A    between atoms: C_15  and  O_18
REMARK                            x       y       z     vdW  Elec       q    Type
REMARK                         _______ _______ _______ _____ _____    ______ ____
ROOT
ATOM      1  N   UNL     1     -33.255  46.211 -15.950  0.00  0.00    +0.000 N 
ATOM      2  N   UNL     1     -32.563  45.956 -17.085  0.00  0.00    +0.000 NA
ATOM      3  N   UNL     1     -31.889  44.554 -15.423  0.00  0.00    +0.000 NA
ATOM      4  C   UNL     1     -32.833  45.328 -14.953  0.00  0.00    +0.000 A 
ATOM      5  C   UNL     1     -31.746  44.953 -16.731  0.00  0.00    +0.000 A 
ATOM      6  C   UNL     1     -34.225  47.263 -15.845  0.00  0.00    +0.000 A 
ATOM      7  N   UNL     1     -34.747  47.495 -14.611  0.00  0.00    +0.000 NA
ATOM      8  C   UNL     1     -35.634  48.491 -14.510  0.00  0.00    +0.000 A 
ATOM      9  N   UNL     1     -36.037  49.275 -15.514  0.00  0.00    +0.000 NA
ATOM     10  C   UNL     1     -35.522  49.043 -16.723  0.00  0.00    +0.000 A 
ATOM     11  C   UNL     1     -34.594  48.023 -16.973  0.00  0.00    +0.000 A 
ATOM     12  C   UNL     1     -35.927  49.857 -17.772  0.00  0.00    +0.000 A 
ATOM     13  C   UNL     1     -34.137  47.843 -18.300  0.00  0.00    +0.000 A 
ATOM     14  C   UNL     1     -34.578  48.641 -19.350  0.00  0.00    +0.000 A 
ATOM     15  C   UNL     1     -35.441  49.694 -19.070  0.00  0.00    +0.000 A 
ATOM     16  N   UNL     1     -33.333  45.283 -13.703  0.00  0.00    +0.000 N 
ATOM     17  H   UNL     1     -32.806  44.784 -12.994  0.00  0.00    +0.000 HD
ATOM     18  H   UNL     1     -33.898  46.059 -13.360  0.00  0.00    +0.000 HD
ENDROOT
BRANCH   5  19
ATOM     19  C   UNL     1     -30.777  44.326 -17.635  0.00  0.00    +0.000 A 
ATOM     20  N   UNL     1     -30.447  44.989 -18.777  0.00  0.00    +0.000 NA
ATOM     21  C   UNL     1     -29.552  44.390 -19.594  0.00  0.00    +0.000 A 
ATOM     22  C   UNL     1     -28.962  43.165 -19.335  0.00  0.00    +0.000 A 
ATOM     23  C   UNL     1     -29.316  42.514 -18.161  0.00  0.00    +0.000 A 
ATOM     24  C   UNL     1     -30.233  43.093 -17.294  0.00  0.00    +0.000 A 
ENDBRANCH   5  19
BRANCH  14  25
ATOM     25  O   UNL     1     -34.068  48.412 -20.599  0.00  0.00    +0.000 OA
ATOM     26  C   UNL     1     -34.771  47.375 -21.235  0.00  0.00    +0.000 C 
ENDBRANCH  14  25
BRANCH  15  27
ATOM     27  O   UNL     1     -35.890  50.521 -20.065  0.00  0.00    +0.000 OA
ATOM     28  C   UNL     1     -37.261  50.307 -20.290  0.00  0.00    +0.000 C 
ENDBRANCH  15  27
TORSDOF 3
ENDMDL
MODEL 3
REMARK VINA RESULT:      -6.2      3.122      6.273
REMARK  Name = CP466722.pdbqt.pdb
REMARK  3 active torsions:
REMARK  status: ('A' for Active; 'I' for Inactive)
REMARK    1  A    between atoms: C_5  and  C_23
REMARK    2  A    between atoms: C_14  and  O_16
REMARK    3  A    between atoms: C_15  and  O_18
REMARK                            x       y       z     vdW  Elec       q    Type
REMARK                         _______ _______ _______ _____ _____    ______ ____
ROOT
ATOM      1  N   UNL     1     -34.158  47.242 -16.362  0.00  0.00    +0.000 N 
ATOM      2  N   UNL     1     -33.434  46.145 -16.038  0.00  0.00    +0.000 NA
ATOM      3  N   UNL     1     -32.730  46.991 -18.031  0.00  0.00    +0.000 NA
ATOM      4  C   UNL     1     -33.696  47.748 -17.579  0.00  0.00    +0.000 A 
ATOM      5  C   UNL     1     -32.583  46.020 -17.068  0.00  0.00    +0.000 A 
ATOM      6  C   UNL     1     -35.242  47.730 -15.557  0.00  0.00    +0.000 A 
ATOM      7  N   UNL     1     -35.970  48.759 -16.067  0.00  0.00    +0.000 NA
ATOM      8  C   UNL     1     -36.993  49.196 -15.327  0.00  0.00    +0.000 A 
ATOM      9  N   UNL     1     -37.360  48.702 -14.140  0.00  0.00    +0.000 NA
ATOM     10  C   UNL     1     -36.642  47.693 -13.645  0.00  0.00    +0.000 A 
ATOM     11  C   UNL     1     -35.536  47.145 -14.309  0.00  0.00    +0.000 A 
ATOM     12  C   UNL     1     -37.019  47.165 -12.418  0.00  0.00    +0.000 A 
ATOM     13  C   UNL     1     -34.825  46.098 -13.677  0.00  0.00    +0.000 A 
ATOM     14  C   UNL     1     -35.189  45.603 -12.430  0.00  0.00    +0.000 A 
ATOM     15  C   UNL     1     -36.332  46.106 -11.820  0.00  0.00    +0.000 A 
ATOM     16  N   UNL     1     -34.174  48.853 -18.185  0.00  0.00    +0.000 N 
ATOM     17  H   UNL     1     -33.946  48.999 -19.162  0.00  0.00    +0.000 HD
ATOM     18  H   UNL     1     -35.064  49.247 -17.881  0.00  0.00    +0.000 HD
ENDROOT
BRANCH   5  19
ATOM     19  C   UNL     1     -31.584  44.954 -17.183  0.00  0.00    +0.000 A 
ATOM     20  N   UNL     1     -30.735  44.986 -18.246  0.00  0.00    +0.000 NA
ATOM     21  C   UNL     1     -29.824  43.992 -18.331  0.00  0.00    +0.000 A 
ATOM     22  C   UNL     1     -29.709  42.963 -17.413  0.00  0.00    +0.000 A 
ATOM     23  C   UNL     1     -30.587  42.958 -16.337  0.00  0.00    +0.000 A 
ATOM     24  C   UNL     1     -31.540  43.961 -16.212  0.00  0.00    +0.000 A 
ENDBRANCH   5  19
BRANCH  14  25
ATOM     25  O   UNL     1     -34.460  44.573 -11.901  0.00  0.00    +0.000 OA
ATOM     26  C   UNL     1     -33.183  45.020 -11.519  0.00  0.00    +0.000 C 
ENDBRANCH  14  25
BRANCH  15  27
ATOM     27  O   UNL     1     -36.746  45.639 -10.602  0.00  0.00    +0.000 OA
ATOM     28  C   UNL     1     -36.354  46.527  -9.584  0.00  0.00    +0.000 C 
ENDBRANCH  15  27
TORSDOF 3
ENDMDL
MODEL 4
REMARK VINA RESULT:      -6.2     16.606     18.279
REMARK  Name = CP466722.pdbqt.pdb
REMARK  3 active torsions:
REMARK  status: ('A' for Active; 'I' for Inactive)
REMARK    1  A    between atoms: C_5  and  C_23
REMARK    2  A    between atoms: C_14  and  O_16
REMARK    3  A    between atoms: C_15  and  O_18
REMARK                            x       y       z     vdW  Elec       q    Type
REMARK                         _______ _______ _______ _____ _____    ______ ____
ROOT
ATOM      1  N   UNL     1     -27.569  62.808 -23.416  0.00  0.00    +0.000 N 
ATOM      2  N   UNL     1     -28.511  63.056 -22.477  0.00  0.00    +0.000 NA
ATOM      3  N   UNL     1     -26.489  63.844 -21.788  0.00  0.00    +0.000 NA
ATOM      4  C   UNL     1     -26.344  63.314 -22.976  0.00  0.00    +0.000 A 
ATOM      5  C   UNL     1     -27.825  63.680 -21.507  0.00  0.00    +0.000 A 
ATOM      6  C   UNL     1     -27.844  62.097 -24.632  0.00  0.00    +0.000 A 
ATOM      7  N   UNL     1     -26.779  61.800 -25.424  0.00  0.00    +0.000 NA
ATOM      8  C   UNL     1     -27.035  61.117 -26.544  0.00  0.00    +0.000 A 
ATOM      9  N   UNL     1     -28.241  60.699 -26.940  0.00  0.00    +0.000 NA
ATOM     10  C   UNL     1     -29.282  60.993 -26.159  0.00  0.00    +0.000 A 
ATOM     11  C   UNL     1     -29.159  61.714 -24.964  0.00  0.00    +0.000 A 
ATOM     12  C   UNL     1     -30.538  60.555 -26.556  0.00  0.00    +0.000 A 
ATOM     13  C   UNL     1     -30.334  61.999 -24.229  0.00  0.00    +0.000 A 
ATOM     14  C   UNL     1     -31.592  61.589 -24.656  0.00  0.00    +0.000 A 
ATOM     15  C   UNL     1     -31.686  60.811 -25.803  0.00  0.00    +0.000 A 
ATOM     16  N   UNL     1     -25.194  63.267 -23.676  0.00  0.00    +0.000 N 
ATOM     17  H   UNL     1     -24.325  63.439 -23.182  0.00  0.00    +0.000 HD
ATOM     18  H   UNL     1     -25.122  62.646 -24.482  0.00  0.00    +0.000 HD
ENDROOT
BRANCH   5  19
ATOM     19  C   UNL     1     -28.419  64.147 -20.251  0.00  0.00    +0.000 A 
ATOM     20  N   UNL     1     -27.596  64.713 -19.326  0.00  0.00    +0.000 NA
ATOM     21  C   UNL     1     -28.167  65.134 -18.177  0.00  0.00    +0.000 A 
ATOM     22  C   UNL     1     -29.518  65.026 -17.895  0.00  0.00    +0.000 A 
ATOM     23  C   UNL     1     -30.334  64.447 -18.858  0.00  0.00    +0.000 A 
ATOM     24  C   UNL     1     -29.787  63.999 -20.054  0.00  0.00    +0.000 A 
ENDBRANCH   5  19
BRANCH  14  25
ATOM     25  O   UNL     1     -32.674  61.888 -23.873  0.00  0.00    +0.000 OA
ATOM     26  C   UNL     1     -32.328  62.842 -22.900  0.00  0.00    +0.000 C 
ENDBRANCH  14  25
BRANCH  15  27
ATOM     27  O   UNL     1     -32.899  60.364 -26.255  0.00  0.00    +0.000 OA
ATOM     28  C   UNL     1     -32.715  59.369 -27.232  0.00  0.00    +0.000 C 
ENDBRANCH  15  27
TORSDOF 3
ENDMDL
MODEL 5
REMARK VINA RESULT:      -6.1     17.603     19.576
REMARK  Name = CP466722.pdbqt.pdb
REMARK  3 active torsions:
REMARK  status: ('A' for Active; 'I' for Inactive)
REMARK    1  A    between atoms: C_5  and  C_23
REMARK    2  A    between atoms: C_14  and  O_16
REMARK    3  A    between atoms: C_15  and  O_18
REMARK                            x       y       z     vdW  Elec       q    Type
REMARK                         _______ _______ _______ _____ _____    ______ ____
ROOT
ATOM      1  N   UNL     1     -33.703  64.196  -9.792  0.00  0.00    +0.000 N 
ATOM      2  N   UNL     1     -32.621  64.398  -9.004  0.00  0.00    +0.000 NA
ATOM      3  N   UNL     1     -32.404  65.562 -10.949  0.00  0.00    +0.000 NA
ATOM      4  C   UNL     1     -33.550  64.932 -10.970  0.00  0.00    +0.000 A 
ATOM      5  C   UNL     1     -31.856  65.225  -9.733  0.00  0.00    +0.000 A 
ATOM      6  C   UNL     1     -34.780  63.319  -9.432  0.00  0.00    +0.000 A 
ATOM      7  N   UNL     1     -35.737  63.105 -10.375  0.00  0.00    +0.000 NA
ATOM      8  C   UNL     1     -36.728  62.270 -10.046  0.00  0.00    +0.000 A 
ATOM      9  N   UNL     1     -36.847  61.628  -8.880  0.00  0.00    +0.000 NA
ATOM     10  C   UNL     1     -35.906  61.842  -7.959  0.00  0.00    +0.000 A 
ATOM     11  C   UNL     1     -34.819  62.703  -8.166  0.00  0.00    +0.000 A 
ATOM     12  C   UNL     1     -36.015  61.174  -6.748  0.00  0.00    +0.000 A 
ATOM     13  C   UNL     1     -33.895  62.882  -7.109  0.00  0.00    +0.000 A 
ATOM     14  C   UNL     1     -34.035  62.237  -5.886  0.00  0.00    +0.000 A 
ATOM     15  C   UNL     1     -35.076  61.330  -5.725  0.00  0.00    +0.000 A 
ATOM     16  N   UNL     1     -34.455  64.986 -11.967  0.00  0.00    +0.000 N 
ATOM     17  H   UNL     1     -34.154  65.345 -12.867  0.00  0.00    +0.000 HD
ATOM     18  H   UNL     1     -35.206  64.298 -12.000  0.00  0.00    +0.000 HD
ENDROOT
BRANCH   5  19
ATOM     19  C   UNL     1     -30.551  65.731  -9.300  0.00  0.00    +0.000 A 
ATOM     20  N   UNL     1     -30.459  66.285  -8.059  0.00  0.00    +0.000 NA
ATOM     21  C   UNL     1     -29.246  66.745  -7.684  0.00  0.00    +0.000 A 
ATOM     22  C   UNL     1     -28.113  66.684  -8.475  0.00  0.00    +0.000 A 
ATOM     23  C   UNL     1     -28.235  66.111  -9.734  0.00  0.00    +0.000 A 
ATOM     24  C   UNL     1     -29.465  65.626 -10.161  0.00  0.00    +0.000 A 
ENDBRANCH   5  19
BRANCH  14  25
ATOM     25  O   UNL     1     -33.084  62.450  -4.926  0.00  0.00    +0.000 OA
ATOM     26  C   UNL     1     -31.984  63.138  -5.467  0.00  0.00    +0.000 C 
ENDBRANCH  14  25
BRANCH  15  27
ATOM     27  O   UNL     1     -35.247  60.653  -4.548  0.00  0.00    +0.000 OA
ATOM     28  C   UNL     1     -36.592  60.274  -4.397  0.00  0.00    +0.000 C 
ENDBRANCH  15  27
TORSDOF 3
ENDMDL
MODEL 6
REMARK VINA RESULT:      -6.0     16.938     18.515
REMARK  Name = CP466722.pdbqt.pdb
REMARK  3 active torsions:
REMARK  status: ('A' for Active; 'I' for Inactive)
REMARK    1  A    between atoms: C_5  and  C_23
REMARK    2  A    between atoms: C_14  and  O_16
REMARK    3  A    between atoms: C_15  and  O_18
REMARK                            x       y       z     vdW  Elec       q    Type
REMARK                         _______ _______ _______ _____ _____    ______ ____
ROOT
ATOM      1  N   UNL     1     -27.962  60.423 -29.627  0.00  0.00    +0.000 N 
ATOM      2  N   UNL     1     -29.030  59.618 -29.831  0.00  0.00    +0.000 NA
ATOM      3  N   UNL     1     -27.666  59.591 -31.654  0.00  0.00    +0.000 NA
ATOM      4  C   UNL     1     -27.136  60.376 -30.752  0.00  0.00    +0.000 A 
ATOM      5  C   UNL     1     -28.822  59.133 -31.064  0.00  0.00    +0.000 A 
ATOM      6  C   UNL     1     -27.788  61.205 -28.436  0.00  0.00    +0.000 A 
ATOM      7  N   UNL     1     -26.740  62.072 -28.420  0.00  0.00    +0.000 NA
ATOM      8  C   UNL     1     -26.593  62.817 -27.319  0.00  0.00    +0.000 A 
ATOM      9  N   UNL     1     -27.391  62.784 -26.247  0.00  0.00    +0.000 NA
ATOM     10  C   UNL     1     -28.417  61.931 -26.269  0.00  0.00    +0.000 A 
ATOM     11  C   UNL     1     -28.681  61.083 -27.353  0.00  0.00    +0.000 A 
ATOM     12  C   UNL     1     -29.258  61.895 -25.166  0.00  0.00    +0.000 A 
ATOM     13  C   UNL     1     -29.777  60.193 -27.257  0.00  0.00    +0.000 A 
ATOM     14  C   UNL     1     -30.591  60.139 -26.131  0.00  0.00    +0.000 A 
ATOM     15  C   UNL     1     -30.360  61.039 -25.098  0.00  0.00    +0.000 A 
ATOM     16  N   UNL     1     -25.968  61.037 -30.879  0.00  0.00    +0.000 N 
ATOM     17  H   UNL     1     -25.569  61.130 -31.807  0.00  0.00    +0.000 HD
ATOM     18  H   UNL     1     -25.745  61.791 -30.230  0.00  0.00    +0.000 HD
ENDROOT
BRANCH   5  19
ATOM     19  C   UNL     1     -29.730  58.206 -31.746  0.00  0.00    +0.000 A 
ATOM     20  N   UNL     1     -31.065  58.335 -31.517  0.00  0.00    +0.000 NA
ATOM     21  C   UNL     1     -31.881  57.468 -32.157  0.00  0.00    +0.000 A 
ATOM     22  C   UNL     1     -31.441  56.478 -33.016  0.00  0.00    +0.000 A 
ATOM     23  C   UNL     1     -30.074  56.372 -33.233  0.00  0.00    +0.000 A 
ATOM     24  C   UNL     1     -29.199  57.242 -32.594  0.00  0.00    +0.000 A 
ENDBRANCH   5  19
BRANCH  14  25
ATOM     25  O   UNL     1     -31.643  59.265 -26.131  0.00  0.00    +0.000 OA
ATOM     26  C   UNL     1     -32.671  59.733 -26.968  0.00  0.00    +0.000 C 
ENDBRANCH  14  25
BRANCH  15  27
ATOM     27  O   UNL     1     -31.144  61.041 -23.976  0.00  0.00    +0.000 OA
ATOM     28  C   UNL     1     -31.855  62.251 -23.883  0.00  0.00    +0.000 C 
ENDBRANCH  15  27
TORSDOF 3
ENDMDL
MODEL 7
REMARK VINA RESULT:      -5.9      3.068      7.198
REMARK  Name = CP466722.pdbqt.pdb
REMARK  3 active torsions:
REMARK  status: ('A' for Active; 'I' for Inactive)
REMARK    1  A    between atoms: C_5  and  C_23
REMARK    2  A    between atoms: C_14  and  O_16
REMARK    3  A    between atoms: C_15  and  O_18
REMARK                            x       y       z     vdW  Elec       q    Type
REMARK                         _______ _______ _______ _____ _____    ______ ____
ROOT
ATOM      1  N   UNL     1     -34.186  45.889 -13.926  0.00  0.00    +0.000 N 
ATOM      2  N   UNL     1     -35.270  46.640 -13.621  0.00  0.00    +0.000 NA
ATOM      3  N   UNL     1     -34.721  45.301 -11.863  0.00  0.00    +0.000 NA
ATOM      4  C   UNL     1     -33.863  45.090 -12.827  0.00  0.00    +0.000 A 
ATOM      5  C   UNL     1     -35.568  46.259 -12.370  0.00  0.00    +0.000 A 
ATOM      6  C   UNL     1     -33.545  45.926 -15.210  0.00  0.00    +0.000 A 
ATOM      7  N   UNL     1     -32.551  45.023 -15.425  0.00  0.00    +0.000 NA
ATOM      8  C   UNL     1     -31.971  45.044 -16.630  0.00  0.00    +0.000 A 
ATOM      9  N   UNL     1     -32.292  45.868 -17.632  0.00  0.00    +0.000 NA
ATOM     10  C   UNL     1     -33.267  46.752 -17.414  0.00  0.00    +0.000 A 
ATOM     11  C   UNL     1     -33.951  46.848 -16.195  0.00  0.00    +0.000 A 
ATOM     12  C   UNL     1     -33.615  47.607 -18.451  0.00  0.00    +0.000 A 
ATOM     13  C   UNL     1     -34.947  47.845 -16.061  0.00  0.00    +0.000 A 
ATOM     14  C   UNL     1     -35.261  48.721 -17.094  0.00  0.00    +0.000 A 
ATOM     15  C   UNL     1     -34.625  48.562 -18.320  0.00  0.00    +0.000 A 
ATOM     16  N   UNL     1     -32.820  44.239 -12.774  0.00  0.00    +0.000 N 
ATOM     17  H   UNL     1     -32.809  43.539 -12.039  0.00  0.00    +0.000 HD
ATOM     18  H   UNL     1     -32.344  43.973 -13.636  0.00  0.00    +0.000 HD
ENDROOT
BRANCH   5  19
ATOM     19  C   UNL     1     -36.692  46.793 -11.595  0.00  0.00    +0.000 A 
ATOM     20  N   UNL     1     -37.736  47.338 -12.276  0.00  0.00    +0.000 NA
ATOM     21  C   UNL     1     -38.759  47.825 -11.540  0.00  0.00    +0.000 A 
ATOM     22  C   UNL     1     -38.804  47.796 -10.157  0.00  0.00    +0.000 A 
ATOM     23  C   UNL     1     -37.726  47.231  -9.489  0.00  0.00    +0.000 A 
ATOM     24  C   UNL     1     -36.652  46.720 -10.208  0.00  0.00    +0.000 A 
ENDBRANCH   5  19
BRANCH  14  25
ATOM     25  O   UNL     1     -36.253  49.641 -16.887  0.00  0.00    +0.000 OA
ATOM     26  C   UNL     1     -36.973  49.333 -15.720  0.00  0.00    +0.000 C 
ENDBRANCH  14  25
BRANCH  15  27
ATOM     27  O   UNL     1     -34.912  49.385 -19.375  0.00  0.00    +0.000 OA
ATOM     28  C   UNL     1     -34.619  48.738 -20.588  0.00  0.00    +0.000 C 
ENDBRANCH  15  27
TORSDOF 3
ENDMDL
MODEL 8
REMARK VINA RESULT:      -5.8     17.960     19.462
REMARK  Name = CP466722.pdbqt.pdb
REMARK  3 active torsions:
REMARK  status: ('A' for Active; 'I' for Inactive)
REMARK    1  A    between atoms: C_5  and  C_23
REMARK    2  A    between atoms: C_14  and  O_16
REMARK    3  A    between atoms: C_15  and  O_18
REMARK                            x       y       z     vdW  Elec       q    Type
REMARK                         _______ _______ _______ _____ _____    ______ ____
ROOT
ATOM      1  N   UNL     1     -34.301  63.343  -9.331  0.00  0.00    +0.000 N 
ATOM      2  N   UNL     1     -33.470  64.308  -9.790  0.00  0.00    +0.000 NA
ATOM      3  N   UNL     1     -34.948  63.704 -11.414  0.00  0.00    +0.000 NA
ATOM      4  C   UNL     1     -35.204  63.002 -10.340  0.00  0.00    +0.000 A 
ATOM      5  C   UNL     1     -33.886  64.500 -11.051  0.00  0.00    +0.000 A 
ATOM      6  C   UNL     1     -34.189  62.774  -8.018  0.00  0.00    +0.000 A 
ATOM      7  N   UNL     1     -35.000  61.720  -7.734  0.00  0.00    +0.000 NA
ATOM      8  C   UNL     1     -34.878  61.177  -6.518  0.00  0.00    +0.000 A 
ATOM      9  N   UNL     1     -34.024  61.578  -5.572  0.00  0.00    +0.000 NA
ATOM     10  C   UNL     1     -33.231  62.613  -5.855  0.00  0.00    +0.000 A 
ATOM     11  C   UNL     1     -33.263  63.284  -7.085  0.00  0.00    +0.000 A 
ATOM     12  C   UNL     1     -32.334  63.032  -4.883  0.00  0.00    +0.000 A 
ATOM     13  C   UNL     1     -32.400  64.391  -7.268  0.00  0.00    +0.000 A 
ATOM     14  C   UNL     1     -31.532  64.825  -6.273  0.00  0.00    +0.000 A 
ATOM     15  C   UNL     1     -31.461  64.103  -5.088  0.00  0.00    +0.000 A 
ATOM     16  N   UNL     1     -36.192  62.094 -10.216  0.00  0.00    +0.000 N 
ATOM     17  H   UNL     1     -36.633  61.748 -11.061  0.00  0.00    +0.000 HD
ATOM     18  H   UNL     1     -36.178  61.442  -9.432  0.00  0.00    +0.000 HD
ENDROOT
BRANCH   5  19
ATOM     19  C   UNL     1     -33.280  65.459 -11.978  0.00  0.00    +0.000 A 
ATOM     20  N   UNL     1     -33.800  66.716 -12.029  0.00  0.00    +0.000 NA
ATOM     21  C   UNL     1     -33.224  67.581 -12.892  0.00  0.00    +0.000 A 
ATOM     22  C   UNL     1     -32.154  67.266 -13.710  0.00  0.00    +0.000 A 
ATOM     23  C   UNL     1     -31.642  65.977 -13.635  0.00  0.00    +0.000 A 
ATOM     24  C   UNL     1     -32.206  65.055 -12.762  0.00  0.00    +0.000 A 
ENDBRANCH   5  19
BRANCH  14  25
ATOM     25  O   UNL     1     -30.716  65.890  -6.541  0.00  0.00    +0.000 OA
ATOM     26  C   UNL     1     -30.688  66.152  -7.922  0.00  0.00    +0.000 C 
ENDBRANCH  14  25
BRANCH  15  27
ATOM     27  O   UNL     1     -30.609  64.476  -4.084  0.00  0.00    +0.000 OA
ATOM     28  C   UNL     1     -30.573  63.488  -3.085  0.00  0.00    +0.000 C 
ENDBRANCH  15  27
TORSDOF 3
ENDMDL
MODEL 9
REMARK VINA RESULT:      -5.8     20.559     21.428
REMARK  Name = CP466722.pdbqt.pdb
REMARK  3 active torsions:
REMARK  status: ('A' for Active; 'I' for Inactive)
REMARK    1  A    between atoms: C_5  and  C_23
REMARK    2  A    between atoms: C_14  and  O_16
REMARK    3  A    between atoms: C_15  and  O_18
REMARK                            x       y       z     vdW  Elec       q    Type
REMARK                         _______ _______ _______ _____ _____    ______ ____
ROOT
ATOM      1  N   UNL     1     -16.347  54.436 -24.856  0.00  0.00    +0.000 N 
ATOM      2  N   UNL     1     -16.751  55.713 -24.660  0.00  0.00    +0.000 NA
ATOM      3  N   UNL     1     -15.632  54.953 -22.829  0.00  0.00    +0.000 NA
ATOM      4  C   UNL     1     -15.652  54.001 -23.725  0.00  0.00    +0.000 A 
ATOM      5  C   UNL     1     -16.305  55.993 -23.426  0.00  0.00    +0.000 A 
ATOM      6  C   UNL     1     -16.655  53.691 -26.044  0.00  0.00    +0.000 A 
ATOM      7  N   UNL     1     -16.305  52.378 -26.052  0.00  0.00    +0.000 NA
ATOM      8  C   UNL     1     -16.613  51.680 -27.151  0.00  0.00    +0.000 A 
ATOM      9  N   UNL     1     -17.239  52.165 -28.227  0.00  0.00    +0.000 NA
ATOM     10  C   UNL     1     -17.580  53.454 -28.214  0.00  0.00    +0.000 A 
ATOM     11  C   UNL     1     -17.306  54.304 -27.133  0.00  0.00    +0.000 A 
ATOM     12  C   UNL     1     -18.239  53.966 -29.322  0.00  0.00    +0.000 A 
ATOM     13  C   UNL     1     -17.683  55.664 -27.237  0.00  0.00    +0.000 A 
ATOM     14  C   UNL     1     -18.309  56.174 -28.369  0.00  0.00    +0.000 A 
ATOM     15  C   UNL     1     -18.640  55.302 -29.399  0.00  0.00    +0.000 A 
ATOM     16  N   UNL     1     -15.085  52.786 -23.590  0.00  0.00    +0.000 N 
ATOM     17  H   UNL     1     -14.818  52.483 -22.659  0.00  0.00    +0.000 HD
ATOM     18  H   UNL     1     -15.339  52.039 -24.236  0.00  0.00    +0.000 HD
ENDROOT
BRANCH   5  19
ATOM     19  C   UNL     1     -16.509  57.278 -22.752  0.00  0.00    +0.000 A 
ATOM     20  N   UNL     1     -16.248  57.348 -21.418  0.00  0.00    +0.000 NA
ATOM     21  C   UNL     1     -16.444  58.543 -20.819  0.00  0.00    +0.000 A 
ATOM     22  C   UNL     1     -16.886  59.678 -21.475  0.00  0.00    +0.000 A 
ATOM     23  C   UNL     1     -17.142  59.577 -22.836  0.00  0.00    +0.000 A 
ATOM     24  C   UNL     1     -16.955  58.367 -23.491  0.00  0.00    +0.000 A 
ENDBRANCH   5  19
BRANCH  14  25
ATOM     25  O   UNL     1     -18.660  57.497 -28.377  0.00  0.00    +0.000 OA
ATOM     26  C   UNL     1     -17.557  58.300 -28.038  0.00  0.00    +0.000 C 
ENDBRANCH  14  25
BRANCH  15  27
ATOM     27  O   UNL     1     -19.274  55.749 -30.526  0.00  0.00    +0.000 OA
ATOM     28  C   UNL     1     -18.346  55.930 -31.566  0.00  0.00    +0.000 C 
ENDBRANCH  15  27
TORSDOF 3
ENDMDL
