MODEL 1
REMARK VINA RESULT:      -6.4      0.000      0.000
REMARK  Name = Curcumin.pdbqt.pdb
REMARK  8 active torsions:
REMARK  status: ('A' for Active; 'I' for Inactive)
REMARK    1  A    between atoms: C_2  and  C_4
REMARK    2  A    between atoms: C_5  and  C_6
REMARK    3  A    between atoms: C_8  and  O_12
REMARK    4  A    between atoms: C_9  and  O_14
REMARK    5  A    between atoms: C_16  and  C_18
REMARK    6  A    between atoms: C_19  and  C_20
REMARK    7  A    between atoms: C_22  and  O_26
REMARK    8  A    between atoms: C_23  and  O_28
REMARK                            x       y       z     vdW  Elec       q    Type
REMARK                         _______ _______ _______ _____ _____    ______ ____
ROOT
ATOM      1  C   UNL     1     -34.553  45.901 -12.461  0.00  0.00    +0.000 C 
ATOM      2  C   UNL     1     -35.532  46.726 -13.086  0.00  0.00    +0.000 C 
ATOM      3  O   UNL     1     -36.542  47.037 -12.473  0.00  0.00    +0.000 OA
ATOM      4  C   UNL     1     -33.576  45.073 -11.836  0.00  0.00    +0.000 C 
ATOM      5  O   UNL     1     -32.734  44.506 -12.518  0.00  0.00    +0.000 OA
ENDROOT
BRANCH   2   6
ATOM      6  C   UNL     1     -35.323  47.190 -14.434  0.00  0.00    +0.000 C 
ATOM      7  C   UNL     1     -35.150  47.580 -15.557  0.00  0.00    +0.000 C 
BRANCH   7   8
ATOM      8  C   UNL     1     -34.942  48.041 -16.891  0.00  0.00    +0.000 A 
ATOM      9  C   UNL     1     -35.486  49.257 -17.299  0.00  0.00    +0.000 A 
ATOM     10  C   UNL     1     -35.292  49.725 -18.602  0.00  0.00    +0.000 A 
ATOM     11  C   UNL     1     -34.540  48.948 -19.489  0.00  0.00    +0.000 A 
ATOM     12  C   UNL     1     -33.994  47.731 -19.084  0.00  0.00    +0.000 A 
ATOM     13  C   UNL     1     -34.195  47.277 -17.783  0.00  0.00    +0.000 A 
BRANCH  10  14
ATOM     14  O   UNL     1     -35.796  50.911 -19.074  0.00  0.00    +0.000 OA
ATOM     15  C   UNL     1     -37.189  50.991 -19.176  0.00  0.00    +0.000 C 
ENDBRANCH  10  14
BRANCH  11  16
ATOM     16  O   UNL     1     -34.297  49.322 -20.782  0.00  0.00    +0.000 OA
ATOM     17  H   UNL     1     -33.576  49.972 -20.821  0.00  0.00    +0.000 HD
ENDBRANCH  11  16
ENDBRANCH   7   8
ENDBRANCH   2   6
BRANCH   4  18
ATOM     18  C   UNL     1     -33.587  44.910 -10.404  0.00  0.00    +0.000 C 
ATOM     19  C   UNL     1     -33.593  44.770  -9.210  0.00  0.00    +0.000 C 
BRANCH  19  20
ATOM     20  C   UNL     1     -33.598  44.602  -7.795  0.00  0.00    +0.000 A 
ATOM     21  C   UNL     1     -34.769  44.213  -7.147  0.00  0.00    +0.000 A 
ATOM     22  C   UNL     1     -34.791  44.043  -5.760  0.00  0.00    +0.000 A 
ATOM     23  C   UNL     1     -33.617  44.270  -5.037  0.00  0.00    +0.000 A 
ATOM     24  C   UNL     1     -32.443  44.660  -5.681  0.00  0.00    +0.000 A 
ATOM     25  C   UNL     1     -32.435  44.825  -7.062  0.00  0.00    +0.000 A 
BRANCH  22  26
ATOM     26  O   UNL     1     -35.900  43.662  -5.043  0.00  0.00    +0.000 OA
ATOM     27  C   UNL     1     -36.182  42.287  -5.051  0.00  0.00    +0.000 C 
ENDBRANCH  22  26
BRANCH  23  28
ATOM     28  O   UNL     1     -33.618  44.110  -3.679  0.00  0.00    +0.000 OA
ATOM     29  H   UNL     1     -34.012  44.902  -3.271  0.00  0.00    +0.000 HD
ENDBRANCH  23  28
ENDBRANCH  19  20
ENDBRANCH   4  18
TORSDOF 8
ENDMDL
MODEL 2
REMARK VINA RESULT:      -6.3      1.370     11.740
REMARK  Name = Curcumin.pdbqt.pdb
REMARK  8 active torsions:
REMARK  status: ('A' for Active; 'I' for Inactive)
REMARK    1  A    between atoms: C_2  and  C_4
REMARK    2  A    between atoms: C_5  and  C_6
REMARK    3  A    between atoms: C_8  and  O_12
REMARK    4  A    between atoms: C_9  and  O_14
REMARK    5  A    between atoms: C_16  and  C_18
REMARK    6  A    between atoms: C_19  and  C_20
REMARK    7  A    between atoms: C_22  and  O_26
REMARK    8  A    between atoms: C_23  and  O_28
REMARK                            x       y       z     vdW  Elec       q    Type
REMARK                         _______ _______ _______ _____ _____    ______ ____
ROOT
ATOM      1  C   UNL     1     -34.552  46.096 -12.854  0.00  0.00    +0.000 C 
ATOM      2  C   UNL     1     -33.617  45.271 -12.165  0.00  0.00    +0.000 C 
ATOM      3  O   UNL     1     -32.815  44.604 -12.802  0.00  0.00    +0.000 OA
ATOM      4  C   UNL     1     -35.489  46.919 -13.543  0.00  0.00    +0.000 C 
ATOM      5  O   UNL     1     -36.477  47.337 -12.957  0.00  0.00    +0.000 OA
ENDROOT
BRANCH   2   6
ATOM      6  C   UNL     1     -33.621  45.230 -10.725  0.00  0.00    +0.000 C 
ATOM      7  C   UNL     1     -33.622  45.195  -9.524  0.00  0.00    +0.000 C 
BRANCH   7   8
ATOM      8  C   UNL     1     -33.624  45.156  -8.098  0.00  0.00    +0.000 A 
ATOM      9  C   UNL     1     -34.749  45.581  -7.393  0.00  0.00    +0.000 A 
ATOM     10  C   UNL     1     -34.769  45.549  -5.995  0.00  0.00    +0.000 A 
ATOM     11  C   UNL     1     -33.637  45.084  -5.318  0.00  0.00    +0.000 A 
ATOM     12  C   UNL     1     -32.511  44.658  -6.021  0.00  0.00    +0.000 A 
ATOM     13  C   UNL     1     -32.505  44.695  -7.413  0.00  0.00    +0.000 A 
BRANCH  10  14
ATOM     14  O   UNL     1     -35.839  45.950  -5.235  0.00  0.00    +0.000 OA
ATOM     15  C   UNL     1     -37.099  45.531  -5.676  0.00  0.00    +0.000 C 
ENDBRANCH  10  14
BRANCH  11  16
ATOM     16  O   UNL     1     -33.563  45.016  -3.954  0.00  0.00    +0.000 OA
ATOM     17  H   UNL     1     -33.550  44.091  -3.656  0.00  0.00    +0.000 HD
ENDBRANCH  11  16
ENDBRANCH   7   8
ENDBRANCH   2   6
BRANCH   4  18
ATOM     18  C   UNL     1     -35.266  47.252 -14.927  0.00  0.00    +0.000 C 
ATOM     19  C   UNL     1     -35.076  47.533 -16.080  0.00  0.00    +0.000 C 
BRANCH  19  20
ATOM     20  C   UNL     1     -34.848  47.868 -17.447  0.00  0.00    +0.000 A 
ATOM     21  C   UNL     1     -34.550  46.864 -18.367  0.00  0.00    +0.000 A 
ATOM     22  C   UNL     1     -34.324  47.175 -19.711  0.00  0.00    +0.000 A 
ATOM     23  C   UNL     1     -34.404  48.512 -20.112  0.00  0.00    +0.000 A 
ATOM     24  C   UNL     1     -34.701  49.520 -19.196  0.00  0.00    +0.000 A 
ATOM     25  C   UNL     1     -34.924  49.196 -17.861  0.00  0.00    +0.000 A 
BRANCH  22  26
ATOM     26  O   UNL     1     -34.025  46.250 -20.681  0.00  0.00    +0.000 OA
ATOM     27  C   UNL     1     -34.835  45.103 -20.693  0.00  0.00    +0.000 C 
ENDBRANCH  22  26
BRANCH  23  28
ATOM     28  O   UNL     1     -34.186  48.837 -21.423  0.00  0.00    +0.000 OA
ATOM     29  H   UNL     1     -34.280  49.802 -21.524  0.00  0.00    +0.000 HD
ENDBRANCH  23  28
ENDBRANCH  19  20
ENDBRANCH   4  18
TORSDOF 8
ENDMDL
MODEL 3
REMARK VINA RESULT:      -6.2      2.412     12.252
REMARK  Name = Curcumin.pdbqt.pdb
REMARK  8 active torsions:
REMARK  status: ('A' for Active; 'I' for Inactive)
REMARK    1  A    between atoms: C_2  and  C_4
REMARK    2  A    between atoms: C_5  and  C_6
REMARK    3  A    between atoms: C_8  and  O_12
REMARK    4  A    between atoms: C_9  and  O_14
REMARK    5  A    between atoms: C_16  and  C_18
REMARK    6  A    between atoms: C_19  and  C_20
REMARK    7  A    between atoms: C_22  and  O_26
REMARK    8  A    between atoms: C_23  and  O_28
REMARK                            x       y       z     vdW  Elec       q    Type
REMARK                         _______ _______ _______ _____ _____    ______ ____
ROOT
ATOM      1  C   UNL     1     -33.888  46.863 -15.725  0.00  0.00    +0.000 C 
ATOM      2  C   UNL     1     -34.512  47.104 -14.467  0.00  0.00    +0.000 C 
ATOM      3  O   UNL     1     -35.198  48.104 -14.314  0.00  0.00    +0.000 OA
ATOM      4  C   UNL     1     -33.262  46.625 -16.983  0.00  0.00    +0.000 C 
ATOM      5  O   UNL     1     -32.343  45.822 -17.061  0.00  0.00    +0.000 OA
ENDROOT
BRANCH   2   6
ATOM      6  C   UNL     1     -34.333  46.168 -13.387  0.00  0.00    +0.000 C 
ATOM      7  C   UNL     1     -34.183  45.389 -12.485  0.00  0.00    +0.000 C 
BRANCH   7   8
ATOM      8  C   UNL     1     -34.007  44.463 -11.413  0.00  0.00    +0.000 A 
ATOM      9  C   UNL     1     -33.128  44.762 -10.375  0.00  0.00    +0.000 A 
ATOM     10  C   UNL     1     -32.943  43.867  -9.316  0.00  0.00    +0.000 A 
ATOM     11  C   UNL     1     -33.658  42.665  -9.321  0.00  0.00    +0.000 A 
ATOM     12  C   UNL     1     -34.538  42.363 -10.360  0.00  0.00    +0.000 A 
ATOM     13  C   UNL     1     -34.712  43.264 -11.407  0.00  0.00    +0.000 A 
BRANCH  10  14
ATOM     14  O   UNL     1     -32.097  44.093  -8.260  0.00  0.00    +0.000 OA
ATOM     15  C   UNL     1     -32.576  44.945  -7.258  0.00  0.00    +0.000 C 
ENDBRANCH  10  14
BRANCH  11  16
ATOM     16  O   UNL     1     -33.544  41.728  -8.331  0.00  0.00    +0.000 OA
ATOM     17  H   UNL     1     -32.856  41.078  -8.552  0.00  0.00    +0.000 HD
ENDBRANCH  11  16
ENDBRANCH   7   8
ENDBRANCH   2   6
BRANCH   4  18
ATOM     18  C   UNL     1     -33.716  47.331 -18.154  0.00  0.00    +0.000 C 
ATOM     19  C   UNL     1     -34.097  47.924 -19.128  0.00  0.00    +0.000 C 
BRANCH  19  20
ATOM     20  C   UNL     1     -34.551  48.628 -20.280  0.00  0.00    +0.000 A 
ATOM     21  C   UNL     1     -35.154  49.877 -20.138  0.00  0.00    +0.000 A 
ATOM     22  C   UNL     1     -35.604  50.581 -21.258  0.00  0.00    +0.000 A 
ATOM     23  C   UNL     1     -35.438  50.009 -22.522  0.00  0.00    +0.000 A 
ATOM     24  C   UNL     1     -34.836  48.760 -22.670  0.00  0.00    +0.000 A 
ATOM     25  C   UNL     1     -34.392  48.070 -21.547  0.00  0.00    +0.000 A 
BRANCH  22  26
ATOM     26  O   UNL     1     -36.208  51.814 -21.206  0.00  0.00    +0.000 OA
ATOM     27  C   UNL     1     -37.531  51.822 -20.737  0.00  0.00    +0.000 C 
ENDBRANCH  22  26
BRANCH  23  28
ATOM     28  O   UNL     1     -35.872  50.682 -23.631  0.00  0.00    +0.000 OA
ATOM     29  H   UNL     1     -36.373  51.467 -23.343  0.00  0.00    +0.000 HD
ENDBRANCH  23  28
ENDBRANCH  19  20
ENDBRANCH   4  18
TORSDOF 8
ENDMDL
MODEL 4
REMARK VINA RESULT:      -5.7     22.147     22.971
REMARK  Name = Curcumin.pdbqt.pdb
REMARK  8 active torsions:
REMARK  status: ('A' for Active; 'I' for Inactive)
REMARK    1  A    between atoms: C_2  and  C_4
REMARK    2  A    between atoms: C_5  and  C_6
REMARK    3  A    between atoms: C_8  and  O_12
REMARK    4  A    between atoms: C_9  and  O_14
REMARK    5  A    between atoms: C_16  and  C_18
REMARK    6  A    between atoms: C_19  and  C_20
REMARK    7  A    between atoms: C_22  and  O_26
REMARK    8  A    between atoms: C_23  and  O_28
REMARK                            x       y       z     vdW  Elec       q    Type
REMARK                         _______ _______ _______ _____ _____    ______ ____
ROOT
ATOM      1  C   UNL     1     -15.097  54.533 -22.069  0.00  0.00    +0.000 C 
ATOM      2  C   UNL     1     -15.279  53.548 -23.083  0.00  0.00    +0.000 C 
ATOM      3  O   UNL     1     -14.875  52.410 -22.901  0.00  0.00    +0.000 OA
ATOM      4  C   UNL     1     -14.910  55.517 -21.056  0.00  0.00    +0.000 C 
ATOM      5  O   UNL     1     -15.019  56.703 -21.335  0.00  0.00    +0.000 OA
ENDROOT
BRANCH   2   6
ATOM      6  C   UNL     1     -15.941  53.900 -24.314  0.00  0.00    +0.000 C 
ATOM      7  C   UNL     1     -16.494  54.195 -25.339  0.00  0.00    +0.000 C 
BRANCH   7   8
ATOM      8  C   UNL     1     -17.149  54.546 -26.557  0.00  0.00    +0.000 A 
ATOM      9  C   UNL     1     -17.123  55.865 -27.004  0.00  0.00    +0.000 A 
ATOM     10  C   UNL     1     -17.759  56.227 -28.196  0.00  0.00    +0.000 A 
ATOM     11  C   UNL     1     -18.423  55.239 -28.930  0.00  0.00    +0.000 A 
ATOM     12  C   UNL     1     -18.450  53.918 -28.484  0.00  0.00    +0.000 A 
ATOM     13  C   UNL     1     -17.812  53.571 -27.296  0.00  0.00    +0.000 A 
BRANCH  10  14
ATOM     14  O   UNL     1     -17.775  57.504 -28.698  0.00  0.00    +0.000 OA
ATOM     15  C   UNL     1     -17.309  58.509 -27.844  0.00  0.00    +0.000 C 
ENDBRANCH  10  14
BRANCH  11  16
ATOM     16  O   UNL     1     -19.073  55.497 -30.105  0.00  0.00    +0.000 OA
ATOM     17  H   UNL     1     -19.967  55.839 -29.935  0.00  0.00    +0.000 HD
ENDBRANCH  11  16
ENDBRANCH   7   8
ENDBRANCH   2   6
BRANCH   4  18
ATOM     18  C   UNL     1     -14.596  55.109 -19.711  0.00  0.00    +0.000 C 
ATOM     19  C   UNL     1     -14.329  54.771 -18.589  0.00  0.00    +0.000 C 
BRANCH  19  20
ATOM     20  C   UNL     1     -14.010  54.371 -17.259  0.00  0.00    +0.000 A 
ATOM     21  C   UNL     1     -14.636  54.992 -16.178  0.00  0.00    +0.000 A 
ATOM     22  C   UNL     1     -14.335  54.612 -14.868  0.00  0.00    +0.000 A 
ATOM     23  C   UNL     1     -13.395  53.598 -14.662  0.00  0.00    +0.000 A 
ATOM     24  C   UNL     1     -12.766  52.974 -15.738  0.00  0.00    +0.000 A 
ATOM     25  C   UNL     1     -13.075  53.362 -17.039  0.00  0.00    +0.000 A 
BRANCH  22  26
ATOM     26  O   UNL     1     -14.905  55.171 -13.749  0.00  0.00    +0.000 OA
ATOM     27  C   UNL     1     -14.272  56.324 -13.260  0.00  0.00    +0.000 C 
ENDBRANCH  22  26
BRANCH  23  28
ATOM     28  O   UNL     1     -13.086  53.212 -13.387  0.00  0.00    +0.000 OA
ATOM     29  H   UNL     1     -12.892  54.008 -12.858  0.00  0.00    +0.000 HD
ENDBRANCH  23  28
ENDBRANCH  19  20
ENDBRANCH   4  18
TORSDOF 8
ENDMDL
MODEL 5
REMARK VINA RESULT:      -5.7     23.320     26.530
REMARK  Name = Curcumin.pdbqt.pdb
REMARK  8 active torsions:
REMARK  status: ('A' for Active; 'I' for Inactive)
REMARK    1  A    between atoms: C_2  and  C_4
REMARK    2  A    between atoms: C_5  and  C_6
REMARK    3  A    between atoms: C_8  and  O_12
REMARK    4  A    between atoms: C_9  and  O_14
REMARK    5  A    between atoms: C_16  and  C_18
REMARK    6  A    between atoms: C_19  and  C_20
REMARK    7  A    between atoms: C_22  and  O_26
REMARK    8  A    between atoms: C_23  and  O_28
REMARK                            x       y       z     vdW  Elec       q    Type
REMARK                         _______ _______ _______ _____ _____    ______ ____
ROOT
ATOM      1  C   UNL     1     -17.895  54.414 -28.059  0.00  0.00    +0.000 C 
ATOM      2  C   UNL     1     -17.581  55.645 -27.414  0.00  0.00    +0.000 C 
ATOM      3  O   UNL     1     -17.689  56.696 -28.030  0.00  0.00    +0.000 OA
ATOM      4  C   UNL     1     -18.207  53.183 -28.707  0.00  0.00    +0.000 C 
ATOM      5  O   UNL     1     -17.815  52.129 -28.227  0.00  0.00    +0.000 OA
ENDROOT
BRANCH   2   6
ATOM      6  C   UNL     1     -17.142  55.644 -26.042  0.00  0.00    +0.000 C 
ATOM      7  C   UNL     1     -16.773  55.643 -24.899  0.00  0.00    +0.000 C 
BRANCH   7   8
ATOM      8  C   UNL     1     -16.337  55.644 -23.541  0.00  0.00    +0.000 A 
ATOM      9  C   UNL     1     -15.451  54.665 -23.095  0.00  0.00    +0.000 A 
ATOM     10  C   UNL     1     -15.013  54.651 -21.767  0.00  0.00    +0.000 A 
ATOM     11  C   UNL     1     -15.481  55.638 -20.894  0.00  0.00    +0.000 A 
ATOM     12  C   UNL     1     -16.367  56.619 -21.338  0.00  0.00    +0.000 A 
ATOM     13  C   UNL     1     -16.796  56.622 -22.663  0.00  0.00    +0.000 A 
BRANCH  10  14
ATOM     14  O   UNL     1     -14.142  53.721 -21.258  0.00  0.00    +0.000 OA
ATOM     15  C   UNL     1     -12.805  53.848 -21.650  0.00  0.00    +0.000 C 
ENDBRANCH  10  14
BRANCH  11  16
ATOM     16  O   UNL     1     -15.109  55.706 -19.580  0.00  0.00    +0.000 OA
ATOM     17  H   UNL     1     -15.721  56.270 -19.079  0.00  0.00    +0.000 HD
ENDBRANCH  11  16
ENDBRANCH   7   8
ENDBRANCH   2   6
BRANCH   4  18
ATOM     18  C   UNL     1     -18.980  53.190 -29.922  0.00  0.00    +0.000 C 
ATOM     19  C   UNL     1     -19.624  53.191 -30.937  0.00  0.00    +0.000 C 
BRANCH  19  20
ATOM     20  C   UNL     1     -20.386  53.190 -32.141  0.00  0.00    +0.000 A 
ATOM     21  C   UNL     1     -19.977  52.407 -33.220  0.00  0.00    +0.000 A 
ATOM     22  C   UNL     1     -20.713  52.394 -34.408  0.00  0.00    +0.000 A 
ATOM     23  C   UNL     1     -21.865  53.180 -34.493  0.00  0.00    +0.000 A 
ATOM     24  C   UNL     1     -22.279  53.965 -33.417  0.00  0.00    +0.000 A 
ATOM     25  C   UNL     1     -21.537  53.969 -32.240  0.00  0.00    +0.000 A 
BRANCH  22  26
ATOM     26  O   UNL     1     -20.381  51.653 -35.517  0.00  0.00    +0.000 OA
ATOM     27  C   UNL     1     -19.550  50.547 -35.279  0.00  0.00    +0.000 C 
ENDBRANCH  22  26
BRANCH  23  28
ATOM     28  O   UNL     1     -22.599  53.181 -35.647  0.00  0.00    +0.000 OA
ATOM     29  H   UNL     1     -22.272  53.896 -36.223  0.00  0.00    +0.000 HD
ENDBRANCH  23  28
ENDBRANCH  19  20
ENDBRANCH   4  18
TORSDOF 8
ENDMDL
MODEL 6
REMARK VINA RESULT:      -5.7     23.128     26.269
REMARK  Name = Curcumin.pdbqt.pdb
REMARK  8 active torsions:
REMARK  status: ('A' for Active; 'I' for Inactive)
REMARK    1  A    between atoms: C_2  and  C_4
REMARK    2  A    between atoms: C_5  and  C_6
REMARK    3  A    between atoms: C_8  and  O_12
REMARK    4  A    between atoms: C_9  and  O_14
REMARK    5  A    between atoms: C_16  and  C_18
REMARK    6  A    between atoms: C_19  and  C_20
REMARK    7  A    between atoms: C_22  and  O_26
REMARK    8  A    between atoms: C_23  and  O_28
REMARK                            x       y       z     vdW  Elec       q    Type
REMARK                         _______ _______ _______ _____ _____    ______ ____
ROOT
ATOM      1  C   UNL     1     -17.947  54.721 -28.095  0.00  0.00    +0.000 C 
ATOM      2  C   UNL     1     -17.588  55.870 -27.331  0.00  0.00    +0.000 C 
ATOM      3  O   UNL     1     -17.683  56.982 -27.829  0.00  0.00    +0.000 OA
ATOM      4  C   UNL     1     -18.303  53.573 -28.861  0.00  0.00    +0.000 C 
ATOM      5  O   UNL     1     -17.927  52.466 -28.505  0.00  0.00    +0.000 OA
ENDROOT
BRANCH   2   6
ATOM      6  C   UNL     1     -17.119  55.713 -25.978  0.00  0.00    +0.000 C 
ATOM      7  C   UNL     1     -16.729  55.584 -24.849  0.00  0.00    +0.000 C 
BRANCH   7   8
ATOM      8  C   UNL     1     -16.267  55.429 -23.508  0.00  0.00    +0.000 A 
ATOM      9  C   UNL     1     -16.536  56.416 -22.562  0.00  0.00    +0.000 A 
ATOM     10  C   UNL     1     -16.091  56.281 -21.243  0.00  0.00    +0.000 A 
ATOM     11  C   UNL     1     -15.370  55.136 -20.892  0.00  0.00    +0.000 A 
ATOM     12  C   UNL     1     -15.099  54.147 -21.837  0.00  0.00    +0.000 A 
ATOM     13  C   UNL     1     -15.547  54.294 -23.146  0.00  0.00    +0.000 A 
BRANCH  10  14
ATOM     14  O   UNL     1     -16.320  57.209 -20.259  0.00  0.00    +0.000 OA
ATOM     15  C   UNL     1     -16.470  58.534 -20.684  0.00  0.00    +0.000 C 
ENDBRANCH  10  14
BRANCH  11  16
ATOM     16  O   UNL     1     -14.894  54.916 -19.629  0.00  0.00    +0.000 OA
ATOM     17  H   UNL     1     -15.625  54.737 -19.013  0.00  0.00    +0.000 HD
ENDBRANCH  11  16
ENDBRANCH   7   8
ENDBRANCH   2   6
BRANCH   4  18
ATOM     18  C   UNL     1     -19.103  53.726 -30.049  0.00  0.00    +0.000 C 
ATOM     19  C   UNL     1     -19.769  53.850 -31.042  0.00  0.00    +0.000 C 
BRANCH  19  20
ATOM     20  C   UNL     1     -20.558  53.993 -32.220  0.00  0.00    +0.000 A 
ATOM     21  C   UNL     1     -21.164  52.874 -32.789  0.00  0.00    +0.000 A 
ATOM     22  C   UNL     1     -21.941  52.996 -33.945  0.00  0.00    +0.000 A 
ATOM     23  C   UNL     1     -22.099  54.262 -34.516  0.00  0.00    +0.000 A 
ATOM     24  C   UNL     1     -21.495  55.385 -33.951  0.00  0.00    +0.000 A 
ATOM     25  C   UNL     1     -20.724  55.248 -32.801  0.00  0.00    +0.000 A 
BRANCH  22  26
ATOM     26  O   UNL     1     -22.572  51.948 -34.569  0.00  0.00    +0.000 OA
ATOM     27  C   UNL     1     -23.688  51.425 -33.896  0.00  0.00    +0.000 C 
ENDBRANCH  22  26
BRANCH  23  28
ATOM     28  O   UNL     1     -22.855  54.403 -35.647  0.00  0.00    +0.000 OA
ATOM     29  H   UNL     1     -22.333  54.100 -36.412  0.00  0.00    +0.000 HD
ENDBRANCH  23  28
ENDBRANCH  19  20
ENDBRANCH   4  18
TORSDOF 8
ENDMDL
MODEL 7
REMARK VINA RESULT:      -5.6      5.965     14.520
REMARK  Name = Curcumin.pdbqt.pdb
REMARK  8 active torsions:
REMARK  status: ('A' for Active; 'I' for Inactive)
REMARK    1  A    between atoms: C_2  and  C_4
REMARK    2  A    between atoms: C_5  and  C_6
REMARK    3  A    between atoms: C_8  and  O_12
REMARK    4  A    between atoms: C_9  and  O_14
REMARK    5  A    between atoms: C_16  and  C_18
REMARK    6  A    between atoms: C_19  and  C_20
REMARK    7  A    between atoms: C_22  and  O_26
REMARK    8  A    between atoms: C_23  and  O_28
REMARK                            x       y       z     vdW  Elec       q    Type
REMARK                         _______ _______ _______ _____ _____    ______ ____
ROOT
ATOM      1  C   UNL     1     -38.118  52.783 -18.418  0.00  0.00    +0.000 C 
ATOM      2  C   UNL     1     -37.641  51.573 -19.000  0.00  0.00    +0.000 C 
ATOM      3  O   UNL     1     -37.728  51.407 -20.207  0.00  0.00    +0.000 OA
ATOM      4  C   UNL     1     -38.599  53.992 -17.836  0.00  0.00    +0.000 C 
ATOM      5  O   UNL     1     -38.806  54.046 -16.632  0.00  0.00    +0.000 OA
ENDROOT
BRANCH   2   6
ATOM      6  C   UNL     1     -37.056  50.557 -18.162  0.00  0.00    +0.000 C 
ATOM      7  C   UNL     1     -36.570  49.709 -17.463  0.00  0.00    +0.000 C 
BRANCH   7   8
ATOM      8  C   UNL     1     -35.994  48.702 -16.634  0.00  0.00    +0.000 A 
ATOM      9  C   UNL     1     -35.281  47.652 -17.210  0.00  0.00    +0.000 A 
ATOM     10  C   UNL     1     -34.708  46.656 -16.413  0.00  0.00    +0.000 A 
ATOM     11  C   UNL     1     -34.866  46.733 -15.025  0.00  0.00    +0.000 A 
ATOM     12  C   UNL     1     -35.579  47.782 -14.447  0.00  0.00    +0.000 A 
ATOM     13  C   UNL     1     -36.144  48.767 -15.252  0.00  0.00    +0.000 A 
BRANCH  10  14
ATOM     14  O   UNL     1     -33.993  45.595 -16.908  0.00  0.00    +0.000 OA
ATOM     15  C   UNL     1     -32.700  45.881 -17.361  0.00  0.00    +0.000 C 
ENDBRANCH  10  14
BRANCH  11  16
ATOM     16  O   UNL     1     -34.344  45.807 -14.166  0.00  0.00    +0.000 OA
ATOM     17  H   UNL     1     -33.400  45.664 -14.347  0.00  0.00    +0.000 HD
ENDBRANCH  11  16
ENDBRANCH   7   8
ENDBRANCH   2   6
BRANCH   4  18
ATOM     18  C   UNL     1     -38.839  55.141 -18.671  0.00  0.00    +0.000 C 
ATOM     19  C   UNL     1     -39.038  56.103 -19.364  0.00  0.00    +0.000 C 
BRANCH  19  20
ATOM     20  C   UNL     1     -39.274  57.246 -20.183  0.00  0.00    +0.000 A 
ATOM     21  C   UNL     1     -40.117  58.261 -19.731  0.00  0.00    +0.000 A 
ATOM     22  C   UNL     1     -40.359  59.388 -20.521  0.00  0.00    +0.000 A 
ATOM     23  C   UNL     1     -39.740  59.476 -21.771  0.00  0.00    +0.000 A 
ATOM     24  C   UNL     1     -38.896  58.464 -22.228  0.00  0.00    +0.000 A 
ATOM     25  C   UNL     1     -38.664  57.347 -21.431  0.00  0.00    +0.000 A 
BRANCH  22  26
ATOM     26  O   UNL     1     -41.173  60.431 -20.154  0.00  0.00    +0.000 OA
ATOM     27  C   UNL     1     -42.443  60.069 -19.677  0.00  0.00    +0.000 C 
ENDBRANCH  22  26
BRANCH  23  28
ATOM     28  O   UNL     1     -39.964  60.571 -22.560  0.00  0.00    +0.000 OA
ATOM     29  H   UNL     1     -39.145  61.098 -22.603  0.00  0.00    +0.000 HD
ENDBRANCH  23  28
ENDBRANCH  19  20
ENDBRANCH   4  18
TORSDOF 8
ENDMDL
MODEL 8
REMARK VINA RESULT:      -5.6     22.199     25.664
REMARK  Name = Curcumin.pdbqt.pdb
REMARK  8 active torsions:
REMARK  status: ('A' for Active; 'I' for Inactive)
REMARK    1  A    between atoms: C_2  and  C_4
REMARK    2  A    between atoms: C_5  and  C_6
REMARK    3  A    between atoms: C_8  and  O_12
REMARK    4  A    between atoms: C_9  and  O_14
REMARK    5  A    between atoms: C_16  and  C_18
REMARK    6  A    between atoms: C_19  and  C_20
REMARK    7  A    between atoms: C_22  and  O_26
REMARK    8  A    between atoms: C_23  and  O_28
REMARK                            x       y       z     vdW  Elec       q    Type
REMARK                         _______ _______ _______ _____ _____    ______ ____
ROOT
ATOM      1  C   UNL     1     -15.204  54.844 -22.172  0.00  0.00    +0.000 C 
ATOM      2  C   UNL     1     -14.994  55.785 -21.122  0.00  0.00    +0.000 C 
ATOM      3  O   UNL     1     -15.098  56.981 -21.352  0.00  0.00    +0.000 OA
ATOM      4  C   UNL     1     -15.409  53.905 -23.224  0.00  0.00    +0.000 C 
ATOM      5  O   UNL     1     -15.012  52.756 -23.098  0.00  0.00    +0.000 OA
ENDROOT
BRANCH   2   6
ATOM      6  C   UNL     1     -14.665  55.320 -19.799  0.00  0.00    +0.000 C 
ATOM      7  C   UNL     1     -14.389  54.933 -18.696  0.00  0.00    +0.000 C 
BRANCH   7   8
ATOM      8  C   UNL     1     -14.062  54.476 -17.385  0.00  0.00    +0.000 A 
ATOM      9  C   UNL     1     -14.682  55.047 -16.275  0.00  0.00    +0.000 A 
ATOM     10  C   UNL     1     -14.374  54.610 -14.982  0.00  0.00    +0.000 A 
ATOM     11  C   UNL     1     -13.431  53.589 -14.825  0.00  0.00    +0.000 A 
ATOM     12  C   UNL     1     -12.810  53.016 -15.934  0.00  0.00    +0.000 A 
ATOM     13  C   UNL     1     -13.126  53.460 -17.215  0.00  0.00    +0.000 A 
BRANCH  10  14
ATOM     14  O   UNL     1     -14.943  55.123 -13.844  0.00  0.00    +0.000 OA
ATOM     15  C   UNL     1     -14.309  56.240 -13.287  0.00  0.00    +0.000 C 
ENDBRANCH  10  14
BRANCH  11  16
ATOM     16  O   UNL     1     -13.066  53.097 -13.603  0.00  0.00    +0.000 OA
ATOM     17  H   UNL     1     -12.869  52.147 -13.660  0.00  0.00    +0.000 HD
ENDBRANCH  11  16
ENDBRANCH   7   8
ENDBRANCH   2   6
BRANCH   4  18
ATOM     18  C   UNL     1     -16.084  54.317 -24.429  0.00  0.00    +0.000 C 
ATOM     19  C   UNL     1     -16.649  54.656 -25.434  0.00  0.00    +0.000 C 
BRANCH  19  20
ATOM     20  C   UNL     1     -17.321  55.054 -26.626  0.00  0.00    +0.000 A 
ATOM     21  C   UNL     1     -17.492  56.409 -26.906  0.00  0.00    +0.000 A 
ATOM     22  C   UNL     1     -18.148  56.817 -28.071  0.00  0.00    +0.000 A 
ATOM     23  C   UNL     1     -18.627  55.840 -28.948  0.00  0.00    +0.000 A 
ATOM     24  C   UNL     1     -18.459  54.484 -28.673  0.00  0.00    +0.000 A 
ATOM     25  C   UNL     1     -17.804  54.092 -27.510  0.00  0.00    +0.000 A 
BRANCH  22  26
ATOM     26  O   UNL     1     -18.359  58.129 -28.422  0.00  0.00    +0.000 OA
ATOM     27  C   UNL     1     -17.202  58.875 -28.697  0.00  0.00    +0.000 C 
ENDBRANCH  22  26
BRANCH  23  28
ATOM     28  O   UNL     1     -19.272  56.219 -30.094  0.00  0.00    +0.000 OA
ATOM     29  H   UNL     1     -19.759  57.045 -29.919  0.00  0.00    +0.000 HD
ENDBRANCH  23  28
ENDBRANCH  19  20
ENDBRANCH   4  18
TORSDOF 8
ENDMDL
MODEL 9
REMARK VINA RESULT:      -5.6     22.531     25.715
REMARK  Name = Curcumin.pdbqt.pdb
REMARK  8 active torsions:
REMARK  status: ('A' for Active; 'I' for Inactive)
REMARK    1  A    between atoms: C_2  and  C_4
REMARK    2  A    between atoms: C_5  and  C_6
REMARK    3  A    between atoms: C_8  and  O_12
REMARK    4  A    between atoms: C_9  and  O_14
REMARK    5  A    between atoms: C_16  and  C_18
REMARK    6  A    between atoms: C_19  and  C_20
REMARK    7  A    between atoms: C_22  and  O_26
REMARK    8  A    between atoms: C_23  and  O_28
REMARK                            x       y       z     vdW  Elec       q    Type
REMARK                         _______ _______ _______ _____ _____    ______ ____
ROOT
ATOM      1  C   UNL     1     -16.545  56.203 -23.903  0.00  0.00    +0.000 C 
ATOM      2  C   UNL     1     -16.791  57.378 -23.135  0.00  0.00    +0.000 C 
ATOM      3  O   UNL     1     -17.265  58.366 -23.675  0.00  0.00    +0.000 OA
ATOM      4  C   UNL     1     -16.296  55.031 -24.674  0.00  0.00    +0.000 C 
ATOM      5  O   UNL     1     -15.551  54.165 -24.237  0.00  0.00    +0.000 OA
ENDROOT
BRANCH   2   6
ATOM      6  C   UNL     1     -16.482  57.392 -21.727  0.00  0.00    +0.000 C 
ATOM      7  C   UNL     1     -16.227  57.404 -20.554  0.00  0.00    +0.000 C 
BRANCH   7   8
ATOM      8  C   UNL     1     -15.923  57.417 -19.160  0.00  0.00    +0.000 A 
ATOM      9  C   UNL     1     -16.758  58.094 -18.273  0.00  0.00    +0.000 A 
ATOM     10  C   UNL     1     -16.476  58.117 -16.904  0.00  0.00    +0.000 A 
ATOM     11  C   UNL     1     -15.339  57.447 -16.441  0.00  0.00    +0.000 A 
ATOM     12  C   UNL     1     -14.502  56.768 -17.326  0.00  0.00    +0.000 A 
ATOM     13  C   UNL     1     -14.795  56.754 -18.687  0.00  0.00    +0.000 A 
BRANCH  10  14
ATOM     14  O   UNL     1     -17.252  58.761 -15.972  0.00  0.00    +0.000 OA
ATOM     15  C   UNL     1     -17.487  60.121 -16.201  0.00  0.00    +0.000 C 
ENDBRANCH  10  14
BRANCH  11  16
ATOM     16  O   UNL     1     -14.982  57.413 -15.121  0.00  0.00    +0.000 OA
ATOM     17  H   UNL     1     -14.503  58.222 -14.875  0.00  0.00    +0.000 HD
ENDBRANCH  11  16
ENDBRANCH   7   8
ENDBRANCH   2   6
BRANCH   4  18
ATOM     18  C   UNL     1     -16.923  54.874 -25.961  0.00  0.00    +0.000 C 
ATOM     19  C   UNL     1     -17.446  54.738 -27.035  0.00  0.00    +0.000 C 
BRANCH  19  20
ATOM     20  C   UNL     1     -18.064  54.574 -28.308  0.00  0.00    +0.000 A 
ATOM     21  C   UNL     1     -18.195  55.669 -29.162  0.00  0.00    +0.000 A 
ATOM     22  C   UNL     1     -18.799  55.525 -30.414  0.00  0.00    +0.000 A 
ATOM     23  C   UNL     1     -19.267  54.264 -30.793  0.00  0.00    +0.000 A 
ATOM     24  C   UNL     1     -19.138  53.166 -29.943  0.00  0.00    +0.000 A 
ATOM     25  C   UNL     1     -18.535  53.323 -28.699  0.00  0.00    +0.000 A 
BRANCH  22  26
ATOM     26  O   UNL     1     -18.968  56.549 -31.315  0.00  0.00    +0.000 OA
ATOM     27  C   UNL     1     -18.145  57.669 -31.119  0.00  0.00    +0.000 C 
ENDBRANCH  22  26
BRANCH  23  28
ATOM     28  O   UNL     1     -19.861  54.103 -32.015  0.00  0.00    +0.000 OA
ATOM     29  H   UNL     1     -20.731  54.541 -31.999  0.00  0.00    +0.000 HD
ENDBRANCH  23  28
ENDBRANCH  19  20
ENDBRANCH   4  18
TORSDOF 8
ENDMDL
