MODEL 1
REMARK VINA RESULT:     -10.8      0.000      0.000
REMARK  Name = Cyclosporin_A.pdbqt.pdb
REMARK  4 active torsions:
REMARK  status: ('A' for Active; 'I' for Inactive)
REMARK    1  A    between atoms: N_13  and  C_36
REMARK    2  A    between atoms: C_36  and  O_70
REMARK    3  A    between atoms: C_72  and  C_73
REMARK    4  A    between atoms: C_75  and  C_76
REMARK                            x       y       z     vdW  Elec       q    Type
REMARK                         _______ _______ _______ _____ _____    ______ ____
ROOT
ATOM      1  O   UNL     1     -35.705  38.898  -8.078  0.00  0.00    +0.000 OA
ATOM      2  O   UNL     1     -37.506  43.088  -5.731  0.00  0.00    +0.000 OA
ATOM      3  O   UNL     1     -34.460  46.431  -7.300  0.00  0.00    +0.000 OA
ATOM      4  O   UNL     1     -30.882  38.508  -8.847  0.00  0.00    +0.000 OA
ATOM      5  O   UNL     1     -38.891  44.914  -9.245  0.00  0.00    +0.000 OA
ATOM      6  O   UNL     1     -33.877  45.312 -19.334  0.00  0.00    +0.000 OA
ATOM      7  O   UNL     1     -34.351  36.928 -12.916  0.00  0.00    +0.000 OA
ATOM      8  O   UNL     1     -30.399  42.569 -17.178  0.00  0.00    +0.000 OA
ATOM      9  O   UNL     1     -36.908  47.859 -16.540  0.00  0.00    +0.000 OA
ATOM     10  O   UNL     1     -31.519  38.908 -15.692  0.00  0.00    +0.000 OA
ATOM     11  O   UNL     1     -38.828  45.408 -13.555  0.00  0.00    +0.000 OA
ATOM     12  N   UNL     1     -36.238  42.051  -6.764  0.00  0.00    +0.000 NA
ATOM     13  N   UNL     1     -33.960  40.545  -8.237  0.00  0.00    +0.000 NA
ATOM     14  N   UNL     1     -35.912  45.265  -6.614  0.00  0.00    +0.000 NA
ATOM     15  N   UNL     1     -36.872  46.530  -9.369  0.00  0.00    +0.000 NA
ATOM     16  N   UNL     1     -32.442  39.230 -10.578  0.00  0.00    +0.000 NA
ATOM     17  N   UNL     1     -33.436  46.422 -17.305  0.00  0.00    +0.000 N 
ATOM     18  N   UNL     1     -32.414  43.587 -16.561  0.00  0.00    +0.000 N 
ATOM     19  N   UNL     1     -32.101  40.784 -15.865  0.00  0.00    +0.000 NA
ATOM     20  N   UNL     1     -34.107  39.179 -13.134  0.00  0.00    +0.000 NA
ATOM     21  N   UNL     1     -36.819  45.327 -12.097  0.00  0.00    +0.000 NA
ATOM     22  N   UNL     1     -35.872  45.982 -15.429  0.00  0.00    +0.000 NA
ATOM     23  C   UNL     1     -36.400  40.913  -7.499  0.00  0.00    +0.000 C 
ATOM     24  C   UNL     1     -35.553  44.029  -6.974  0.00  0.00    +0.000 C 
ATOM     25  C   UNL     1     -32.896  39.668  -8.154  0.00  0.00    +0.000 C 
ATOM     26  C   UNL     1     -37.457  40.038  -7.325  0.00  0.00    +0.000 C 
ATOM     27  C   UNL     1     -34.174  44.077  -6.435  0.00  0.00    +0.000 C 
ATOM     28  C   UNL     1     -35.291  40.227  -7.949  0.00  0.00    +0.000 C 
ATOM     29  C   UNL     1     -36.691  43.355  -6.686  0.00  0.00    +0.000 C 
ATOM     30  C   UNL     1     -36.805  46.465  -8.068  0.00  0.00    +0.000 C 
ATOM     31  C   UNL     1     -35.592  45.951  -7.716  0.00  0.00    +0.000 C 
ATOM     32  C   UNL     1     -31.941  39.387  -9.267  0.00  0.00    +0.000 C 
ATOM     33  C   UNL     1     -38.084  40.624  -6.182  0.00  0.00    +0.000 C 
ATOM     34  C   UNL     1     -36.958  38.791  -7.506  0.00  0.00    +0.000 C 
ATOM     35  C   UNL     1     -37.392  41.817  -6.038  0.00  0.00    +0.000 C 
ATOM     36  C   UNL     1     -34.651  45.689  -6.112  0.00  0.00    +0.000 C 
ATOM     37  C   UNL     1     -32.880  38.007 -11.145  0.00  0.00    +0.000 C 
ATOM     38  C   UNL     1     -32.896  44.002 -17.776  0.00  0.00    +0.000 A 
ATOM     39  C   UNL     1     -37.601  45.430  -9.533  0.00  0.00    +0.000 C 
ATOM     40  C   UNL     1     -34.666  47.108 -17.144  0.00  0.00    +0.000 C 
ATOM     41  C   UNL     1     -31.140  41.681 -15.538  0.00  0.00    +0.000 C 
ATOM     42  C   UNL     1     -37.593  47.823  -9.242  0.00  0.00    +0.000 C 
ATOM     43  C   UNL     1     -33.050  43.267 -18.991  0.00  0.00    +0.000 A 
ATOM     44  C   UNL     1     -34.333  48.535 -18.209  0.00  0.00    +0.000 C 
ATOM     45  C   UNL     1     -37.459  45.128 -10.986  0.00  0.00    +0.000 C 
ATOM     46  C   UNL     1     -30.013  41.379 -16.489  0.00  0.00    +0.000 C 
ATOM     47  C   UNL     1     -32.492  36.858 -10.392  0.00  0.00    +0.000 C 
ATOM     48  C   UNL     1     -33.399  45.271 -18.046  0.00  0.00    +0.000 A 
ATOM     49  C   UNL     1     -33.669  38.007 -12.249  0.00  0.00    +0.000 C 
ATOM     50  C   UNL     1     -31.440  42.719 -16.406  0.00  0.00    +0.000 C 
ATOM     51  C   UNL     1     -35.820  46.951 -16.412  0.00  0.00    +0.000 C 
ATOM     52  C   UNL     1     -32.984  39.642 -13.953  0.00  0.00    +0.000 C 
ATOM     53  C   UNL     1     -32.751  41.818 -19.268  0.00  0.00    +0.000 C 
ATOM     54  C   UNL     1     -33.653  44.096 -19.902  0.00  0.00    +0.000 A 
ATOM     55  C   UNL     1     -31.897  39.920 -14.821  0.00  0.00    +0.000 C 
ATOM     56  C   UNL     1     -36.890  45.737 -14.669  0.00  0.00    +0.000 C 
ATOM     57  C   UNL     1     -38.641  44.696 -10.449  0.00  0.00    +0.000 C 
ATOM     58  C   UNL     1     -33.378  47.569 -18.019  0.00  0.00    +0.000 C 
ATOM     59  C   UNL     1     -31.945  36.510  -9.384  0.00  0.00    +0.000 C 
ATOM     60  C   UNL     1     -37.411  45.431 -13.279  0.00  0.00    +0.000 C 
ATOM     61  C   UNL     1     -31.261  39.839 -16.789  0.00  0.00    +0.000 C 
ATOM     62  C   UNL     1     -34.586  38.001 -13.485  0.00  0.00    +0.000 C 
ATOM     63  C   UNL     1     -38.243  45.676 -14.618  0.00  0.00    +0.000 C 
ATOM     64  H   UNL     1     -33.116  39.960 -10.806  0.00  0.00    +0.000 HD
ATOM     65  H   UNL     1     -32.993  43.800 -15.753  0.00  0.00    +0.000 HD
ATOM     66  H   UNL     1     -35.863  45.664 -12.028  0.00  0.00    +0.000 HD
ATOM     67  H   UNL     1     -34.940  45.736 -15.108  0.00  0.00    +0.000 HD
ATOM     68  C   UNL     1     -32.833  38.722  -7.257  0.00  0.00    +0.000 C 
ATOM     69  C   UNL     1     -32.161  37.476  -7.116  0.00  0.00    +0.000 C 
ATOM     70  C   UNL     1     -31.334  37.245  -8.317  0.00  0.00    +0.000 C 
ATOM     71  C   UNL     1     -33.377  43.877  -4.978  0.00  0.00    +0.000 C 
ATOM     72  C   UNL     1     -32.178  43.327  -4.798  0.00  0.00    +0.000 C 
ATOM     73  C   UNL     1     -33.843  45.180  -5.174  0.00  0.00    +0.000 C 
ATOM     74  C   UNL     1     -37.404  47.785  -7.826  0.00  0.00    +0.000 C 
ATOM     75  C   UNL     1     -38.578  48.384  -8.260  0.00  0.00    +0.000 C 
ATOM     76  C   UNL     1     -38.832  49.894  -8.060  0.00  0.00    +0.000 C 
ATOM     77  C   UNL     1     -38.934  47.987  -9.535  0.00  0.00    +0.000 C 
ATOM     78  C   UNL     1     -28.751  40.423 -16.726  0.00  0.00    +0.000 C 
ATOM     79  C   UNL     1     -27.583  40.549 -17.349  0.00  0.00    +0.000 C 
ATOM     80  C   UNL     1     -29.912  39.677 -16.939  0.00  0.00    +0.000 C 
ATOM     81  C   UNL     1     -35.437  49.285 -18.192  0.00  0.00    +0.000 C 
ATOM     82  C   UNL     1     -35.543  50.564 -18.954  0.00  0.00    +0.000 C 
ATOM     83  C   UNL     1     -36.496  48.807 -17.382  0.00  0.00    +0.000 C 
ENDROOT
BRANCH  69  84
ATOM     84  C   UNL     1     -32.512  36.436  -6.222  0.00  0.00    +0.000 C 
ATOM     85  C   UNL     1     -32.805  35.558  -5.458  0.00  0.00    +0.000 C 
BRANCH  85  86
ATOM     86  C   UNL     1     -33.174  34.438  -4.480  0.00  0.00    +0.000 C 
ATOM     87  C   UNL     1     -33.495  33.467  -3.625  0.00  0.00    +0.000 C 
ENDBRANCH  85  86
ENDBRANCH  69  84
BRANCH  13  88
ATOM     88  C   UNL     1     -33.725  41.800  -8.934  0.00  0.00    +0.000 C 
BRANCH  88  89
ATOM     89  O   UNL     1     -33.497  42.932  -9.585  0.00  0.00    +0.000 OA
ATOM     90  H   UNL     1     -33.766  43.691  -9.038  0.00  0.00    +0.000 HD
ENDBRANCH  88  89
ENDBRANCH  13  88
TORSDOF 4
ENDMDL
MODEL 2
REMARK VINA RESULT:     -10.2     10.886     15.797
REMARK  Name = Cyclosporin_A.pdbqt.pdb
REMARK  4 active torsions:
REMARK  status: ('A' for Active; 'I' for Inactive)
REMARK    1  A    between atoms: N_13  and  C_36
REMARK    2  A    between atoms: C_36  and  O_70
REMARK    3  A    between atoms: C_72  and  C_73
REMARK    4  A    between atoms: C_75  and  C_76
REMARK                            x       y       z     vdW  Elec       q    Type
REMARK                         _______ _______ _______ _____ _____    ______ ____
ROOT
ATOM      1  O   UNL     1     -43.586  55.498  -7.851  0.00  0.00    +0.000 OA
ATOM      2  O   UNL     1     -42.660  60.535  -7.556  0.00  0.00    +0.000 OA
ATOM      3  O   UNL     1     -38.679  60.918 -10.187  0.00  0.00    +0.000 OA
ATOM      4  O   UNL     1     -39.792  52.408  -8.110  0.00  0.00    +0.000 OA
ATOM      5  O   UNL     1     -43.539  61.310 -11.583  0.00  0.00    +0.000 OA
ATOM      6  O   UNL     1     -40.778  55.169 -20.626  0.00  0.00    +0.000 OA
ATOM      7  O   UNL     1     -44.223  51.443 -11.355  0.00  0.00    +0.000 OA
ATOM      8  O   UNL     1     -38.794  52.090 -17.332  0.00  0.00    +0.000 OA
ATOM      9  O   UNL     1     -41.635  59.755 -19.316  0.00  0.00    +0.000 OA
ATOM     10  O   UNL     1     -41.302  50.434 -14.532  0.00  0.00    +0.000 OA
ATOM     11  O   UNL     1     -43.974  60.011 -15.701  0.00  0.00    +0.000 OA
ATOM     12  N   UNL     1     -42.264  58.690  -7.992  0.00  0.00    +0.000 NA
ATOM     13  N   UNL     1     -41.312  55.795  -8.577  0.00  0.00    +0.000 NA
ATOM     14  N   UNL     1     -40.376  61.038  -9.166  0.00  0.00    +0.000 NA
ATOM     15  N   UNL     1     -41.040  61.454 -12.248  0.00  0.00    +0.000 NA
ATOM     16  N   UNL     1     -41.062  53.109 -10.071  0.00  0.00    +0.000 NA
ATOM     17  N   UNL     1     -39.510  56.565 -19.215  0.00  0.00    +0.000 N 
ATOM     18  N   UNL     1     -39.908  54.148 -17.309  0.00  0.00    +0.000 N 
ATOM     19  N   UNL     1     -40.904  52.106 -15.499  0.00  0.00    +0.000 NA
ATOM     20  N   UNL     1     -42.942  52.958 -12.469  0.00  0.00    +0.000 NA
ATOM     21  N   UNL     1     -42.052  59.465 -14.227  0.00  0.00    +0.000 NA
ATOM     22  N   UNL     1     -41.487  58.205 -17.470  0.00  0.00    +0.000 NA
ATOM     23  C   UNL     1     -43.088  57.622  -8.198  0.00  0.00    +0.000 C 
ATOM     24  C   UNL     1     -40.740  59.769  -8.961  0.00  0.00    +0.000 C 
ATOM     25  C   UNL     1     -40.822  54.604  -8.076  0.00  0.00    +0.000 C 
ATOM     26  C   UNL     1     -44.391  57.566  -7.739  0.00  0.00    +0.000 C 
ATOM     27  C   UNL     1     -39.448  59.298  -8.412  0.00  0.00    +0.000 C 
ATOM     28  C   UNL     1     -42.556  56.351  -8.260  0.00  0.00    +0.000 C 
ATOM     29  C   UNL     1     -41.995  59.953  -8.487  0.00  0.00    +0.000 C 
ATOM     30  C   UNL     1     -40.794  61.866 -11.036  0.00  0.00    +0.000 C 
ATOM     31  C   UNL     1     -39.953  60.978 -10.432  0.00  0.00    +0.000 C 
ATOM     32  C   UNL     1     -40.334  53.469  -8.917  0.00  0.00    +0.000 C 
ATOM     33  C   UNL     1     -44.443  58.775  -6.980  0.00  0.00    +0.000 C 
ATOM     34  C   UNL     1     -44.611  56.284  -7.359  0.00  0.00    +0.000 C 
ATOM     35  C   UNL     1     -43.240  59.385  -7.302  0.00  0.00    +0.000 C 
ATOM     36  C   UNL     1     -39.006  60.903  -8.813  0.00  0.00    +0.000 C 
ATOM     37  C   UNL     1     -42.135  52.183 -10.107  0.00  0.00    +0.000 C 
ATOM     38  C   UNL     1     -40.321  54.252 -18.612  0.00  0.00    +0.000 A 
ATOM     39  C   UNL     1     -42.232  60.927 -11.984  0.00  0.00    +0.000 C 
ATOM     40  C   UNL     1     -40.195  57.789 -19.424  0.00  0.00    +0.000 C 
ATOM     41  C   UNL     1     -39.586  52.419 -15.517  0.00  0.00    +0.000 C 
ATOM     42  C   UNL     1     -40.997  62.866 -12.709  0.00  0.00    +0.000 C 
ATOM     43  C   UNL     1     -41.022  53.306 -19.421  0.00  0.00    +0.000 A 
ATOM     44  C   UNL     1     -39.388  58.302 -20.963  0.00  0.00    +0.000 C 
ATOM     45  C   UNL     1     -42.507  60.068 -13.172  0.00  0.00    +0.000 C 
ATOM     46  C   UNL     1     -38.934  51.242 -16.191  0.00  0.00    +0.000 C 
ATOM     47  C   UNL     1     -42.242  51.390  -8.925  0.00  0.00    +0.000 C 
ATOM     48  C   UNL     1     -40.171  55.381 -19.411  0.00  0.00    +0.000 A 
ATOM     49  C   UNL     1     -42.995  52.171 -11.156  0.00  0.00    +0.000 C 
ATOM     50  C   UNL     1     -39.478  53.038 -16.752  0.00  0.00    +0.000 C 
ATOM     51  C   UNL     1     -41.132  58.545 -18.761  0.00  0.00    +0.000 C 
ATOM     52  C   UNL     1     -41.895  52.418 -13.340  0.00  0.00    +0.000 C 
ATOM     53  C   UNL     1     -41.527  51.936 -19.056  0.00  0.00    +0.000 C 
ATOM     54  C   UNL     1     -41.282  53.905 -20.626  0.00  0.00    +0.000 A 
ATOM     55  C   UNL     1     -40.977  51.737 -14.181  0.00  0.00    +0.000 C 
ATOM     56  C   UNL     1     -42.347  58.834 -16.737  0.00  0.00    +0.000 C 
ATOM     57  C   UNL     1     -43.638  60.554 -12.573  0.00  0.00    +0.000 C 
ATOM     58  C   UNL     1     -39.017  57.141 -20.335  0.00  0.00    +0.000 C 
ATOM     59  C   UNL     1     -41.775  51.224  -7.833  0.00  0.00    +0.000 C 
ATOM     60  C   UNL     1     -42.706  59.400 -15.377  0.00  0.00    +0.000 C 
ATOM     61  C   UNL     1     -40.809  50.594 -15.899  0.00  0.00    +0.000 C 
ATOM     62  C   UNL     1     -43.992  52.170 -12.329  0.00  0.00    +0.000 C 
ATOM     63  C   UNL     1     -43.523  59.508 -16.744  0.00  0.00    +0.000 C 
ATOM     64  H   UNL     1     -41.316  53.930 -10.620  0.00  0.00    +0.000 HD
ATOM     65  H   UNL     1     -40.160  54.920 -16.696  0.00  0.00    +0.000 HD
ATOM     66  H   UNL     1     -41.058  59.254 -14.248  0.00  0.00    +0.000 HD
ATOM     67  H   UNL     1     -40.758  57.656 -17.023  0.00  0.00    +0.000 HD
ATOM     68  C   UNL     1     -41.082  54.189  -6.866  0.00  0.00    +0.000 C 
ATOM     69  C   UNL     1     -41.098  52.941  -6.184  0.00  0.00    +0.000 C 
ATOM     70  C   UNL     1     -40.710  51.878  -7.133  0.00  0.00    +0.000 C 
ATOM     71  C   UNL     1     -38.619  59.287  -6.959  0.00  0.00    +0.000 C 
ATOM     72  C   UNL     1     -37.836  58.313  -6.498  0.00  0.00    +0.000 C 
ATOM     73  C   UNL     1     -38.408  60.451  -7.703  0.00  0.00    +0.000 C 
ATOM     74  C   UNL     1     -40.614  63.279 -11.396  0.00  0.00    +0.000 C 
ATOM     75  C   UNL     1     -41.394  64.180 -12.106  0.00  0.00    +0.000 C 
ATOM     76  C   UNL     1     -40.834  65.544 -12.563  0.00  0.00    +0.000 C 
ATOM     77  C   UNL     1     -42.111  63.574 -13.120  0.00  0.00    +0.000 C 
ATOM     78  C   UNL     1     -38.369  49.766 -15.938  0.00  0.00    +0.000 C 
ATOM     79  C   UNL     1     -37.416  49.019 -16.489  0.00  0.00    +0.000 C 
ATOM     80  C   UNL     1     -39.763  49.714 -15.890  0.00  0.00    +0.000 C 
ATOM     81  C   UNL     1     -39.958  59.455 -21.322  0.00  0.00    +0.000 C 
ATOM     82  C   UNL     1     -39.547  60.198 -22.549  0.00  0.00    +0.000 C 
ATOM     83  C   UNL     1     -40.959  59.946 -20.449  0.00  0.00    +0.000 C 
ENDROOT
BRANCH  69  84
ATOM     84  C   UNL     1     -41.758  52.667  -4.963  0.00  0.00    +0.000 C 
ATOM     85  C   UNL     1     -42.311  52.439  -3.922  0.00  0.00    +0.000 C 
BRANCH  85  86
ATOM     86  C   UNL     1     -43.013  52.149  -2.591  0.00  0.00    +0.000 C 
ATOM     87  C   UNL     1     -43.619  51.894  -1.433  0.00  0.00    +0.000 C 
ENDBRANCH  85  86
ENDBRANCH  69  84
BRANCH  13  88
ATOM     88  C   UNL     1     -40.612  56.368  -9.714  0.00  0.00    +0.000 C 
BRANCH  88  89
ATOM     89  O   UNL     1     -39.980  56.872 -10.766  0.00  0.00    +0.000 OA
ATOM     90  H   UNL     1     -39.730  57.797 -10.593  0.00  0.00    +0.000 HD
ENDBRANCH  88  89
ENDBRANCH  13  88
TORSDOF 4
ENDMDL
MODEL 3
REMARK VINA RESULT:      -9.1      2.525     10.543
REMARK  Name = Cyclosporin_A.pdbqt.pdb
REMARK  4 active torsions:
REMARK  status: ('A' for Active; 'I' for Inactive)
REMARK    1  A    between atoms: N_13  and  C_36
REMARK    2  A    between atoms: C_36  and  O_70
REMARK    3  A    between atoms: C_72  and  C_73
REMARK    4  A    between atoms: C_75  and  C_76
REMARK                            x       y       z     vdW  Elec       q    Type
REMARK                         _______ _______ _______ _____ _____    ______ ____
ROOT
ATOM      1  O   UNL     1     -34.257  47.017 -16.926  0.00  0.00    +0.000 OA
ATOM      2  O   UNL     1     -38.203  48.044 -13.813  0.00  0.00    +0.000 OA
ATOM      3  O   UNL     1     -39.787  43.638 -12.813  0.00  0.00    +0.000 OA
ATOM      4  O   UNL     1     -34.538  43.130 -19.895  0.00  0.00    +0.000 OA
ATOM      5  O   UNL     1     -36.375  46.490 -10.372  0.00  0.00    +0.000 OA
ATOM      6  O   UNL     1     -30.180  37.121  -9.400  0.00  0.00    +0.000 OA
ATOM      7  O   UNL     1     -29.710  44.134 -17.293  0.00  0.00    +0.000 OA
ATOM      8  O   UNL     1     -30.897  36.719 -14.257  0.00  0.00    +0.000 OA
ATOM      9  O   UNL     1     -33.164  39.938  -6.824  0.00  0.00    +0.000 OA
ATOM     10  O   UNL     1     -29.494  39.755 -16.641  0.00  0.00    +0.000 OA
ATOM     11  O   UNL     1     -33.454  43.924  -8.445  0.00  0.00    +0.000 OA
ATOM     12  N   UNL     1     -37.074  46.929 -14.923  0.00  0.00    +0.000 NA
ATOM     13  N   UNL     1     -35.555  44.994 -16.815  0.00  0.00    +0.000 NA
ATOM     14  N   UNL     1     -39.249  45.542 -12.973  0.00  0.00    +0.000 NA
ATOM     15  N   UNL     1     -37.742  44.293 -10.467  0.00  0.00    +0.000 NA
ATOM     16  N   UNL     1     -33.328  43.090 -17.778  0.00  0.00    +0.000 NA
ATOM     17  N   UNL     1     -32.492  37.465  -9.677  0.00  0.00    +0.000 N 
ATOM     18  N   UNL     1     -31.531  38.178 -12.540  0.00  0.00    +0.000 N 
ATOM     19  N   UNL     1     -30.392  39.385 -14.924  0.00  0.00    +0.000 NA
ATOM     20  N   UNL     1     -30.995  42.978 -15.815  0.00  0.00    +0.000 NA
ATOM     21  N   UNL     1     -34.958  43.236 -10.296  0.00  0.00    +0.000 NA
ATOM     22  N   UNL     1     -33.074  40.475  -9.176  0.00  0.00    +0.000 NA
ATOM     23  C   UNL     1     -35.781  47.085 -15.328  0.00  0.00    +0.000 C 
ATOM     24  C   UNL     1     -38.296  45.548 -13.909  0.00  0.00    +0.000 C 
ATOM     25  C   UNL     1     -35.317  44.575 -18.110  0.00  0.00    +0.000 C 
ATOM     26  C   UNL     1     -35.129  48.305 -15.340  0.00  0.00    +0.000 C 
ATOM     27  C   UNL     1     -39.046  44.787 -14.934  0.00  0.00    +0.000 C 
ATOM     28  C   UNL     1     -35.271  46.270 -16.317  0.00  0.00    +0.000 C 
ATOM     29  C   UNL     1     -37.836  46.814 -13.775  0.00  0.00    +0.000 C 
ATOM     30  C   UNL     1     -38.695  44.970 -11.044  0.00  0.00    +0.000 C 
ATOM     31  C   UNL     1     -38.918  44.446 -12.283  0.00  0.00    +0.000 C 
ATOM     32  C   UNL     1     -34.524  43.363 -18.475  0.00  0.00    +0.000 C 
ATOM     33  C   UNL     1     -36.208  49.170 -14.980  0.00  0.00    +0.000 C 
ATOM     34  C   UNL     1     -34.335  48.307 -16.438  0.00  0.00    +0.000 C 
ATOM     35  C   UNL     1     -37.212  48.275 -14.643  0.00  0.00    +0.000 C 
ATOM     36  C   UNL     1     -40.177  44.706 -13.652  0.00  0.00    +0.000 C 
ATOM     37  C   UNL     1     -32.044  43.577 -18.133  0.00  0.00    +0.000 C 
ATOM     38  C   UNL     1     -30.764  37.725 -11.497  0.00  0.00    +0.000 A 
ATOM     39  C   UNL     1     -36.772  45.169 -10.710  0.00  0.00    +0.000 C 
ATOM     40  C   UNL     1     -32.757  38.215  -8.502  0.00  0.00    +0.000 C 
ATOM     41  C   UNL     1     -31.412  38.499 -15.027  0.00  0.00    +0.000 C 
ATOM     42  C   UNL     1     -38.473  44.411  -9.179  0.00  0.00    +0.000 C 
ATOM     43  C   UNL     1     -29.361  37.464 -11.449  0.00  0.00    +0.000 A 
ATOM     44  C   UNL     1     -32.915  36.846  -7.326  0.00  0.00    +0.000 C 
ATOM     45  C   UNL     1     -35.525  44.392 -10.456  0.00  0.00    +0.000 C 
ATOM     46  C   UNL     1     -30.767  37.255 -15.575  0.00  0.00    +0.000 C 
ATOM     47  C   UNL     1     -31.989  44.130 -19.447  0.00  0.00    +0.000 C 
ATOM     48  C   UNL     1     -31.231  37.474 -10.211  0.00  0.00    +0.000 A 
ATOM     49  C   UNL     1     -31.035  43.572 -17.226  0.00  0.00    +0.000 C 
ATOM     50  C   UNL     1     -31.333  37.860 -13.800  0.00  0.00    +0.000 C 
ATOM     51  C   UNL     1     -32.947  39.536  -8.171  0.00  0.00    +0.000 C 
ATOM     52  C   UNL     1     -30.922  41.516 -15.884  0.00  0.00    +0.000 C 
ATOM     53  C   UNL     1     -28.324  37.640 -12.526  0.00  0.00    +0.000 C 
ATOM     54  C   UNL     1     -29.051  37.108 -10.161  0.00  0.00    +0.000 A 
ATOM     55  C   UNL     1     -30.689  40.124 -16.039  0.00  0.00    +0.000 C 
ATOM     56  C   UNL     1     -33.262  41.742  -9.000  0.00  0.00    +0.000 C 
ATOM     57  C   UNL     1     -35.391  45.734 -10.223  0.00  0.00    +0.000 C 
ATOM     58  C   UNL     1     -32.678  36.600  -8.654  0.00  0.00    +0.000 C 
ATOM     59  C   UNL     1     -32.655  44.397 -20.407  0.00  0.00    +0.000 C 
ATOM     60  C   UNL     1     -33.999  43.001  -9.413  0.00  0.00    +0.000 C 
ATOM     61  C   UNL     1     -29.304  38.614 -15.747  0.00  0.00    +0.000 C 
ATOM     62  C   UNL     1     -29.892  43.595 -16.195  0.00  0.00    +0.000 C 
ATOM     63  C   UNL     1     -32.954  42.809  -8.222  0.00  0.00    +0.000 C 
ATOM     64  H   UNL     1     -33.454  43.195 -16.771  0.00  0.00    +0.000 HD
ATOM     65  H   UNL     1     -32.138  38.969 -12.340  0.00  0.00    +0.000 HD
ATOM     66  H   UNL     1     -35.437  42.427 -10.684  0.00  0.00    +0.000 HD
ATOM     67  H   UNL     1     -33.376  40.042 -10.044  0.00  0.00    +0.000 HD
ATOM     68  C   UNL     1     -35.421  45.372 -19.138  0.00  0.00    +0.000 C 
ATOM     69  C   UNL     1     -34.909  45.418 -20.465  0.00  0.00    +0.000 C 
ATOM     70  C   UNL     1     -34.052  44.235 -20.683  0.00  0.00    +0.000 C 
ATOM     71  C   UNL     1     -40.199  45.052 -16.117  0.00  0.00    +0.000 C 
ATOM     72  C   UNL     1     -40.268  44.458 -17.307  0.00  0.00    +0.000 C 
ATOM     73  C   UNL     1     -40.751  44.801 -14.858  0.00  0.00    +0.000 C 
ATOM     74  C   UNL     1     -39.557  45.049  -9.857  0.00  0.00    +0.000 C 
ATOM     75  C   UNL     1     -39.333  45.467  -8.552  0.00  0.00    +0.000 C 
ATOM     76  C   UNL     1     -40.360  45.192  -7.433  0.00  0.00    +0.000 C 
ATOM     77  C   UNL     1     -38.048  45.197  -8.123  0.00  0.00    +0.000 C 
ATOM     78  C   UNL     1     -30.285  36.543 -16.926  0.00  0.00    +0.000 C 
ATOM     79  C   UNL     1     -30.161  35.282 -17.328  0.00  0.00    +0.000 C 
ATOM     80  C   UNL     1     -29.399  37.583 -16.638  0.00  0.00    +0.000 C 
ATOM     81  C   UNL     1     -33.140  37.399  -6.132  0.00  0.00    +0.000 C 
ATOM     82  C   UNL     1     -33.334  36.580  -4.899  0.00  0.00    +0.000 C 
ATOM     83  C   UNL     1     -33.212  38.813  -6.110  0.00  0.00    +0.000 C 
ENDROOT
BRANCH  69  84
ATOM     84  C   UNL     1     -34.858  46.559 -21.299  0.00  0.00    +0.000 C 
ATOM     85  C   UNL     1     -34.815  47.523 -22.014  0.00  0.00    +0.000 C 
BRANCH  85  86
ATOM     86  C   UNL     1     -34.757  48.750 -22.930  0.00  0.00    +0.000 C 
ATOM     87  C   UNL     1     -34.711  49.814 -23.730  0.00  0.00    +0.000 C 
ENDBRANCH  85  86
ENDBRANCH  69  84
BRANCH  13  88
ATOM     88  C   UNL     1     -35.861  43.965 -15.836  0.00  0.00    +0.000 C 
BRANCH  88  89
ATOM     89  O   UNL     1     -36.116  43.018 -14.943  0.00  0.00    +0.000 OA
ATOM     90  H   UNL     1     -37.034  43.097 -14.627  0.00  0.00    +0.000 HD
ENDBRANCH  88  89
ENDBRANCH  13  88
TORSDOF 4
ENDMDL
MODEL 4
REMARK VINA RESULT:      -9.0      2.469     13.112
REMARK  Name = Cyclosporin_A.pdbqt.pdb
REMARK  4 active torsions:
REMARK  status: ('A' for Active; 'I' for Inactive)
REMARK    1  A    between atoms: N_13  and  C_36
REMARK    2  A    between atoms: C_36  and  O_70
REMARK    3  A    between atoms: C_72  and  C_73
REMARK    4  A    between atoms: C_75  and  C_76
REMARK                            x       y       z     vdW  Elec       q    Type
REMARK                         _______ _______ _______ _____ _____    ______ ____
ROOT
ATOM      1  O   UNL     1     -35.862  44.786 -18.471  0.00  0.00    +0.000 OA
ATOM      2  O   UNL     1     -33.414  41.078 -21.034  0.00  0.00    +0.000 OA
ATOM      3  O   UNL     1     -29.661  40.273 -18.173  0.00  0.00    +0.000 OA
ATOM      4  O   UNL     1     -33.225  48.029 -15.913  0.00  0.00    +0.000 OA
ATOM      5  O   UNL     1     -34.233  38.078 -18.219  0.00  0.00    +0.000 OA
ATOM      6  O   UNL     1     -34.004  38.826  -6.972  0.00  0.00    +0.000 OA
ATOM      7  O   UNL     1     -37.910  46.038 -13.637  0.00  0.00    +0.000 OA
ATOM      8  O   UNL     1     -32.887  43.553  -7.789  0.00  0.00    +0.000 OA
ATOM      9  O   UNL     1     -33.333  35.617 -10.540  0.00  0.00    +0.000 OA
ATOM     10  O   UNL     1     -35.623  45.822  -9.847  0.00  0.00    +0.000 OA
ATOM     11  O   UNL     1     -35.274  36.814 -14.201  0.00  0.00    +0.000 OA
ATOM     12  N   UNL     1     -33.631  42.430 -19.664  0.00  0.00    +0.000 NA
ATOM     13  N   UNL     1     -33.650  44.682 -17.529  0.00  0.00    +0.000 NA
ATOM     14  N   UNL     1     -31.179  40.332 -19.449  0.00  0.00    +0.000 NA
ATOM     15  N   UNL     1     -31.853  38.182 -17.205  0.00  0.00    +0.000 NA
ATOM     16  N   UNL     1     -34.324  46.112 -14.881  0.00  0.00    +0.000 NA
ATOM     17  N   UNL     1     -32.292  38.748  -8.587  0.00  0.00    +0.000 N 
ATOM     18  N   UNL     1     -33.308  41.640  -9.069  0.00  0.00    +0.000 N 
ATOM     19  N   UNL     1     -34.783  44.039  -9.783  0.00  0.00    +0.000 NA
ATOM     20  N   UNL     1     -36.289  44.508 -13.185  0.00  0.00    +0.000 NA
ATOM     21  N   UNL     1     -33.536  38.494 -14.763  0.00  0.00    +0.000 NA
ATOM     22  N   UNL     1     -33.567  37.901 -11.288  0.00  0.00    +0.000 NA
ATOM     23  C   UNL     1     -34.753  42.994 -19.132  0.00  0.00    +0.000 C 
ATOM     24  C   UNL     1     -31.904  41.387 -19.066  0.00  0.00    +0.000 C 
ATOM     25  C   UNL     1     -33.525  46.029 -17.253  0.00  0.00    +0.000 C 
ATOM     26  C   UNL     1     -35.983  42.984 -19.765  0.00  0.00    +0.000 C 
ATOM     27  C   UNL     1     -30.792  42.363 -19.021  0.00  0.00    +0.000 C 
ATOM     28  C   UNL     1     -34.643  44.114 -18.334  0.00  0.00    +0.000 C 
ATOM     29  C   UNL     1     -33.013  41.203 -19.820  0.00  0.00    +0.000 C 
ATOM     30  C   UNL     1     -31.424  38.559 -18.378  0.00  0.00    +0.000 C 
ATOM     31  C   UNL     1     -30.866  39.797 -18.266  0.00  0.00    +0.000 C 
ATOM     32  C   UNL     1     -33.458  46.609 -15.878  0.00  0.00    +0.000 C 
ATOM     33  C   UNL     1     -35.617  42.402 -21.017  0.00  0.00    +0.000 C 
ATOM     34  C   UNL     1     -36.565  44.177 -19.492  0.00  0.00    +0.000 C 
ATOM     35  C   UNL     1     -34.305  42.012 -20.796  0.00  0.00    +0.000 C 
ATOM     36  C   UNL     1     -29.900  40.949 -19.390  0.00  0.00    +0.000 C 
ATOM     37  C   UNL     1     -35.630  46.594 -14.616  0.00  0.00    +0.000 C 
ATOM     38  C   UNL     1     -33.741  40.758  -8.112  0.00  0.00    +0.000 A 
ATOM     39  C   UNL     1     -33.132  38.476 -17.416  0.00  0.00    +0.000 C 
ATOM     40  C   UNL     1     -32.576  37.485  -9.166  0.00  0.00    +0.000 C 
ATOM     41  C   UNL     1     -33.436  44.080  -9.646  0.00  0.00    +0.000 C 
ATOM     42  C   UNL     1     -31.402  36.800 -17.512  0.00  0.00    +0.000 C 
ATOM     43  C   UNL     1     -34.743  40.928  -7.108  0.00  0.00    +0.000 A 
ATOM     44  C   UNL     1     -31.738  36.427  -7.957  0.00  0.00    +0.000 C 
ATOM     45  C   UNL     1     -33.724  38.469 -16.047  0.00  0.00    +0.000 C 
ATOM     46  C   UNL     1     -33.218  44.823  -8.356  0.00  0.00    +0.000 C 
ATOM     47  C   UNL     1     -35.910  47.849 -15.236  0.00  0.00    +0.000 C 
ATOM     48  C   UNL     1     -33.295  39.448  -7.972  0.00  0.00    +0.000 A 
ATOM     49  C   UNL     1     -36.509  45.840 -13.909  0.00  0.00    +0.000 C 
ATOM     50  C   UNL     1     -33.211  42.939  -8.893  0.00  0.00    +0.000 C 
ATOM     51  C   UNL     1     -33.197  37.012 -10.298  0.00  0.00    +0.000 C 
ATOM     52  C   UNL     1     -35.509  44.719 -11.963  0.00  0.00    +0.000 C 
ATOM     53  C   UNL     1     -35.625  42.118  -6.839  0.00  0.00    +0.000 C 
ATOM     54  C   UNL     1     -34.873  39.733  -6.448  0.00  0.00    +0.000 A 
ATOM     55  C   UNL     1     -34.894  45.030 -10.723  0.00  0.00    +0.000 C 
ATOM     56  C   UNL     1     -34.150  37.586 -12.400  0.00  0.00    +0.000 C 
ATOM     57  C   UNL     1     -34.615  38.135 -17.030  0.00  0.00    +0.000 C 
ATOM     58  C   UNL     1     -31.708  37.792  -7.828  0.00  0.00    +0.000 C 
ATOM     59  C   UNL     1     -35.458  48.678 -15.973  0.00  0.00    +0.000 C 
ATOM     60  C   UNL     1     -34.241  37.776 -13.901  0.00  0.00    +0.000 C 
ATOM     61  C   UNL     1     -35.182  45.070  -8.673  0.00  0.00    +0.000 C 
ATOM     62  C   UNL     1     -37.521  44.978 -13.131  0.00  0.00    +0.000 C 
ATOM     63  C   UNL     1     -35.059  36.764 -12.978  0.00  0.00    +0.000 C 
ATOM     64  H   UNL     1     -34.342  45.092 -14.882  0.00  0.00    +0.000 HD
ATOM     65  H   UNL     1     -33.276  41.287 -10.023  0.00  0.00    +0.000 HD
ATOM     66  H   UNL     1     -32.658  38.884 -14.430  0.00  0.00    +0.000 HD
ATOM     67  H   UNL     1     -33.020  38.755 -11.237  0.00  0.00    +0.000 HD
ATOM     68  C   UNL     1     -33.832  46.957 -18.118  0.00  0.00    +0.000 C 
ATOM     69  C   UNL     1     -34.195  48.332 -18.073  0.00  0.00    +0.000 C 
ATOM     70  C   UNL     1     -34.206  48.773 -16.664  0.00  0.00    +0.000 C 
ATOM     71  C   UNL     1     -29.928  43.346 -20.062  0.00  0.00    +0.000 C 
ATOM     72  C   UNL     1     -29.458  44.565 -19.799  0.00  0.00    +0.000 C 
ATOM     73  C   UNL     1     -29.409  42.051 -19.973  0.00  0.00    +0.000 C 
ATOM     74  C   UNL     1     -30.838  37.261 -18.741  0.00  0.00    +0.000 C 
ATOM     75  C   UNL     1     -31.341  35.967 -18.758  0.00  0.00    +0.000 C 
ATOM     76  C   UNL     1     -30.413  34.746 -18.936  0.00  0.00    +0.000 C 
ATOM     77  C   UNL     1     -32.264  35.747 -17.754  0.00  0.00    +0.000 C 
ATOM     78  C   UNL     1     -33.122  46.286  -7.714  0.00  0.00    +0.000 C 
ATOM     79  C   UNL     1     -32.477  46.814  -6.677  0.00  0.00    +0.000 C 
ATOM     80  C   UNL     1     -34.459  46.030  -8.022  0.00  0.00    +0.000 C 
ATOM     81  C   UNL     1     -31.944  35.168  -8.350  0.00  0.00    +0.000 C 
ATOM     82  C   UNL     1     -31.392  34.000  -7.602  0.00  0.00    +0.000 C 
ATOM     83  C   UNL     1     -32.695  35.008  -9.540  0.00  0.00    +0.000 C 
ENDROOT
BRANCH  69  84
ATOM     84  C   UNL     1     -34.837  49.058 -19.103  0.00  0.00    +0.000 C 
ATOM     85  C   UNL     1     -35.378  49.681 -19.976  0.00  0.00    +0.000 C 
BRANCH  85  86
ATOM     86  C   UNL     1     -36.066  50.480 -21.088  0.00  0.00    +0.000 C 
ATOM     87  C   UNL     1     -36.659  51.177 -22.056  0.00  0.00    +0.000 C 
ENDBRANCH  85  86
ENDBRANCH  69  84
BRANCH  13  88
ATOM     88  C   UNL     1     -32.872  43.767 -16.710  0.00  0.00    +0.000 C 
BRANCH  88  89
ATOM     89  O   UNL     1     -32.167  42.946 -15.943  0.00  0.00    +0.000 OA
ATOM     90  H   UNL     1     -32.730  42.587 -15.234  0.00  0.00    +0.000 HD
ENDBRANCH  88  89
ENDBRANCH  13  88
TORSDOF 4
ENDMDL
MODEL 5
REMARK VINA RESULT:      -8.9     20.375     26.127
REMARK  Name = Cyclosporin_A.pdbqt.pdb
REMARK  4 active torsions:
REMARK  status: ('A' for Active; 'I' for Inactive)
REMARK    1  A    between atoms: N_13  and  C_36
REMARK    2  A    between atoms: C_36  and  O_70
REMARK    3  A    between atoms: C_72  and  C_73
REMARK    4  A    between atoms: C_75  and  C_76
REMARK                            x       y       z     vdW  Elec       q    Type
REMARK                         _______ _______ _______ _____ _____    ______ ____
ROOT
ATOM      1  O   UNL     1     -35.484  65.934  -4.256  0.00  0.00    +0.000 OA
ATOM      2  O   UNL     1     -39.896  63.941  -2.558  0.00  0.00    +0.000 OA
ATOM      3  O   UNL     1     -38.349  60.013  -0.300  0.00  0.00    +0.000 OA
ATOM      4  O   UNL     1     -31.863  62.898  -5.551  0.00  0.00    +0.000 OA
ATOM      5  O   UNL     1     -39.109  64.697   1.492  0.00  0.00    +0.000 OA
ATOM      6  O   UNL     1     -29.377  63.465   7.049  0.00  0.00    +0.000 OA
ATOM      7  O   UNL     1     -30.570  67.484  -2.654  0.00  0.00    +0.000 OA
ATOM      8  O   UNL     1     -27.590  62.138   2.654  0.00  0.00    +0.000 OA
ATOM      9  O   UNL     1     -34.165  63.295   7.772  0.00  0.00    +0.000 OA
ATOM     10  O   UNL     1     -27.776  64.898  -0.382  0.00  0.00    +0.000 OA
ATOM     11  O   UNL     1     -36.351  65.466   4.753  0.00  0.00    +0.000 OA
ATOM     12  N   UNL     1     -37.996  63.959  -2.936  0.00  0.00    +0.000 NA
ATOM     13  N   UNL     1     -34.990  63.661  -3.644  0.00  0.00    +0.000 NA
ATOM     14  N   UNL     1     -39.219  61.629  -1.056  0.00  0.00    +0.000 NA
ATOM     15  N   UNL     1     -38.458  62.237   1.971  0.00  0.00    +0.000 NA
ATOM     16  N   UNL     1     -31.937  64.018  -3.385  0.00  0.00    +0.000 NA
ATOM     17  N   UNL     1     -30.940  61.905   6.233  0.00  0.00    +0.000 N 
ATOM     18  N   UNL     1     -29.655  62.782   3.548  0.00  0.00    +0.000 N 
ATOM     19  N   UNL     1     -28.785  64.166   1.146  0.00  0.00    +0.000 NA
ATOM     20  N   UNL     1     -31.199  65.925  -1.121  0.00  0.00    +0.000 NA
ATOM     21  N   UNL     1     -36.082  63.684   3.046  0.00  0.00    +0.000 NA
ATOM     22  N   UNL     1     -33.515  63.455   5.451  0.00  0.00    +0.000 NA
ATOM     23  C   UNL     1     -37.129  64.996  -3.118  0.00  0.00    +0.000 C 
ATOM     24  C   UNL     1     -38.249  62.254  -1.729  0.00  0.00    +0.000 C 
ATOM     25  C   UNL     1     -34.038  63.431  -4.617  0.00  0.00    +0.000 C 
ATOM     26  C   UNL     1     -37.532  66.274  -3.462  0.00  0.00    +0.000 C 
ATOM     27  C   UNL     1     -37.794  61.085  -2.516  0.00  0.00    +0.000 C 
ATOM     28  C   UNL     1     -35.866  64.751  -3.615  0.00  0.00    +0.000 C 
ATOM     29  C   UNL     1     -38.861  63.432  -1.994  0.00  0.00    +0.000 C 
ATOM     30  C   UNL     1     -39.272  61.888   1.014  0.00  0.00    +0.000 C 
ATOM     31  C   UNL     1     -38.560  61.248   0.043  0.00  0.00    +0.000 C 
ATOM     32  C   UNL     1     -32.585  63.212  -4.346  0.00  0.00    +0.000 C 
ATOM     33  C   UNL     1     -38.929  66.052  -3.662  0.00  0.00    +0.000 C 
ATOM     34  C   UNL     1     -36.592  66.758  -4.311  0.00  0.00    +0.000 C 
ATOM     35  C   UNL     1     -39.095  64.751  -3.211  0.00  0.00    +0.000 C 
ATOM     36  C   UNL     1     -38.967  60.315  -1.535  0.00  0.00    +0.000 C 
ATOM     37  C   UNL     1     -31.317  65.266  -3.648  0.00  0.00    +0.000 C 
ATOM     38  C   UNL     1     -29.296  63.184   4.809  0.00  0.00    +0.000 A 
ATOM     39  C   UNL     1     -38.339  63.509   1.606  0.00  0.00    +0.000 C 
ATOM     40  C   UNL     1     -32.081  62.313   6.969  0.00  0.00    +0.000 C 
ATOM     41  C   UNL     1     -28.789  62.811   1.192  0.00  0.00    +0.000 C 
ATOM     42  C   UNL     1     -39.515  61.898   2.959  0.00  0.00    +0.000 C 
ATOM     43  C   UNL     1     -28.265  64.085   5.215  0.00  0.00    +0.000 A 
ATOM     44  C   UNL     1     -31.742  61.439   8.519  0.00  0.00    +0.000 C 
ATOM     45  C   UNL     1     -37.143  63.981   2.362  0.00  0.00    +0.000 C 
ATOM     46  C   UNL     1     -27.334  62.439   1.281  0.00  0.00    +0.000 C 
ATOM     47  C   UNL     1     -31.119  65.522  -5.038  0.00  0.00    +0.000 C 
ATOM     48  C   UNL     1     -29.942  62.808   5.982  0.00  0.00    +0.000 A 
ATOM     49  C   UNL     1     -31.050  66.125  -2.632  0.00  0.00    +0.000 C 
ATOM     50  C   UNL     1     -28.810  62.592   2.560  0.00  0.00    +0.000 C 
ATOM     51  C   UNL     1     -33.216  63.055   6.740  0.00  0.00    +0.000 C 
ATOM     52  C   UNL     1     -30.150  65.032  -0.623  0.00  0.00    +0.000 C 
ATOM     53  C   UNL     1     -27.299  64.868   4.366  0.00  0.00    +0.000 C 
ATOM     54  C   UNL     1     -28.355  64.230   6.575  0.00  0.00    +0.000 A 
ATOM     55  C   UNL     1     -29.012  64.296  -0.199  0.00  0.00    +0.000 C 
ATOM     56  C   UNL     1     -34.550  64.148   5.102  0.00  0.00    +0.000 C 
ATOM     57  C   UNL     1     -38.050  64.972   2.097  0.00  0.00    +0.000 C 
ATOM     58  C   UNL     1     -30.893  61.317   7.450  0.00  0.00    +0.000 C 
ATOM     59  C   UNL     1     -31.325  65.085  -6.134  0.00  0.00    +0.000 C 
ATOM     60  C   UNL     1     -35.684  64.355   4.117  0.00  0.00    +0.000 C 
ATOM     61  C   UNL     1     -27.257  64.405   0.893  0.00  0.00    +0.000 C 
ATOM     62  C   UNL     1     -30.768  67.117  -1.489  0.00  0.00    +0.000 C 
ATOM     63  C   UNL     1     -35.385  65.151   5.467  0.00  0.00    +0.000 C 
ATOM     64  H   UNL     1     -32.493  64.098  -2.534  0.00  0.00    +0.000 HD
ATOM     65  H   UNL     1     -30.644  62.853   3.319  0.00  0.00    +0.000 HD
ATOM     66  H   UNL     1     -35.684  62.758   2.906  0.00  0.00    +0.000 HD
ATOM     67  H   UNL     1     -33.064  62.854   4.768  0.00  0.00    +0.000 HD
ATOM     68  C   UNL     1     -34.218  63.754  -5.869  0.00  0.00    +0.000 C 
ATOM     69  C   UNL     1     -33.391  64.028  -6.994  0.00  0.00    +0.000 C 
ATOM     70  C   UNL     1     -31.978  63.892  -6.588  0.00  0.00    +0.000 C 
ATOM     71  C   UNL     1     -38.213  60.255  -3.906  0.00  0.00    +0.000 C 
ATOM     72  C   UNL     1     -37.378  59.692  -4.778  0.00  0.00    +0.000 C 
ATOM     73  C   UNL     1     -38.900  59.810  -2.773  0.00  0.00    +0.000 C 
ATOM     74  C   UNL     1     -40.344  61.414   1.900  0.00  0.00    +0.000 C 
ATOM     75  C   UNL     1     -41.012  61.994   2.970  0.00  0.00    +0.000 C 
ATOM     76  C   UNL     1     -41.923  61.160   3.896  0.00  0.00    +0.000 C 
ATOM     77  C   UNL     1     -40.202  62.840   3.703  0.00  0.00    +0.000 C 
ATOM     78  C   UNL     1     -26.011  62.201   0.412  0.00  0.00    +0.000 C 
ATOM     79  C   UNL     1     -24.928  61.440   0.542  0.00  0.00    +0.000 C 
ATOM     80  C   UNL     1     -26.267  63.573   0.451  0.00  0.00    +0.000 C 
ATOM     81  C   UNL     1     -32.735  61.754   9.355  0.00  0.00    +0.000 C 
ATOM     82  C   UNL     1     -32.809  61.212  10.744  0.00  0.00    +0.000 C 
ATOM     83  C   UNL     1     -33.733  62.612   8.832  0.00  0.00    +0.000 C 
ENDROOT
BRANCH  69  84
ATOM     84  C   UNL     1     -33.784  64.712  -8.169  0.00  0.00    +0.000 C 
ATOM     85  C   UNL     1     -34.109  65.295  -9.167  0.00  0.00    +0.000 C 
BRANCH  85  86
ATOM     86  C   UNL     1     -34.521  66.042 -10.440  0.00  0.00    +0.000 C 
ATOM     87  C   UNL     1     -34.881  66.695 -11.543  0.00  0.00    +0.000 C 
ENDBRANCH  85  86
ENDBRANCH  69  84
BRANCH  13  88
ATOM     88  C   UNL     1     -34.890  62.872  -2.426  0.00  0.00    +0.000 C 
BRANCH  88  89
ATOM     89  O   UNL     1     -34.778  62.142  -1.325  0.00  0.00    +0.000 OA
ATOM     90  H   UNL     1     -34.284  62.637  -0.647  0.00  0.00    +0.000 HD
ENDBRANCH  88  89
ENDBRANCH  13  88
TORSDOF 4
ENDMDL
MODEL 6
REMARK VINA RESULT:      -8.8      6.677     13.780
REMARK  Name = Cyclosporin_A.pdbqt.pdb
REMARK  4 active torsions:
REMARK  status: ('A' for Active; 'I' for Inactive)
REMARK    1  A    between atoms: N_13  and  C_36
REMARK    2  A    between atoms: C_36  and  O_70
REMARK    3  A    between atoms: C_72  and  C_73
REMARK    4  A    between atoms: C_75  and  C_76
REMARK                            x       y       z     vdW  Elec       q    Type
REMARK                         _______ _______ _______ _____ _____    ______ ____
ROOT
ATOM      1  O   UNL     1     -38.299  45.743 -20.561  0.00  0.00    +0.000 OA
ATOM      2  O   UNL     1     -37.068  43.958 -15.912  0.00  0.00    +0.000 OA
ATOM      3  O   UNL     1     -35.083  47.827 -13.910  0.00  0.00    +0.000 OA
ATOM      4  O   UNL     1     -35.410  49.110 -22.641  0.00  0.00    +0.000 OA
ATOM      5  O   UNL     1     -39.909  46.267 -13.864  0.00  0.00    +0.000 OA
ATOM      6  O   UNL     1     -42.741  57.031 -15.658  0.00  0.00    +0.000 OA
ATOM      7  O   UNL     1     -40.935  49.724 -23.077  0.00  0.00    +0.000 OA
ATOM      8  O   UNL     1     -39.491  56.770 -19.351  0.00  0.00    +0.000 OA
ATOM      9  O   UNL     1     -42.504  53.750 -12.101  0.00  0.00    +0.000 OA
ATOM     10  O   UNL     1     -40.215  54.032 -22.326  0.00  0.00    +0.000 OA
ATOM     11  O   UNL     1     -42.542  49.707 -13.603  0.00  0.00    +0.000 OA
ATOM     12  N   UNL     1     -37.072  45.235 -17.369  0.00  0.00    +0.000 NA
ATOM     13  N   UNL     1     -36.746  47.330 -19.634  0.00  0.00    +0.000 NA
ATOM     14  N   UNL     1     -35.967  46.140 -14.467  0.00  0.00    +0.000 NA
ATOM     15  N   UNL     1     -38.144  47.983 -13.061  0.00  0.00    +0.000 NA
ATOM     16  N   UNL     1     -37.485  49.678 -21.492  0.00  0.00    +0.000 NA
ATOM     17  N   UNL     1     -40.839  56.037 -14.689  0.00  0.00    +0.000 N 
ATOM     18  N   UNL     1     -40.301  55.357 -17.669  0.00  0.00    +0.000 N 
ATOM     19  N   UNL     1     -40.297  54.297 -20.373  0.00  0.00    +0.000 NA
ATOM     20  N   UNL     1     -40.358  50.611 -21.064  0.00  0.00    +0.000 NA
ATOM     21  N   UNL     1     -40.166  49.779 -14.318  0.00  0.00    +0.000 NA
ATOM     22  N   UNL     1     -41.486  53.044 -14.174  0.00  0.00    +0.000 NA
ATOM     23  C   UNL     1     -37.940  45.404 -18.408  0.00  0.00    +0.000 C 
ATOM     24  C   UNL     1     -36.238  46.311 -15.764  0.00  0.00    +0.000 C 
ATOM     25  C   UNL     1     -36.135  47.677 -20.823  0.00  0.00    +0.000 C 
ATOM     26  C   UNL     1     -38.800  44.416 -18.851  0.00  0.00    +0.000 C 
ATOM     27  C   UNL     1     -34.882  46.738 -16.178  0.00  0.00    +0.000 C 
ATOM     28  C   UNL     1     -37.597  46.234 -19.455  0.00  0.00    +0.000 C 
ATOM     29  C   UNL     1     -37.036  45.239 -15.986  0.00  0.00    +0.000 C 
ATOM     30  C   UNL     1     -37.266  47.018 -13.092  0.00  0.00    +0.000 C 
ATOM     31  C   UNL     1     -36.286  47.343 -13.982  0.00  0.00    +0.000 C 
ATOM     32  C   UNL     1     -36.236  49.022 -21.465  0.00  0.00    +0.000 C 
ATOM     33  C   UNL     1     -38.370  43.324 -18.037  0.00  0.00    +0.000 C 
ATOM     34  C   UNL     1     -38.857  44.532 -20.200  0.00  0.00    +0.000 C 
ATOM     35  C   UNL     1     -37.490  43.934 -17.155  0.00  0.00    +0.000 C 
ATOM     36  C   UNL     1     -34.629  46.620 -14.489  0.00  0.00    +0.000 C 
ATOM     37  C   UNL     1     -38.464  49.534 -22.507  0.00  0.00    +0.000 C 
ATOM     38  C   UNL     1     -41.337  56.099 -17.162  0.00  0.00    +0.000 A 
ATOM     39  C   UNL     1     -39.040  47.390 -13.844  0.00  0.00    +0.000 C 
ATOM     40  C   UNL     1     -41.458  55.356 -13.611  0.00  0.00    +0.000 C 
ATOM     41  C   UNL     1     -39.175  54.853 -19.856  0.00  0.00    +0.000 C 
ATOM     42  C   UNL     1     -38.271  47.787 -11.594  0.00  0.00    +0.000 C 
ATOM     43  C   UNL     1     -42.414  56.741 -17.847  0.00  0.00    +0.000 A 
ATOM     44  C   UNL     1     -41.566  56.730 -12.435  0.00  0.00    +0.000 C 
ATOM     45  C   UNL     1     -39.954  48.501 -14.236  0.00  0.00    +0.000 C 
ATOM     46  C   UNL     1     -39.051  56.171 -20.571  0.00  0.00    +0.000 C 
ATOM     47  C   UNL     1     -37.971  48.900 -23.687  0.00  0.00    +0.000 C 
ATOM     48  C   UNL     1     -41.570  56.328 -15.810  0.00  0.00    +0.000 A 
ATOM     49  C   UNL     1     -39.749  49.901 -22.277  0.00  0.00    +0.000 C 
ATOM     50  C   UNL     1     -39.705  55.599 -18.815  0.00  0.00    +0.000 C 
ATOM     51  C   UNL     1     -41.854  54.070 -13.325  0.00  0.00    +0.000 C 
ATOM     52  C   UNL     1     -39.967  52.024 -21.056  0.00  0.00    +0.000 C 
ATOM     53  C   UNL     1     -42.726  56.759 -19.320  0.00  0.00    +0.000 C 
ATOM     54  C   UNL     1     -43.241  57.285 -16.899  0.00  0.00    +0.000 A 
ATOM     55  C   UNL     1     -39.680  53.405 -21.211  0.00  0.00    +0.000 C 
ATOM     56  C   UNL     1     -41.787  51.796 -14.016  0.00  0.00    +0.000 C 
ATOM     57  C   UNL     1     -40.563  47.276 -14.206  0.00  0.00    +0.000 C 
ATOM     58  C   UNL     1     -40.985  56.908 -13.665  0.00  0.00    +0.000 C 
ATOM     59  C   UNL     1     -37.006  48.371 -24.162  0.00  0.00    +0.000 C 
ATOM     60  C   UNL     1     -41.334  50.349 -14.064  0.00  0.00    +0.000 C 
ATOM     61  C   UNL     1     -40.517  55.259 -21.590  0.00  0.00    +0.000 C 
ATOM     62  C   UNL     1     -41.216  50.291 -22.014  0.00  0.00    +0.000 C 
ATOM     63  C   UNL     1     -42.745  50.933 -13.599  0.00  0.00    +0.000 C 
ATOM     64  H   UNL     1     -37.944  49.636 -20.582  0.00  0.00    +0.000 HD
ATOM     65  H   UNL     1     -40.143  54.451 -17.234  0.00  0.00    +0.000 HD
ATOM     66  H   UNL     1     -39.349  50.384 -14.334  0.00  0.00    +0.000 HD
ATOM     67  H   UNL     1     -40.665  53.294 -14.716  0.00  0.00    +0.000 HD
ATOM     68  C   UNL     1     -35.734  46.791 -21.694  0.00  0.00    +0.000 C 
ATOM     69  C   UNL     1     -35.458  46.767 -23.089  0.00  0.00    +0.000 C 
ATOM     70  C   UNL     1     -35.695  48.115 -23.643  0.00  0.00    +0.000 C 
ATOM     71  C   UNL     1     -33.410  46.056 -16.584  0.00  0.00    +0.000 C 
ATOM     72  C   UNL     1     -32.559  46.495 -17.510  0.00  0.00    +0.000 C 
ATOM     73  C   UNL     1     -33.559  46.260 -15.209  0.00  0.00    +0.000 C 
ATOM     74  C   UNL     1     -37.224  46.815 -11.637  0.00  0.00    +0.000 C 
ATOM     75  C   UNL     1     -38.210  46.596 -10.684  0.00  0.00    +0.000 C 
ATOM     76  C   UNL     1     -37.900  46.679  -9.174  0.00  0.00    +0.000 C 
ATOM     77  C   UNL     1     -39.390  47.250 -10.985  0.00  0.00    +0.000 C 
ATOM     78  C   UNL     1     -38.524  56.860 -21.916  0.00  0.00    +0.000 C 
ATOM     79  C   UNL     1     -38.055  58.064 -22.232  0.00  0.00    +0.000 C 
ATOM     80  C   UNL     1     -39.680  56.138 -22.219  0.00  0.00    +0.000 C 
ATOM     81  C   UNL     1     -42.172  56.250 -11.347  0.00  0.00    +0.000 C 
ATOM     82  C   UNL     1     -42.435  57.093 -10.144  0.00  0.00    +0.000 C 
ATOM     83  C   UNL     1     -42.525  54.879 -11.392  0.00  0.00    +0.000 C 
ENDROOT
BRANCH  69  84
ATOM     84  C   UNL     1     -35.381  45.612 -23.903  0.00  0.00    +0.000 C 
ATOM     85  C   UNL     1     -35.307  44.632 -24.594  0.00  0.00    +0.000 C 
BRANCH  85  86
ATOM     86  C   UNL     1     -35.209  43.384 -25.477  0.00  0.00    +0.000 C 
ATOM     87  C   UNL     1     -35.118  42.300 -26.246  0.00  0.00    +0.000 C 
ENDBRANCH  85  86
ENDBRANCH  69  84
BRANCH  13  88
ATOM     88  C   UNL     1     -36.727  48.321 -18.570  0.00  0.00    +0.000 C 
BRANCH  88  89
ATOM     89  O   UNL     1     -36.719  49.241 -17.616  0.00  0.00    +0.000 OA
ATOM     90  H   UNL     1     -35.874  49.212 -17.132  0.00  0.00    +0.000 HD
ENDBRANCH  88  89
ENDBRANCH  13  88
TORSDOF 4
ENDMDL
MODEL 7
REMARK VINA RESULT:      -8.6      3.638     13.788
REMARK  Name = Cyclosporin_A.pdbqt.pdb
REMARK  4 active torsions:
REMARK  status: ('A' for Active; 'I' for Inactive)
REMARK    1  A    between atoms: N_13  and  C_36
REMARK    2  A    between atoms: C_36  and  O_70
REMARK    3  A    between atoms: C_72  and  C_73
REMARK    4  A    between atoms: C_75  and  C_76
REMARK                            x       y       z     vdW  Elec       q    Type
REMARK                         _______ _______ _______ _____ _____    ______ ____
ROOT
ATOM      1  O   UNL     1     -40.624  47.000 -17.584  0.00  0.00    +0.000 OA
ATOM      2  O   UNL     1     -36.217  44.932 -19.200  0.00  0.00    +0.000 OA
ATOM      3  O   UNL     1     -33.084  46.890 -16.156  0.00  0.00    +0.000 OA
ATOM      4  O   UNL     1     -40.574  51.550 -15.767  0.00  0.00    +0.000 OA
ATOM      5  O   UNL     1     -35.663  42.537 -15.801  0.00  0.00    +0.000 OA
ATOM      6  O   UNL     1     -37.484  45.232  -5.006  0.00  0.00    +0.000 OA
ATOM      7  O   UNL     1     -43.689  47.704 -13.198  0.00  0.00    +0.000 OA
ATOM      8  O   UNL     1     -39.017  49.540  -6.840  0.00  0.00    +0.000 OA
ATOM      9  O   UNL     1     -34.674  42.393  -7.749  0.00  0.00    +0.000 OA
ATOM     10  O   UNL     1     -42.220  49.476  -9.410  0.00  0.00    +0.000 OA
ATOM     11  O   UNL     1     -36.409  41.631 -11.623  0.00  0.00    +0.000 OA
ATOM     12  N   UNL     1     -37.328  46.142 -18.173  0.00  0.00    +0.000 NA
ATOM     13  N   UNL     1     -38.874  48.323 -16.599  0.00  0.00    +0.000 NA
ATOM     14  N   UNL     1     -34.190  45.861 -17.443  0.00  0.00    +0.000 NA
ATOM     15  N   UNL     1     -33.896  44.136 -14.788  0.00  0.00    +0.000 NA
ATOM     16  N   UNL     1     -40.586  49.563 -14.353  0.00  0.00    +0.000 NA
ATOM     17  N   UNL     1     -35.796  45.850  -6.527  0.00  0.00    +0.000 N 
ATOM     18  N   UNL     1     -38.142  47.532  -7.667  0.00  0.00    +0.000 N 
ATOM     19  N   UNL     1     -40.565  48.517  -8.931  0.00  0.00    +0.000 NA
ATOM     20  N   UNL     1     -41.580  47.456 -12.381  0.00  0.00    +0.000 NA
ATOM     21  N   UNL     1     -35.806  43.869 -12.513  0.00  0.00    +0.000 NA
ATOM     22  N   UNL     1     -36.004  43.977  -8.995  0.00  0.00    +0.000 NA
ATOM     23  C   UNL     1     -38.638  46.059 -17.804  0.00  0.00    +0.000 C 
ATOM     24  C   UNL     1     -35.418  46.373 -17.321  0.00  0.00    +0.000 C 
ATOM     25  C   UNL     1     -39.543  49.531 -16.630  0.00  0.00    +0.000 C 
ATOM     26  C   UNL     1     -39.560  45.249 -18.443  0.00  0.00    +0.000 C 
ATOM     27  C   UNL     1     -35.036  47.796 -17.473  0.00  0.00    +0.000 C 
ATOM     28  C   UNL     1     -39.270  47.165 -17.276  0.00  0.00    +0.000 C 
ATOM     29  C   UNL     1     -36.127  45.469 -18.037  0.00  0.00    +0.000 C 
ATOM     30  C   UNL     1     -33.580  44.477 -16.007  0.00  0.00    +0.000 C 
ATOM     31  C   UNL     1     -33.808  45.812 -16.164  0.00  0.00    +0.000 C 
ATOM     32  C   UNL     1     -39.999  50.278 -15.418  0.00  0.00    +0.000 C 
ATOM     33  C   UNL     1     -38.762  44.766 -19.526  0.00  0.00    +0.000 C 
ATOM     34  C   UNL     1     -40.729  45.934 -18.457  0.00  0.00    +0.000 C 
ATOM     35  C   UNL     1     -37.496  45.227 -19.196  0.00  0.00    +0.000 C 
ATOM     36  C   UNL     1     -33.477  47.090 -17.498  0.00  0.00    +0.000 C 
ATOM     37  C   UNL     1     -41.967  49.264 -14.229  0.00  0.00    +0.000 C 
ATOM     38  C   UNL     1     -38.156  46.743  -6.545  0.00  0.00    +0.000 A 
ATOM     39  C   UNL     1     -35.084  43.618 -15.085  0.00  0.00    +0.000 C 
ATOM     40  C   UNL     1     -35.261  44.568  -6.814  0.00  0.00    +0.000 C 
ATOM     41  C   UNL     1     -39.493  49.332  -8.779  0.00  0.00    +0.000 C 
ATOM     42  C   UNL     1     -32.728  43.219 -14.768  0.00  0.00    +0.000 C 
ATOM     43  C   UNL     1     -39.220  46.492  -5.626  0.00  0.00    +0.000 A 
ATOM     44  C   UNL     1     -34.165  44.396  -5.382  0.00  0.00    +0.000 C 
ATOM     45  C   UNL     1     -35.764  43.518 -13.762  0.00  0.00    +0.000 C 
ATOM     46  C   UNL     1     -39.900  50.280  -7.684  0.00  0.00    +0.000 C 
ATOM     47  C   UNL     1     -42.792  50.012 -15.121  0.00  0.00    +0.000 C 
ATOM     48  C   UNL     1     -37.094  45.959  -6.106  0.00  0.00    +0.000 A 
ATOM     49  C   UNL     1     -42.384  48.284 -13.389  0.00  0.00    +0.000 C 
ATOM     50  C   UNL     1     -38.793  48.667  -7.785  0.00  0.00    +0.000 C 
ATOM     51  C   UNL     1     -35.355  43.639  -7.823  0.00  0.00    +0.000 C 
ATOM     52  C   UNL     1     -41.223  48.279 -11.222  0.00  0.00    +0.000 C 
ATOM     53  C   UNL     1     -40.635  47.005  -5.648  0.00  0.00    +0.000 C 
ATOM     54  C   UNL     1     -38.771  45.568  -4.717  0.00  0.00    +0.000 A 
ATOM     55  C   UNL     1     -41.062  49.093 -10.071  0.00  0.00    +0.000 C 
ATOM     56  C   UNL     1     -36.156  43.201 -10.019  0.00  0.00    +0.000 C 
ATOM     57  C   UNL     1     -36.179  42.576 -14.663  0.00  0.00    +0.000 C 
ATOM     58  C   UNL     1     -34.901  45.538  -5.562  0.00  0.00    +0.000 C 
ATOM     59  C   UNL     1     -42.765  50.809 -16.016  0.00  0.00    +0.000 C 
ATOM     60  C   UNL     1     -36.121  43.042 -11.527  0.00  0.00    +0.000 C 
ATOM     61  C   UNL     1     -41.614  49.321  -8.089  0.00  0.00    +0.000 C 
ATOM     62  C   UNL     1     -42.862  47.154 -12.459  0.00  0.00    +0.000 C 
ATOM     63  C   UNL     1     -36.378  41.925 -10.417  0.00  0.00    +0.000 C 
ATOM     64  H   UNL     1     -40.046  48.727 -14.125  0.00  0.00    +0.000 HD
ATOM     65  H   UNL     1     -37.787  47.099  -8.516  0.00  0.00    +0.000 HD
ATOM     66  H   UNL     1     -35.339  44.735 -12.259  0.00  0.00    +0.000 HD
ATOM     67  H   UNL     1     -36.023  44.984  -9.126  0.00  0.00    +0.000 HD
ATOM     68  C   UNL     1     -40.178  49.957 -17.687  0.00  0.00    +0.000 C 
ATOM     69  C   UNL     1     -41.233  50.873 -17.958  0.00  0.00    +0.000 C 
ATOM     70  C   UNL     1     -41.683  51.469 -16.685  0.00  0.00    +0.000 C 
ATOM     71  C   UNL     1     -34.708  48.895 -18.691  0.00  0.00    +0.000 C 
ATOM     72  C   UNL     1     -35.020  50.190 -18.699  0.00  0.00    +0.000 C 
ATOM     73  C   UNL     1     -33.588  48.155 -18.303  0.00  0.00    +0.000 C 
ATOM     74  C   UNL     1     -32.337  43.694 -16.058  0.00  0.00    +0.000 C 
ATOM     75  C   UNL     1     -32.047  42.363 -15.794  0.00  0.00    +0.000 C 
ATOM     76  C   UNL     1     -30.590  41.866 -15.674  0.00  0.00    +0.000 C 
ATOM     77  C   UNL     1     -32.833  41.840 -14.785  0.00  0.00    +0.000 C 
ATOM     78  C   UNL     1     -40.709  51.629  -7.384  0.00  0.00    +0.000 C 
ATOM     79  C   UNL     1     -40.611  52.600  -6.480  0.00  0.00    +0.000 C 
ATOM     80  C   UNL     1     -41.631  50.617  -7.655  0.00  0.00    +0.000 C 
ATOM     81  C   UNL     1     -33.594  43.193  -5.486  0.00  0.00    +0.000 C 
ATOM     82  C   UNL     1     -32.609  42.689  -4.484  0.00  0.00    +0.000 C 
ATOM     83  C   UNL     1     -33.958  42.434  -6.625  0.00  0.00    +0.000 C 
ENDROOT
BRANCH  69  84
ATOM     84  C   UNL     1     -42.012  50.919 -19.138  0.00  0.00    +0.000 C 
ATOM     85  C   UNL     1     -42.679  50.952 -20.137  0.00  0.00    +0.000 C 
BRANCH  85  86
ATOM     86  C   UNL     1     -43.531  50.990 -21.410  0.00  0.00    +0.000 C 
ATOM     87  C   UNL     1     -44.268  51.026 -22.518  0.00  0.00    +0.000 C 
ENDBRANCH  85  86
ENDBRANCH  69  84
BRANCH  13  88
ATOM     88  C   UNL     1     -37.849  48.164 -15.580  0.00  0.00    +0.000 C 
BRANCH  88  89
ATOM     89  O   UNL     1     -36.932  48.020 -14.633  0.00  0.00    +0.000 OA
ATOM     90  H   UNL     1     -36.821  48.856 -14.147  0.00  0.00    +0.000 HD
ENDBRANCH  88  89
ENDBRANCH  13  88
TORSDOF 4
ENDMDL
MODEL 8
REMARK VINA RESULT:      -8.5      6.437     15.948
REMARK  Name = Cyclosporin_A.pdbqt.pdb
REMARK  4 active torsions:
REMARK  status: ('A' for Active; 'I' for Inactive)
REMARK    1  A    between atoms: N_13  and  C_36
REMARK    2  A    between atoms: C_36  and  O_70
REMARK    3  A    between atoms: C_72  and  C_73
REMARK    4  A    between atoms: C_75  and  C_76
REMARK                            x       y       z     vdW  Elec       q    Type
REMARK                         _______ _______ _______ _____ _____    ______ ____
ROOT
ATOM      1  O   UNL     1     -40.665  50.448 -19.063  0.00  0.00    +0.000 OA
ATOM      2  O   UNL     1     -38.005  46.327 -17.564  0.00  0.00    +0.000 OA
ATOM      3  O   UNL     1     -35.395  48.138 -13.983  0.00  0.00    +0.000 OA
ATOM      4  O   UNL     1     -38.560  54.862 -18.753  0.00  0.00    +0.000 OA
ATOM      5  O   UNL     1     -39.965  45.940 -13.876  0.00  0.00    +0.000 OA
ATOM      6  O   UNL     1     -43.021  54.099  -6.721  0.00  0.00    +0.000 OA
ATOM      7  O   UNL     1     -43.906  54.364 -17.250  0.00  0.00    +0.000 OA
ATOM      8  O   UNL     1     -41.177  57.128 -10.141  0.00  0.00    +0.000 OA
ATOM      9  O   UNL     1     -41.686  49.441  -6.762  0.00  0.00    +0.000 OA
ATOM     10  O   UNL     1     -42.896  57.049 -13.871  0.00  0.00    +0.000 OA
ATOM     11  O   UNL     1     -42.296  47.601 -10.615  0.00  0.00    +0.000 OA
ATOM     12  N   UNL     1     -38.464  48.207 -17.618  0.00  0.00    +0.000 NA
ATOM     13  N   UNL     1     -38.863  51.283 -17.705  0.00  0.00    +0.000 NA
ATOM     14  N   UNL     1     -36.446  47.131 -15.332  0.00  0.00    +0.000 NA
ATOM     15  N   UNL     1     -38.000  46.997 -12.561  0.00  0.00    +0.000 NA
ATOM     16  N   UNL     1     -40.128  54.026 -17.083  0.00  0.00    +0.000 NA
ATOM     17  N   UNL     1     -40.925  53.167  -7.254  0.00  0.00    +0.000 N 
ATOM     18  N   UNL     1     -41.413  54.819  -9.836  0.00  0.00    +0.000 N 
ATOM     19  N   UNL     1     -42.323  55.899 -12.375  0.00  0.00    +0.000 NA
ATOM     20  N   UNL     1     -42.680  53.757 -15.432  0.00  0.00    +0.000 NA
ATOM     21  N   UNL     1     -40.289  48.661 -11.619  0.00  0.00    +0.000 NA
ATOM     22  N   UNL     1     -41.424  50.569  -8.881  0.00  0.00    +0.000 NA
ATOM     23  C   UNL     1     -39.623  48.836 -17.971  0.00  0.00    +0.000 C 
ATOM     24  C   UNL     1     -37.127  48.066 -16.000  0.00  0.00    +0.000 C 
ATOM     25  C   UNL     1     -38.672  52.465 -18.393  0.00  0.00    +0.000 C 
ATOM     26  C   UNL     1     -40.600  48.249 -18.754  0.00  0.00    +0.000 C 
ATOM     27  C   UNL     1     -35.975  48.946 -16.302  0.00  0.00    +0.000 C 
ATOM     28  C   UNL     1     -39.628  50.203 -18.157  0.00  0.00    +0.000 C 
ATOM     29  C   UNL     1     -37.973  47.285 -16.711  0.00  0.00    +0.000 C 
ATOM     30  C   UNL     1     -37.201  46.533 -13.481  0.00  0.00    +0.000 C 
ATOM     31  C   UNL     1     -36.564  47.579 -14.079  0.00  0.00    +0.000 C 
ATOM     32  C   UNL     1     -38.953  53.823 -17.837  0.00  0.00    +0.000 C 
ATOM     33  C   UNL     1     -39.946  47.026 -19.097  0.00  0.00    +0.000 C 
ATOM     34  C   UNL     1     -41.097  49.229 -19.547  0.00  0.00    +0.000 C 
ATOM     35  C   UNL     1     -38.813  47.055 -18.298  0.00  0.00    +0.000 C 
ATOM     36  C   UNL     1     -35.181  47.780 -15.333  0.00  0.00    +0.000 C 
ATOM     37  C   UNL     1     -41.390  54.393 -17.615  0.00  0.00    +0.000 C 
ATOM     38  C   UNL     1     -42.210  54.769  -8.721  0.00  0.00    +0.000 A 
ATOM     39  C   UNL     1     -39.116  46.909 -13.278  0.00  0.00    +0.000 C 
ATOM     40  C   UNL     1     -41.167  51.822  -6.875  0.00  0.00    +0.000 C 
ATOM     41  C   UNL     1     -41.083  56.189 -11.913  0.00  0.00    +0.000 C 
ATOM     42  C   UNL     1     -37.640  45.840 -11.701  0.00  0.00    +0.000 C 
ATOM     43  C   UNL     1     -43.440  55.445  -8.453  0.00  0.00    +0.000 A 
ATOM     44  C   UNL     1     -40.854  51.973  -5.097  0.00  0.00    +0.000 C 
ATOM     45  C   UNL     1     -40.086  47.753 -12.524  0.00  0.00    +0.000 C 
ATOM     46  C   UNL     1     -41.176  57.628 -11.480  0.00  0.00    +0.000 C 
ATOM     47  C   UNL     1     -41.327  54.852 -18.965  0.00  0.00    +0.000 C 
ATOM     48  C   UNL     1     -41.980  53.966  -7.608  0.00  0.00    +0.000 A 
ATOM     49  C   UNL     1     -42.520  54.212 -16.886  0.00  0.00    +0.000 C 
ATOM     50  C   UNL     1     -41.225  55.895 -10.567  0.00  0.00    +0.000 C 
ATOM     51  C   UNL     1     -41.471  50.637  -7.502  0.00  0.00    +0.000 C 
ATOM     52  C   UNL     1     -42.282  54.833 -14.520  0.00  0.00    +0.000 C 
ATOM     53  C   UNL     1     -44.220  56.383  -9.335  0.00  0.00    +0.000 C 
ATOM     54  C   UNL     1     -43.897  55.005  -7.237  0.00  0.00    +0.000 A 
ATOM     55  C   UNL     1     -42.034  55.973 -13.712  0.00  0.00    +0.000 C 
ATOM     56  C   UNL     1     -41.680  49.518  -9.590  0.00  0.00    +0.000 C 
ATOM     57  C   UNL     1     -40.675  46.736 -13.225  0.00  0.00    +0.000 C 
ATOM     58  C   UNL     1     -40.708  53.056  -5.924  0.00  0.00    +0.000 C 
ATOM     59  C   UNL     1     -40.583  55.015 -19.890  0.00  0.00    +0.000 C 
ATOM     60  C   UNL     1     -41.296  48.632 -10.759  0.00  0.00    +0.000 C 
ATOM     61  C   UNL     1     -42.914  57.348 -12.440  0.00  0.00    +0.000 C 
ATOM     62  C   UNL     1     -43.810  53.983 -16.077  0.00  0.00    +0.000 C 
ATOM     63  C   UNL     1     -42.463  48.416  -9.692  0.00  0.00    +0.000 C 
ATOM     64  H   UNL     1     -40.262  53.281 -16.399  0.00  0.00    +0.000 HD
ATOM     65  H   UNL     1     -41.139  53.923 -10.231  0.00  0.00    +0.000 HD
ATOM     66  H   UNL     1     -39.511  49.279 -11.400  0.00  0.00    +0.000 HD
ATOM     67  H   UNL     1     -40.823  51.293  -9.263  0.00  0.00    +0.000 HD
ATOM     68  C   UNL     1     -38.599  52.518 -19.695  0.00  0.00    +0.000 C 
ATOM     69  C   UNL     1     -38.799  53.504 -20.701  0.00  0.00    +0.000 C 
ATOM     70  C   UNL     1     -39.180  54.774 -20.052  0.00  0.00    +0.000 C 
ATOM     71  C   UNL     1     -34.732  49.067 -17.416  0.00  0.00    +0.000 C 
ATOM     72  C   UNL     1     -34.227  50.190 -17.924  0.00  0.00    +0.000 C 
ATOM     73  C   UNL     1     -34.416  48.250 -16.327  0.00  0.00    +0.000 C 
ATOM     74  C   UNL     1     -36.685  45.417 -12.676  0.00  0.00    +0.000 C 
ATOM     75  C   UNL     1     -37.305  44.402 -11.961  0.00  0.00    +0.000 C 
ATOM     76  C   UNL     1     -36.513  43.509 -10.982  0.00  0.00    +0.000 C 
ATOM     77  C   UNL     1     -38.505  44.803 -11.406  0.00  0.00    +0.000 C 
ATOM     78  C   UNL     1     -41.110  59.137 -12.008  0.00  0.00    +0.000 C 
ATOM     79  C   UNL     1     -40.748  60.302 -11.476  0.00  0.00    +0.000 C 
ATOM     80  C   UNL     1     -42.314  58.577 -12.437  0.00  0.00    +0.000 C 
ATOM     81  C   UNL     1     -41.076  50.765  -4.571  0.00  0.00    +0.000 C 
ATOM     82  C   UNL     1     -40.910  50.489  -3.113  0.00  0.00    +0.000 C 
ATOM     83  C   UNL     1     -41.450  49.753  -5.487  0.00  0.00    +0.000 C 
ENDROOT
BRANCH  69  84
ATOM     84  C   UNL     1     -39.017  53.258 -22.077  0.00  0.00    +0.000 C 
ATOM     85  C   UNL     1     -39.197  53.054 -23.248  0.00  0.00    +0.000 C 
BRANCH  85  86
ATOM     86  C   UNL     1     -39.424  52.799 -24.741  0.00  0.00    +0.000 C 
ATOM     87  C   UNL     1     -39.628  52.577 -26.039  0.00  0.00    +0.000 C 
ENDBRANCH  85  86
ENDBRANCH  69  84
BRANCH  13  88
ATOM     88  C   UNL     1     -38.475  51.267 -16.304  0.00  0.00    +0.000 C 
BRANCH  88  89
ATOM     89  O   UNL     1     -38.133  51.273 -15.023  0.00  0.00    +0.000 OA
ATOM     90  H   UNL     1     -38.081  52.189 -14.697  0.00  0.00    +0.000 HD
ENDBRANCH  88  89
ENDBRANCH  13  88
TORSDOF 4
ENDMDL
MODEL 9
REMARK VINA RESULT:      -8.4      3.476     11.263
REMARK  Name = Cyclosporin_A.pdbqt.pdb
REMARK  4 active torsions:
REMARK  status: ('A' for Active; 'I' for Inactive)
REMARK    1  A    between atoms: N_13  and  C_36
REMARK    2  A    between atoms: C_36  and  O_70
REMARK    3  A    between atoms: C_72  and  C_73
REMARK    4  A    between atoms: C_75  and  C_76
REMARK                            x       y       z     vdW  Elec       q    Type
REMARK                         _______ _______ _______ _____ _____    ______ ____
ROOT
ATOM      1  O   UNL     1     -32.794  36.546 -18.127  0.00  0.00    +0.000 OA
ATOM      2  O   UNL     1     -29.832  34.149 -14.694  0.00  0.00    +0.000 OA
ATOM      3  O   UNL     1     -27.499  37.835 -12.722  0.00  0.00    +0.000 OA
ATOM      4  O   UNL     1     -31.089  40.592 -20.304  0.00  0.00    +0.000 OA
ATOM      5  O   UNL     1     -31.862  35.647 -11.343  0.00  0.00    +0.000 OA
ATOM      6  O   UNL     1     -35.829  46.068  -9.683  0.00  0.00    +0.000 OA
ATOM      7  O   UNL     1     -36.416  40.512 -18.655  0.00  0.00    +0.000 OA
ATOM      8  O   UNL     1     -34.153  46.914 -14.238  0.00  0.00    +0.000 OA
ATOM      9  O   UNL     1     -34.095  42.271  -7.223  0.00  0.00    +0.000 OA
ATOM     10  O   UNL     1     -35.744  44.676 -17.292  0.00  0.00    +0.000 OA
ATOM     11  O   UNL     1     -34.426  38.592  -9.451  0.00  0.00    +0.000 OA
ATOM     12  N   UNL     1     -30.451  35.651 -15.747  0.00  0.00    +0.000 NA
ATOM     13  N   UNL     1     -31.113  38.140 -17.478  0.00  0.00    +0.000 NA
ATOM     14  N   UNL     1     -28.417  36.169 -13.287  0.00  0.00    +0.000 NA
ATOM     15  N   UNL     1     -30.037  37.417 -10.852  0.00  0.00    +0.000 NA
ATOM     16  N   UNL     1     -32.629  40.658 -18.413  0.00  0.00    +0.000 NA
ATOM     17  N   UNL     1     -33.645  45.188  -9.672  0.00  0.00    +0.000 N 
ATOM     18  N   UNL     1     -34.197  45.128 -12.725  0.00  0.00    +0.000 N 
ATOM     19  N   UNL     1     -35.120  44.575 -15.424  0.00  0.00    +0.000 NA
ATOM     20  N   UNL     1     -35.197  41.098 -16.825  0.00  0.00    +0.000 NA
ATOM     21  N   UNL     1     -32.488  39.115 -10.913  0.00  0.00    +0.000 NA
ATOM     22  N   UNL     1     -33.868  42.090  -9.621  0.00  0.00    +0.000 NA
ATOM     23  C   UNL     1     -31.649  35.882 -16.359  0.00  0.00    +0.000 C 
ATOM     24  C   UNL     1     -29.156  36.528 -14.341  0.00  0.00    +0.000 C 
ATOM     25  C   UNL     1     -31.004  38.773 -18.701  0.00  0.00    +0.000 C 
ATOM     26  C   UNL     1     -32.547  34.881 -16.678  0.00  0.00    +0.000 C 
ATOM     27  C   UNL     1     -28.076  37.203 -15.096  0.00  0.00    +0.000 C 
ATOM     28  C   UNL     1     -31.767  36.924 -17.256  0.00  0.00    +0.000 C 
ATOM     29  C   UNL     1     -29.910  35.415 -14.497  0.00  0.00    +0.000 C 
ATOM     30  C   UNL     1     -29.173  36.603 -11.392  0.00  0.00    +0.000 C 
ATOM     31  C   UNL     1     -28.611  37.211 -12.475  0.00  0.00    +0.000 C 
ATOM     32  C   UNL     1     -31.419  40.184 -18.963  0.00  0.00    +0.000 C 
ATOM     33  C   UNL     1     -31.780  33.730 -16.319  0.00  0.00    +0.000 C 
ATOM     34  C   UNL     1     -33.103  35.226 -17.865  0.00  0.00    +0.000 C 
ATOM     35  C   UNL     1     -30.678  34.288 -15.688  0.00  0.00    +0.000 C 
ATOM     36  C   UNL     1     -27.214  36.823 -13.667  0.00  0.00    +0.000 C 
ATOM     37  C   UNL     1     -33.901  40.564 -19.032  0.00  0.00    +0.000 C 
ATOM     38  C   UNL     1     -35.020  45.619 -11.744  0.00  0.00    +0.000 A 
ATOM     39  C   UNL     1     -31.119  36.856 -11.383  0.00  0.00    +0.000 C 
ATOM     40  C   UNL     1     -33.780  44.247  -8.619  0.00  0.00    +0.000 C 
ATOM     41  C   UNL     1     -33.924  45.179 -15.220  0.00  0.00    +0.000 C 
ATOM     42  C   UNL     1     -29.604  36.948  -9.511  0.00  0.00    +0.000 C 
ATOM     43  C   UNL     1     -36.311  46.219 -11.858  0.00  0.00    +0.000 A 
ATOM     44  C   UNL     1     -33.536  45.363  -7.213  0.00  0.00    +0.000 C 
ATOM     45  C   UNL     1     -32.181  37.884 -11.186  0.00  0.00    +0.000 C 
ATOM     46  C   UNL     1     -34.155  46.607 -15.633  0.00  0.00    +0.000 C 
ATOM     47  C   UNL     1     -33.837  40.222 -20.416  0.00  0.00    +0.000 C 
ATOM     48  C   UNL     1     -34.754  45.570 -10.379  0.00  0.00    +0.000 A 
ATOM     49  C   UNL     1     -35.033  40.705 -18.297  0.00  0.00    +0.000 C 
ATOM     50  C   UNL     1     -34.081  45.649 -13.926  0.00  0.00    +0.000 C 
ATOM     51  C   UNL     1     -33.961  42.889  -8.497  0.00  0.00    +0.000 C 
ATOM     52  C   UNL     1     -34.921  42.527 -16.650  0.00  0.00    +0.000 C 
ATOM     53  C   UNL     1     -37.142  46.456 -13.090  0.00  0.00    +0.000 C 
ATOM     54  C   UNL     1     -36.764  46.468 -10.588  0.00  0.00    +0.000 A 
ATOM     55  C   UNL     1     -34.798  43.939 -16.594  0.00  0.00    +0.000 C 
ATOM     56  C   UNL     1     -34.010  40.805  -9.641  0.00  0.00    +0.000 C 
ATOM     57  C   UNL     1     -32.657  36.601 -11.211  0.00  0.00    +0.000 C 
ATOM     58  C   UNL     1     -33.460  45.834  -8.499  0.00  0.00    +0.000 C 
ATOM     59  C   UNL     1     -33.083  39.924 -21.298  0.00  0.00    +0.000 C 
ATOM     60  C   UNL     1     -33.515  39.466 -10.153  0.00  0.00    +0.000 C 
ATOM     61  C   UNL     1     -35.832  45.699 -16.251  0.00  0.00    +0.000 C 
ATOM     62  C   UNL     1     -36.322  40.837 -17.465  0.00  0.00    +0.000 C 
ATOM     63  C   UNL     1     -34.691  39.759  -9.114  0.00  0.00    +0.000 C 
ATOM     64  H   UNL     1     -32.719  40.392 -17.432  0.00  0.00    +0.000 HD
ATOM     65  H   UNL     1     -33.834  44.190 -12.578  0.00  0.00    +0.000 HD
ATOM     66  H   UNL     1     -31.775  39.819 -11.080  0.00  0.00    +0.000 HD
ATOM     67  H   UNL     1     -33.320  42.543 -10.347  0.00  0.00    +0.000 HD
ATOM     68  C   UNL     1     -30.896  38.119 -19.825  0.00  0.00    +0.000 C 
ATOM     69  C   UNL     1     -31.151  38.381 -21.200  0.00  0.00    +0.000 C 
ATOM     70  C   UNL     1     -31.660  39.761 -21.334  0.00  0.00    +0.000 C 
ATOM     71  C   UNL     1     -26.816  36.813 -16.124  0.00  0.00    +0.000 C 
ATOM     72  C   UNL     1     -26.394  37.521 -17.170  0.00  0.00    +0.000 C 
ATOM     73  C   UNL     1     -26.463  36.747 -14.773  0.00  0.00    +0.000 C 
ATOM     74  C   UNL     1     -28.587  36.151 -10.122  0.00  0.00    +0.000 C 
ATOM     75  C   UNL     1     -29.138  35.634  -8.957  0.00  0.00    +0.000 C 
ATOM     76  C   UNL     1     -28.301  35.489  -7.668  0.00  0.00    +0.000 C 
ATOM     77  C   UNL     1     -30.384  36.163  -8.682  0.00  0.00    +0.000 C 
ATOM     78  C   UNL     1     -34.203  47.590 -16.896  0.00  0.00    +0.000 C 
ATOM     79  C   UNL     1     -33.960  48.884 -17.087  0.00  0.00    +0.000 C 
ATOM     80  C   UNL     1     -35.341  46.782 -16.927  0.00  0.00    +0.000 C 
ATOM     81  C   UNL     1     -33.668  44.618  -6.113  0.00  0.00    +0.000 C 
ATOM     82  C   UNL     1     -33.523  45.191  -4.742  0.00  0.00    +0.000 C 
ATOM     83  C   UNL     1     -33.925  43.242  -6.326  0.00  0.00    +0.000 C 
ENDROOT
BRANCH  69  84
ATOM     84  C   UNL     1     -31.305  37.411 -22.218  0.00  0.00    +0.000 C 
ATOM     85  C   UNL     1     -31.431  36.582 -23.078  0.00  0.00    +0.000 C 
BRANCH  85  86
ATOM     86  C   UNL     1     -31.588  35.522 -24.174  0.00  0.00    +0.000 C 
ATOM     87  C   UNL     1     -31.724  34.605 -25.130  0.00  0.00    +0.000 C 
ENDBRANCH  85  86
ENDBRANCH  69  84
BRANCH  13  88
ATOM     88  C   UNL     1     -30.767  38.919 -16.301  0.00  0.00    +0.000 C 
BRANCH  88  89
ATOM     89  O   UNL     1     -30.467  39.648 -15.234  0.00  0.00    +0.000 OA
ATOM     90  H   UNL     1     -31.215  40.230 -15.007  0.00  0.00    +0.000 HD
ENDBRANCH  88  89
ENDBRANCH  13  88
TORSDOF 4
ENDMDL
