MODEL 1
REMARK VINA RESULT:      -6.2      0.000      0.000
REMARK  Name = Danazol.pdbqt.pdb
REMARK  2 active torsions:
REMARK  status: ('A' for Active; 'I' for Inactive)
REMARK    1  A    between atoms: C_9  and  O_23
REMARK    2  A    between atoms: C_9  and  C_25
REMARK                            x       y       z     vdW  Elec       q    Type
REMARK                         _______ _______ _______ _____ _____    ______ ____
ROOT
ATOM      1  O   UNL     1     -34.926  47.542  -7.813  0.00  0.00    +0.000 OA
ATOM      2  N   UNL     1     -36.229  47.612  -8.349  0.00  0.00    +0.000 NA
ATOM      3  C   UNL     1     -34.555  41.626  -3.037  0.00  0.00    +0.000 C 
ATOM      4  C   UNL     1     -35.798  40.592  -3.038  0.00  0.00    +0.000 C 
ATOM      5  C   UNL     1     -34.195  42.445  -4.210  0.00  0.00    +0.000 C 
ATOM      6  C   UNL     1     -34.981  42.563  -5.487  0.00  0.00    +0.000 C 
ATOM      7  C   UNL     1     -34.490  43.329  -6.739  0.00  0.00    +0.000 C 
ATOM      8  C   UNL     1     -36.541  40.894  -4.271  0.00  0.00    +0.000 C 
ATOM      9  C   UNL     1     -36.572  40.914  -1.638  0.00  0.00    +0.000 C 
ATOM     10  C   UNL     1     -36.173  41.790  -5.427  0.00  0.00    +0.000 C 
ATOM     11  C   UNL     1     -34.337  42.093  -1.709  0.00  0.00    +0.000 C 
ATOM     12  C   UNL     1     -33.086  43.322  -4.180  0.00  0.00    +0.000 C 
ATOM     13  C   UNL     1     -35.517  41.642  -0.901  0.00  0.00    +0.000 C 
ATOM     14  C   UNL     1     -33.321  44.470  -6.445  0.00  0.00    +0.000 C 
ATOM     15  C   UNL     1     -35.161  39.156  -3.109  0.00  0.00    +0.000 C 
ATOM     16  C   UNL     1     -32.633  44.305  -5.218  0.00  0.00    +0.000 C 
ATOM     17  C   UNL     1     -35.623  44.122  -7.335  0.00  0.00    +0.000 C 
ATOM     18  C   UNL     1     -33.897  42.319  -7.762  0.00  0.00    +0.000 C 
ATOM     19  C   UNL     1     -33.575  45.693  -6.855  0.00  0.00    +0.000 C 
ATOM     20  C   UNL     1     -35.808  45.483  -7.715  0.00  0.00    +0.000 A 
ATOM     21  C   UNL     1     -34.719  46.269  -7.457  0.00  0.00    +0.000 A 
ATOM     22  C   UNL     1     -36.728  46.360  -8.282  0.00  0.00    +0.000 A 
ENDROOT
BRANCH   9  23
ATOM     23  O   UNL     1     -36.960  39.757  -0.882  0.00  0.00    +0.000 OA
ATOM     24  H   UNL     1     -37.722  39.353  -1.333  0.00  0.00    +0.000 HD
ENDBRANCH   9  23
BRANCH   9  25
ATOM     25  C   UNL     1     -37.759  41.775  -1.865  0.00  0.00    +0.000 C 
ATOM     26  C   UNL     1     -38.705  42.487  -2.030  0.00  0.00    +0.000 C 
ENDBRANCH   9  25
TORSDOF 2
ENDMDL
MODEL 2
REMARK VINA RESULT:      -6.1     19.495     21.672
REMARK  Name = Danazol.pdbqt.pdb
REMARK  2 active torsions:
REMARK  status: ('A' for Active; 'I' for Inactive)
REMARK    1  A    between atoms: C_9  and  O_23
REMARK    2  A    between atoms: C_9  and  C_25
REMARK                            x       y       z     vdW  Elec       q    Type
REMARK                         _______ _______ _______ _____ _____    ______ ____
ROOT
ATOM      1  O   UNL     1     -14.272  44.556 -10.437  0.00  0.00    +0.000 OA
ATOM      2  N   UNL     1     -14.284  43.192 -10.796  0.00  0.00    +0.000 NA
ATOM      3  C   UNL     1     -14.082  45.097  -2.847  0.00  0.00    +0.000 C 
ATOM      4  C   UNL     1     -13.797  43.740  -2.013  0.00  0.00    +0.000 C 
ATOM      5  C   UNL     1     -13.614  45.297  -4.232  0.00  0.00    +0.000 C 
ATOM      6  C   UNL     1     -12.962  44.262  -5.109  0.00  0.00    +0.000 C 
ATOM      7  C   UNL     1     -12.367  44.562  -6.505  0.00  0.00    +0.000 C 
ATOM      8  C   UNL     1     -13.279  42.787  -3.006  0.00  0.00    +0.000 C 
ATOM      9  C   UNL     1     -15.248  43.376  -1.359  0.00  0.00    +0.000 C 
ATOM     10  C   UNL     1     -12.869  43.011  -4.440  0.00  0.00    +0.000 C 
ATOM     11  C   UNL     1     -15.288  45.690  -2.377  0.00  0.00    +0.000 C 
ATOM     12  C   UNL     1     -13.862  46.506  -4.922  0.00  0.00    +0.000 C 
ATOM     13  C   UNL     1     -15.942  44.675  -1.486  0.00  0.00    +0.000 C 
ATOM     14  C   UNL     1     -12.954  45.932  -7.235  0.00  0.00    +0.000 C 
ATOM     15  C   UNL     1     -12.688  44.109  -0.962  0.00  0.00    +0.000 C 
ATOM     16  C   UNL     1     -13.568  46.853  -6.351  0.00  0.00    +0.000 C 
ATOM     17  C   UNL     1     -12.729  43.460  -7.466  0.00  0.00    +0.000 C 
ATOM     18  C   UNL     1     -10.826  44.732  -6.383  0.00  0.00    +0.000 C 
ATOM     19  C   UNL     1     -13.470  45.784  -8.435  0.00  0.00    +0.000 C 
ATOM     20  C   UNL     1     -13.333  43.408  -8.756  0.00  0.00    +0.000 A 
ATOM     21  C   UNL     1     -13.699  44.638  -9.231  0.00  0.00    +0.000 A 
ATOM     22  C   UNL     1     -13.708  42.531  -9.770  0.00  0.00    +0.000 A 
ENDROOT
BRANCH   9  23
ATOM     23  O   UNL     1     -15.208  42.998   0.026  0.00  0.00    +0.000 OA
ATOM     24  H   UNL     1     -14.534  43.548   0.462  0.00  0.00    +0.000 HD
ENDBRANCH   9  23
BRANCH   9  25
ATOM     25  C   UNL     1     -15.939  42.320  -2.138  0.00  0.00    +0.000 C 
ATOM     26  C   UNL     1     -16.520  41.477  -2.755  0.00  0.00    +0.000 C 
ENDBRANCH   9  25
TORSDOF 2
ENDMDL
MODEL 3
REMARK VINA RESULT:      -6.0      3.937      6.714
REMARK  Name = Danazol.pdbqt.pdb
REMARK  2 active torsions:
REMARK  status: ('A' for Active; 'I' for Inactive)
REMARK    1  A    between atoms: C_9  and  O_23
REMARK    2  A    between atoms: C_9  and  C_25
REMARK                            x       y       z     vdW  Elec       q    Type
REMARK                         _______ _______ _______ _____ _____    ______ ____
ROOT
ATOM      1  O   UNL     1     -41.708  46.675  -5.735  0.00  0.00    +0.000 OA
ATOM      2  N   UNL     1     -42.037  45.453  -5.110  0.00  0.00    +0.000 NA
ATOM      3  C   UNL     1     -34.676  46.146  -8.601  0.00  0.00    +0.000 C 
ATOM      4  C   UNL     1     -33.995  44.679  -8.632  0.00  0.00    +0.000 C 
ATOM      5  C   UNL     1     -36.137  46.350  -8.625  0.00  0.00    +0.000 C 
ATOM      6  C   UNL     1     -37.187  45.276  -8.528  0.00  0.00    +0.000 C 
ATOM      7  C   UNL     1     -38.703  45.531  -8.695  0.00  0.00    +0.000 C 
ATOM      8  C   UNL     1     -35.106  43.741  -8.410  0.00  0.00    +0.000 C 
ATOM      9  C   UNL     1     -32.870  44.750  -7.452  0.00  0.00    +0.000 C 
ATOM     10  C   UNL     1     -36.592  43.994  -8.376  0.00  0.00    +0.000 C 
ATOM     11  C   UNL     1     -33.810  47.049  -7.921  0.00  0.00    +0.000 C 
ATOM     12  C   UNL     1     -36.696  47.649  -8.620  0.00  0.00    +0.000 C 
ATOM     13  C   UNL     1     -32.744  46.212  -7.277  0.00  0.00    +0.000 C 
ATOM     14  C   UNL     1     -39.180  47.100  -8.440  0.00  0.00    +0.000 C 
ATOM     15  C   UNL     1     -33.404  44.511 -10.080  0.00  0.00    +0.000 C 
ATOM     16  C   UNL     1     -38.137  48.054  -8.531  0.00  0.00    +0.000 C 
ATOM     17  C   UNL     1     -39.473  44.750  -7.662  0.00  0.00    +0.000 C 
ATOM     18  C   UNL     1     -39.135  45.150 -10.139  0.00  0.00    +0.000 C 
ATOM     19  C   UNL     1     -40.120  47.291  -7.540  0.00  0.00    +0.000 C 
ATOM     20  C   UNL     1     -40.466  45.071  -6.691  0.00  0.00    +0.000 A 
ATOM     21  C   UNL     1     -40.782  46.402  -6.662  0.00  0.00    +0.000 A 
ATOM     22  C   UNL     1     -41.280  44.511  -5.711  0.00  0.00    +0.000 A 
ENDROOT
BRANCH   9  23
ATOM     23  O   UNL     1     -31.588  44.207  -7.806  0.00  0.00    +0.000 OA
ATOM     24  H   UNL     1     -31.468  44.337  -8.763  0.00  0.00    +0.000 HD
ENDBRANCH   9  23
BRANCH   9  25
ATOM     25  C   UNL     1     -33.353  44.100  -6.209  0.00  0.00    +0.000 C 
ATOM     26  C   UNL     1     -33.731  43.597  -5.193  0.00  0.00    +0.000 C 
ENDBRANCH   9  25
TORSDOF 2
ENDMDL
MODEL 4
REMARK VINA RESULT:      -5.9      4.990      7.248
REMARK  Name = Danazol.pdbqt.pdb
REMARK  2 active torsions:
REMARK  status: ('A' for Active; 'I' for Inactive)
REMARK    1  A    between atoms: C_9  and  O_23
REMARK    2  A    between atoms: C_9  and  C_25
REMARK                            x       y       z     vdW  Elec       q    Type
REMARK                         _______ _______ _______ _____ _____    ______ ____
ROOT
ATOM      1  O   UNL     1     -39.569  50.864  -8.300  0.00  0.00    +0.000 OA
ATOM      2  N   UNL     1     -39.487  51.022  -6.900  0.00  0.00    +0.000 NA
ATOM      3  C   UNL     1     -35.415  44.819 -10.335  0.00  0.00    +0.000 C 
ATOM      4  C   UNL     1     -34.875  43.857  -9.152  0.00  0.00    +0.000 C 
ATOM      5  C   UNL     1     -36.630  45.645 -10.201  0.00  0.00    +0.000 C 
ATOM      6  C   UNL     1     -37.440  45.840  -8.948  0.00  0.00    +0.000 C 
ATOM      7  C   UNL     1     -38.782  46.607  -8.895  0.00  0.00    +0.000 C 
ATOM      8  C   UNL     1     -35.664  44.232  -7.968  0.00  0.00    +0.000 C 
ATOM      9  C   UNL     1     -33.278  44.188  -9.083  0.00  0.00    +0.000 C 
ATOM     10  C   UNL     1     -36.867  45.134  -7.855  0.00  0.00    +0.000 C 
ATOM     11  C   UNL     1     -34.314  45.239 -11.134  0.00  0.00    +0.000 C 
ATOM     12  C   UNL     1     -37.085  46.457 -11.265  0.00  0.00    +0.000 C 
ATOM     13  C   UNL     1     -33.073  44.836 -10.395  0.00  0.00    +0.000 C 
ATOM     14  C   UNL     1     -39.027  47.672 -10.145  0.00  0.00    +0.000 C 
ATOM     15  C   UNL     1     -35.212  42.389  -9.605  0.00  0.00    +0.000 C 
ATOM     16  C   UNL     1     -38.219  47.438 -11.284  0.00  0.00    +0.000 C 
ATOM     17  C   UNL     1     -38.830  47.478  -7.667  0.00  0.00    +0.000 C 
ATOM     18  C   UNL     1     -39.959  45.591  -8.922  0.00  0.00    +0.000 C 
ATOM     19  C   UNL     1     -39.289  48.918  -9.814  0.00  0.00    +0.000 C 
ATOM     20  C   UNL     1     -39.094  48.857  -7.421  0.00  0.00    +0.000 A 
ATOM     21  C   UNL     1     -39.336  49.572  -8.561  0.00  0.00    +0.000 A 
ATOM     22  C   UNL     1     -39.208  49.798  -6.402  0.00  0.00    +0.000 A 
ENDROOT
BRANCH   9  23
ATOM     23  O   UNL     1     -32.426  43.036  -8.989  0.00  0.00    +0.000 OA
ATOM     24  H   UNL     1     -31.560  43.279  -9.360  0.00  0.00    +0.000 HD
ENDBRANCH   9  23
BRANCH   9  25
ATOM     25  C   UNL     1     -32.969  45.120  -7.970  0.00  0.00    +0.000 C 
ATOM     26  C   UNL     1     -32.746  45.882  -7.077  0.00  0.00    +0.000 C 
ENDBRANCH   9  25
TORSDOF 2
ENDMDL
MODEL 5
REMARK VINA RESULT:      -5.9      3.687      6.578
REMARK  Name = Danazol.pdbqt.pdb
REMARK  2 active torsions:
REMARK  status: ('A' for Active; 'I' for Inactive)
REMARK    1  A    between atoms: C_9  and  O_23
REMARK    2  A    between atoms: C_9  and  C_25
REMARK                            x       y       z     vdW  Elec       q    Type
REMARK                         _______ _______ _______ _____ _____    ______ ____
ROOT
ATOM      1  O   UNL     1     -40.509  46.692  -2.601  0.00  0.00    +0.000 OA
ATOM      2  N   UNL     1     -40.279  45.802  -1.530  0.00  0.00    +0.000 NA
ATOM      3  C   UNL     1     -35.260  45.477  -7.977  0.00  0.00    +0.000 C 
ATOM      4  C   UNL     1     -34.332  44.160  -7.825  0.00  0.00    +0.000 C 
ATOM      5  C   UNL     1     -36.616  45.570  -7.404  0.00  0.00    +0.000 C 
ATOM      6  C   UNL     1     -37.268  44.564  -6.494  0.00  0.00    +0.000 C 
ATOM      7  C   UNL     1     -38.742  44.643  -6.032  0.00  0.00    +0.000 C 
ATOM      8  C   UNL     1     -35.020  43.325  -6.829  0.00  0.00    +0.000 C 
ATOM      9  C   UNL     1     -32.881  44.759  -7.379  0.00  0.00    +0.000 C 
ATOM     10  C   UNL     1     -36.387  43.484  -6.213  0.00  0.00    +0.000 C 
ATOM     11  C   UNL     1     -34.426  46.624  -8.103  0.00  0.00    +0.000 C 
ATOM     12  C   UNL     1     -37.408  46.728  -7.577  0.00  0.00    +0.000 C 
ATOM     13  C   UNL     1     -33.032  46.175  -7.774  0.00  0.00    +0.000 C 
ATOM     14  C   UNL     1     -39.423  46.154  -6.124  0.00  0.00    +0.000 C 
ATOM     15  C   UNL     1     -34.339  43.466  -9.236  0.00  0.00    +0.000 C 
ATOM     16  C   UNL     1     -38.747  47.052  -6.986  0.00  0.00    +0.000 C 
ATOM     17  C   UNL     1     -38.843  44.293  -4.570  0.00  0.00    +0.000 C 
ATOM     18  C   UNL     1     -39.610  43.695  -6.908  0.00  0.00    +0.000 C 
ATOM     19  C   UNL     1     -39.948  46.631  -5.017  0.00  0.00    +0.000 C 
ATOM     20  C   UNL     1     -39.416  44.916  -3.423  0.00  0.00    +0.000 A 
ATOM     21  C   UNL     1     -39.989  46.127  -3.697  0.00  0.00    +0.000 A 
ATOM     22  C   UNL     1     -39.627  44.744  -2.058  0.00  0.00    +0.000 A 
ENDROOT
BRANCH   9  23
ATOM     23  O   UNL     1     -31.756  44.196  -8.072  0.00  0.00    +0.000 OA
ATOM     24  H   UNL     1     -32.039  44.000  -8.982  0.00  0.00    +0.000 HD
ENDBRANCH   9  23
BRANCH   9  25
ATOM     25  C   UNL     1     -32.673  44.630  -5.916  0.00  0.00    +0.000 C 
ATOM     26  C   UNL     1     -32.490  44.549  -4.737  0.00  0.00    +0.000 C 
ENDBRANCH   9  25
TORSDOF 2
ENDMDL
MODEL 6
REMARK VINA RESULT:      -5.8     20.890     22.885
REMARK  Name = Danazol.pdbqt.pdb
REMARK  2 active torsions:
REMARK  status: ('A' for Active; 'I' for Inactive)
REMARK    1  A    between atoms: C_9  and  O_23
REMARK    2  A    between atoms: C_9  and  C_25
REMARK                            x       y       z     vdW  Elec       q    Type
REMARK                         _______ _______ _______ _____ _____    ______ ____
ROOT
ATOM      1  O   UNL     1     -18.800  44.321   7.958  0.00  0.00    +0.000 OA
ATOM      2  N   UNL     1     -18.937  44.963   9.207  0.00  0.00    +0.000 NA
ATOM      3  C   UNL     1     -15.878  49.265   2.963  0.00  0.00    +0.000 C 
ATOM      4  C   UNL     1     -15.306  50.661   3.547  0.00  0.00    +0.000 C 
ATOM      5  C   UNL     1     -15.944  48.029   3.766  0.00  0.00    +0.000 C 
ATOM      6  C   UNL     1     -15.650  47.907   5.236  0.00  0.00    +0.000 C 
ATOM      7  C   UNL     1     -15.601  46.563   6.001  0.00  0.00    +0.000 C 
ATOM      8  C   UNL     1     -15.179  50.441   4.996  0.00  0.00    +0.000 C 
ATOM      9  C   UNL     1     -16.421  51.760   3.084  0.00  0.00    +0.000 C 
ATOM     10  C   UNL     1     -15.317  49.170   5.797  0.00  0.00    +0.000 C 
ATOM     11  C   UNL     1     -16.834  49.542   1.945  0.00  0.00    +0.000 C 
ATOM     12  C   UNL     1     -16.428  46.821   3.214  0.00  0.00    +0.000 C 
ATOM     13  C   UNL     1     -17.118  51.013   2.016  0.00  0.00    +0.000 C 
ATOM     14  C   UNL     1     -16.417  45.315   5.272  0.00  0.00    +0.000 C 
ATOM     15  C   UNL     1     -13.893  50.855   2.886  0.00  0.00    +0.000 C 
ATOM     16  C   UNL     1     -16.673  45.506   3.892  0.00  0.00    +0.000 C 
ATOM     17  C   UNL     1     -16.283  46.705   7.337  0.00  0.00    +0.000 C 
ATOM     18  C   UNL     1     -14.121  46.112   6.158  0.00  0.00    +0.000 C 
ATOM     19  C   UNL     1     -17.332  44.708   5.995  0.00  0.00    +0.000 C 
ATOM     20  C   UNL     1     -17.313  45.997   8.022  0.00  0.00    +0.000 A 
ATOM     21  C   UNL     1     -17.829  44.959   7.295  0.00  0.00    +0.000 A 
ATOM     22  C   UNL     1     -18.026  45.959   9.216  0.00  0.00    +0.000 A 
ENDROOT
BRANCH   9  23
ATOM     23  O   UNL     1     -15.881  52.972   2.535  0.00  0.00    +0.000 OA
ATOM     24  H   UNL     1     -15.228  53.317   3.168  0.00  0.00    +0.000 HD
ENDBRANCH   9  23
BRANCH   9  25
ATOM     25  C   UNL     1     -17.344  52.092   4.197  0.00  0.00    +0.000 C 
ATOM     26  C   UNL     1     -18.092  52.383   5.083  0.00  0.00    +0.000 C 
ENDBRANCH   9  25
TORSDOF 2
ENDMDL
MODEL 7
REMARK VINA RESULT:      -5.5     25.735     29.184
REMARK  Name = Danazol.pdbqt.pdb
REMARK  2 active torsions:
REMARK  status: ('A' for Active; 'I' for Inactive)
REMARK    1  A    between atoms: C_9  and  O_23
REMARK    2  A    between atoms: C_9  and  C_25
REMARK                            x       y       z     vdW  Elec       q    Type
REMARK                         _______ _______ _______ _____ _____    ______ ____
ROOT
ATOM      1  O   UNL     1     -17.044  56.614 -23.438  0.00  0.00    +0.000 OA
ATOM      2  N   UNL     1     -16.464  55.550 -22.715  0.00  0.00    +0.000 NA
ATOM      3  C   UNL     1     -18.471  62.351 -18.642  0.00  0.00    +0.000 C 
ATOM      4  C   UNL     1     -17.844  62.248 -17.155  0.00  0.00    +0.000 C 
ATOM      5  C   UNL     1     -17.871  61.678 -19.811  0.00  0.00    +0.000 C 
ATOM      6  C   UNL     1     -16.722  60.707 -19.785  0.00  0.00    +0.000 C 
ATOM      7  C   UNL     1     -16.043  60.136 -21.053  0.00  0.00    +0.000 C 
ATOM      8  C   UNL     1     -16.826  61.190 -17.245  0.00  0.00    +0.000 C 
ATOM      9  C   UNL     1     -19.135  61.922 -16.212  0.00  0.00    +0.000 C 
ATOM     10  C   UNL     1     -16.279  60.475 -18.455  0.00  0.00    +0.000 C 
ATOM     11  C   UNL     1     -19.876  62.556 -18.544  0.00  0.00    +0.000 C 
ATOM     12  C   UNL     1     -18.434  61.810 -21.101  0.00  0.00    +0.000 C 
ATOM     13  C   UNL     1     -20.240  62.326 -17.107  0.00  0.00    +0.000 C 
ATOM     14  C   UNL     1     -16.968  60.200 -22.430  0.00  0.00    +0.000 C 
ATOM     15  C   UNL     1     -17.175  63.643 -16.875  0.00  0.00    +0.000 C 
ATOM     16  C   UNL     1     -18.040  61.125 -22.376  0.00  0.00    +0.000 C 
ATOM     17  C   UNL     1     -15.770  58.665 -20.873  0.00  0.00    +0.000 C 
ATOM     18  C   UNL     1     -14.737  60.929 -21.341  0.00  0.00    +0.000 C 
ATOM     19  C   UNL     1     -17.158  59.065 -23.065  0.00  0.00    +0.000 C 
ATOM     20  C   UNL     1     -16.060  57.488 -21.623  0.00  0.00    +0.000 A 
ATOM     21  C   UNL     1     -16.778  57.737 -22.761  0.00  0.00    +0.000 A 
ATOM     22  C   UNL     1     -15.876  56.109 -21.635  0.00  0.00    +0.000 A 
ENDROOT
BRANCH   9  23
ATOM     23  O   UNL     1     -19.207  62.688 -15.000  0.00  0.00    +0.000 OA
ATOM     24  H   UNL     1     -19.140  62.067 -14.254  0.00  0.00    +0.000 HD
ENDBRANCH   9  23
BRANCH   9  25
ATOM     25  C   UNL     1     -19.212  60.476 -15.886  0.00  0.00    +0.000 C 
ATOM     26  C   UNL     1     -19.299  59.312 -15.630  0.00  0.00    +0.000 C 
ENDBRANCH   9  25
TORSDOF 2
ENDMDL
MODEL 8
REMARK VINA RESULT:      -5.5     27.962     30.843
REMARK  Name = Danazol.pdbqt.pdb
REMARK  2 active torsions:
REMARK  status: ('A' for Active; 'I' for Inactive)
REMARK    1  A    between atoms: C_9  and  O_23
REMARK    2  A    between atoms: C_9  and  C_25
REMARK                            x       y       z     vdW  Elec       q    Type
REMARK                         _______ _______ _______ _____ _____    ______ ____
ROOT
ATOM      1  O   UNL     1     -16.392  48.410 -23.179  0.00  0.00    +0.000 OA
ATOM      2  N   UNL     1     -15.544  48.674 -22.082  0.00  0.00    +0.000 NA
ATOM      3  C   UNL     1     -16.872  54.677 -27.474  0.00  0.00    +0.000 C 
ATOM      4  C   UNL     1     -15.843  55.881 -27.147  0.00  0.00    +0.000 C 
ATOM      5  C   UNL     1     -16.574  53.265 -27.165  0.00  0.00    +0.000 C 
ATOM      6  C   UNL     1     -15.389  52.754 -26.391  0.00  0.00    +0.000 C 
ATOM      7  C   UNL     1     -15.052  51.255 -26.213  0.00  0.00    +0.000 C 
ATOM      8  C   UNL     1     -14.808  55.275 -26.296  0.00  0.00    +0.000 C 
ATOM      9  C   UNL     1     -16.783  57.012 -26.439  0.00  0.00    +0.000 C 
ATOM     10  C   UNL     1     -14.569  53.827 -25.947  0.00  0.00    +0.000 C 
ATOM     11  C   UNL     1     -18.204  55.179 -27.444  0.00  0.00    +0.000 C 
ATOM     12  C   UNL     1     -17.489  52.236 -27.486  0.00  0.00    +0.000 C 
ATOM     13  C   UNL     1     -18.125  56.558 -26.858  0.00  0.00    +0.000 C 
ATOM     14  C   UNL     1     -16.331  50.221 -26.435  0.00  0.00    +0.000 C 
ATOM     15  C   UNL     1     -15.240  56.317 -28.533  0.00  0.00    +0.000 C 
ATOM     16  C   UNL     1     -17.417  50.774 -27.158  0.00  0.00    +0.000 C 
ATOM     17  C   UNL     1     -14.618  50.990 -24.795  0.00  0.00    +0.000 C 
ATOM     18  C   UNL     1     -13.952  50.848 -27.234  0.00  0.00    +0.000 C 
ATOM     19  C   UNL     1     -16.599  49.395 -25.448  0.00  0.00    +0.000 C 
ATOM     20  C   UNL     1     -15.010  50.071 -23.778  0.00  0.00    +0.000 A 
ATOM     21  C   UNL     1     -16.039  49.253 -24.157  0.00  0.00    +0.000 A 
ATOM     22  C   UNL     1     -14.723  49.671 -22.476  0.00  0.00    +0.000 A 
ENDROOT
BRANCH   9  23
ATOM     23  O   UNL     1     -16.572  58.353 -26.907  0.00  0.00    +0.000 OA
ATOM     24  H   UNL     1     -17.424  58.820 -26.854  0.00  0.00    +0.000 HD
ENDBRANCH   9  23
BRANCH   9  25
ATOM     25  C   UNL     1     -16.643  56.978 -24.962  0.00  0.00    +0.000 C 
ATOM     26  C   UNL     1     -16.541  56.926 -23.772  0.00  0.00    +0.000 C 
ENDBRANCH   9  25
TORSDOF 2
ENDMDL
MODEL 9
REMARK VINA RESULT:      -5.4     22.078     23.904
REMARK  Name = Danazol.pdbqt.pdb
REMARK  2 active torsions:
REMARK  status: ('A' for Active; 'I' for Inactive)
REMARK    1  A    between atoms: C_9  and  O_23
REMARK    2  A    between atoms: C_9  and  C_25
REMARK                            x       y       z     vdW  Elec       q    Type
REMARK                         _______ _______ _______ _____ _____    ______ ____
ROOT
ATOM      1  O   UNL     1     -19.219  45.471  10.207  0.00  0.00    +0.000 OA
ATOM      2  N   UNL     1     -19.962  45.879  11.335  0.00  0.00    +0.000 NA
ATOM      3  C   UNL     1     -17.007  51.657   6.362  0.00  0.00    +0.000 C 
ATOM      4  C   UNL     1     -17.212  53.091   7.081  0.00  0.00    +0.000 C 
ATOM      5  C   UNL     1     -16.842  50.400   7.117  0.00  0.00    +0.000 C 
ATOM      6  C   UNL     1     -16.988  50.231   8.605  0.00  0.00    +0.000 C 
ATOM      7  C   UNL     1     -16.671  48.920   9.362  0.00  0.00    +0.000 C 
ATOM      8  C   UNL     1     -17.460  52.773   8.496  0.00  0.00    +0.000 C 
ATOM      9  C   UNL     1     -18.460  53.757   6.267  0.00  0.00    +0.000 C 
ATOM     10  C   UNL     1     -17.345  51.459   9.226  0.00  0.00    +0.000 C 
ATOM     11  C   UNL     1     -17.637  51.680   5.085  0.00  0.00    +0.000 C 
ATOM     12  C   UNL     1     -16.642  49.167   6.454  0.00  0.00    +0.000 C 
ATOM     13  C   UNL     1     -18.462  52.932   5.041  0.00  0.00    +0.000 C 
ATOM     14  C   UNL     1     -16.691  47.550   8.425  0.00  0.00    +0.000 C 
ATOM     15  C   UNL     1     -15.848  53.855   6.912  0.00  0.00    +0.000 C 
ATOM     16  C   UNL     1     -16.566  47.787   7.034  0.00  0.00    +0.000 C 
ATOM     17  C   UNL     1     -17.729  48.657  10.403  0.00  0.00    +0.000 C 
ATOM     18  C   UNL     1     -15.255  49.019   9.997  0.00  0.00    +0.000 C 
ATOM     19  C   UNL     1     -17.483  46.577   8.821  0.00  0.00    +0.000 C 
ATOM     20  C   UNL     1     -18.571  47.554  10.726  0.00  0.00    +0.000 A 
ATOM     21  C   UNL     1     -18.409  46.487   9.886  0.00  0.00    +0.000 A 
ATOM     22  C   UNL     1     -19.544  47.129  11.625  0.00  0.00    +0.000 A 
ENDROOT
BRANCH   9  23
ATOM     23  O   UNL     1     -18.278  55.136   5.906  0.00  0.00    +0.000 OA
ATOM     24  H   UNL     1     -18.503  55.676   6.684  0.00  0.00    +0.000 HD
ENDBRANCH   9  23
BRANCH   9  25
ATOM     25  C   UNL     1     -19.732  53.608   7.016  0.00  0.00    +0.000 C 
ATOM     26  C   UNL     1     -20.770  53.499   7.598  0.00  0.00    +0.000 C 
ENDBRANCH   9  25
TORSDOF 2
ENDMDL
