MODEL 1
REMARK VINA RESULT:      -7.2      0.000      0.000
REMARK  Name = Dasatinib.pdbqt.pdb
REMARK  5 active torsions:
REMARK  status: ('A' for Active; 'I' for Inactive)
REMARK    1  A    between atoms: N_1  and  C_3
REMARK    2  A    between atoms: N_13  and  C_16
REMARK    3  A    between atoms: C_17  and  O_18
REMARK    4  A    between atoms: C_22  and  C_25
REMARK    5  A    between atoms: N_27  and  C_29
REMARK                            x       y       z     vdW  Elec       q    Type
REMARK                         _______ _______ _______ _____ _____    ______ ____
ROOT
ATOM      1  N   UNL     1     -19.249  56.156 -31.028  0.00  0.00    +0.000 N 
ATOM      2  H   UNL     1     -20.052  56.598 -30.596  0.00  0.00    +0.000 HD
ATOM      3  C   UNL     1     -18.219  55.852 -30.205  0.00  0.00    +0.000 A 
ATOM      4  S   UNL     1     -18.287  56.365 -28.554  0.00  0.00    +0.000 S 
ATOM      5  C   UNL     1     -16.750  55.665 -28.264  0.00  0.00    +0.000 A 
ATOM      6  C   UNL     1     -16.295  55.106 -29.434  0.00  0.00    +0.000 A 
ATOM      7  N   UNL     1     -17.106  55.235 -30.533  0.00  0.00    +0.000 NA
ENDROOT
BRANCH   1   8
ATOM      8  C   UNL     1     -19.579  55.438 -32.197  0.00  0.00    +0.000 A 
ATOM      9  N   UNL     1     -18.658  55.133 -33.118  0.00  0.00    +0.000 NA
ATOM     10  C   UNL     1     -19.078  54.500 -34.219  0.00  0.00    +0.000 A 
ATOM     11  N   UNL     1     -20.340  54.130 -34.468  0.00  0.00    +0.000 NA
ATOM     12  C   UNL     1     -18.047  54.138 -35.247  0.00  0.00    +0.000 C 
ATOM     13  C   UNL     1     -21.259  54.426 -33.532  0.00  0.00    +0.000 A 
ATOM     14  C   UNL     1     -20.909  55.100 -32.373  0.00  0.00    +0.000 A 
ATOM     15  N   UNL     1     -22.625  54.102 -33.746  0.00  0.00    +0.000 N 
ATOM     16  C   UNL     1     -23.450  53.716 -32.570  0.00  0.00    +0.000 C 
ATOM     17  C   UNL     1     -24.367  52.474 -32.410  0.00  0.00    +0.000 C 
ATOM     18  N   UNL     1     -24.697  51.337 -33.314  0.00  0.00    +0.000 N 
ATOM     19  C   UNL     1     -23.854  51.777 -34.461  0.00  0.00    +0.000 C 
ATOM     20  C   UNL     1     -22.921  52.994 -34.691  0.00  0.00    +0.000 C 
BRANCH  18  21
ATOM     21  C   UNL     1     -26.084  51.515 -33.721  0.00  0.00    +0.000 C 
ATOM     22  C   UNL     1     -27.546  51.703 -34.148  0.00  0.00    +0.000 C 
BRANCH  22  23
ATOM     23  O   UNL     1     -28.811  51.865 -34.515  0.00  0.00    +0.000 OA
ATOM     24  H   UNL     1     -29.086  52.788 -34.386  0.00  0.00    +0.000 HD
ENDBRANCH  22  23
ENDBRANCH  18  21
ENDBRANCH   1   8
BRANCH   5  25
ATOM     25  C   UNL     1     -16.144  55.707 -26.953  0.00  0.00    +0.000 C 
ATOM     26  O   UNL     1     -15.136  56.362 -26.698  0.00  0.00    +0.000 OA
ATOM     27  N   UNL     1     -16.747  54.877 -26.016  0.00  0.00    +0.000 N 
ATOM     28  H   UNL     1     -17.173  54.029 -26.389  0.00  0.00    +0.000 HD
BRANCH  27  29
ATOM     29  C   UNL     1     -16.324  54.771 -24.656  0.00  0.00    +0.000 A 
ATOM     30  C   UNL     1     -15.768  53.546 -24.232  0.00  0.00    +0.000 A 
ATOM     31  C   UNL     1     -15.300  53.372 -22.931  0.00  0.00    +0.000 A 
ATOM     32  C   UNL     1     -15.646  52.382 -25.194  0.00  0.00    +0.000 C 
ATOM     33  C   UNL     1     -15.397  54.412 -22.016  0.00  0.00    +0.000 A 
ATOM     34  C   UNL     1     -16.004  55.605 -22.394  0.00  0.00    +0.000 A 
ATOM     35  C   UNL     1     -16.475  55.787 -23.698  0.00  0.00    +0.000 A 
ATOM     36 CL   UNL     1     -17.441  57.199 -23.945  0.00  0.00    +0.000 Cl
ENDBRANCH  27  29
ENDBRANCH   5  25
TORSDOF 5
ENDMDL
MODEL 2
REMARK VINA RESULT:      -6.7     17.647     20.075
REMARK  Name = Dasatinib.pdbqt.pdb
REMARK  5 active torsions:
REMARK  status: ('A' for Active; 'I' for Inactive)
REMARK    1  A    between atoms: N_1  and  C_3
REMARK    2  A    between atoms: N_13  and  C_16
REMARK    3  A    between atoms: C_17  and  O_18
REMARK    4  A    between atoms: C_22  and  C_25
REMARK    5  A    between atoms: N_27  and  C_29
REMARK                            x       y       z     vdW  Elec       q    Type
REMARK                         _______ _______ _______ _____ _____    ______ ____
ROOT
ATOM      1  N   UNL     1     -34.333  49.799 -20.096  0.00  0.00    +0.000 N 
ATOM      2  H   UNL     1     -33.517  50.368 -19.904  0.00  0.00    +0.000 HD
ATOM      3  C   UNL     1     -34.834  49.098 -19.053  0.00  0.00    +0.000 A 
ATOM      4  S   UNL     1     -33.978  49.107 -17.551  0.00  0.00    +0.000 S 
ATOM      5  C   UNL     1     -35.156  48.071 -16.862  0.00  0.00    +0.000 A 
ATOM      6  C   UNL     1     -36.101  47.786 -17.818  0.00  0.00    +0.000 A 
ATOM      7  N   UNL     1     -35.907  48.339 -19.058  0.00  0.00    +0.000 NA
ENDROOT
BRANCH   1   8
ATOM      8  C   UNL     1     -35.100  50.285 -21.177  0.00  0.00    +0.000 A 
ATOM      9  N   UNL     1     -35.973  51.288 -21.025  0.00  0.00    +0.000 NA
ATOM     10  C   UNL     1     -36.694  51.639 -22.095  0.00  0.00    +0.000 A 
ATOM     11  N   UNL     1     -36.604  51.084 -23.309  0.00  0.00    +0.000 NA
ATOM     12  C   UNL     1     -37.660  52.777 -21.936  0.00  0.00    +0.000 C 
ATOM     13  C   UNL     1     -35.715  50.087 -23.460  0.00  0.00    +0.000 A 
ATOM     14  C   UNL     1     -34.944  49.648 -22.395  0.00  0.00    +0.000 A 
ATOM     15  N   UNL     1     -35.595  49.421 -24.709  0.00  0.00    +0.000 N 
ATOM     16  C   UNL     1     -34.251  48.930 -25.118  0.00  0.00    +0.000 C 
ATOM     17  C   UNL     1     -33.519  49.160 -26.467  0.00  0.00    +0.000 C 
ATOM     18  N   UNL     1     -33.889  49.898 -27.707  0.00  0.00    +0.000 N 
ATOM     19  C   UNL     1     -35.228  50.357 -27.242  0.00  0.00    +0.000 C 
ATOM     20  C   UNL     1     -36.019  50.168 -25.921  0.00  0.00    +0.000 C 
BRANCH  18  21
ATOM     21  C   UNL     1     -34.125  48.895 -28.736  0.00  0.00    +0.000 C 
ATOM     22  C   UNL     1     -34.374  47.836 -29.819  0.00  0.00    +0.000 C 
BRANCH  22  23
ATOM     23  O   UNL     1     -34.590  46.919 -30.754  0.00  0.00    +0.000 OA
ATOM     24  H   UNL     1     -33.746  46.594 -31.111  0.00  0.00    +0.000 HD
ENDBRANCH  22  23
ENDBRANCH  18  21
ENDBRANCH   1   8
BRANCH   5  25
ATOM     25  C   UNL     1     -35.067  47.649 -15.483  0.00  0.00    +0.000 C 
ATOM     26  O   UNL     1     -35.117  48.430 -14.536  0.00  0.00    +0.000 OA
ATOM     27  N   UNL     1     -34.836  46.289 -15.314  0.00  0.00    +0.000 N 
ATOM     28  H   UNL     1     -34.298  45.839 -16.054  0.00  0.00    +0.000 HD
BRANCH  27  29
ATOM     29  C   UNL     1     -34.728  45.652 -14.040  0.00  0.00    +0.000 A 
ATOM     30  C   UNL     1     -33.519  44.994 -13.732  0.00  0.00    +0.000 A 
ATOM     31  C   UNL     1     -33.320  44.376 -12.499  0.00  0.00    +0.000 A 
ATOM     32  C   UNL     1     -32.385  44.957 -14.737  0.00  0.00    +0.000 C 
ATOM     33  C   UNL     1     -34.335  44.384 -11.551  0.00  0.00    +0.000 A 
ATOM     34  C   UNL     1     -35.559  44.968 -11.859  0.00  0.00    +0.000 A 
ATOM     35  C   UNL     1     -35.765  45.589 -13.094  0.00  0.00    +0.000 A 
ATOM     36 CL   UNL     1     -37.402  46.023 -13.441  0.00  0.00    +0.000 Cl
ENDBRANCH  27  29
ENDBRANCH   5  25
TORSDOF 5
ENDMDL
MODEL 3
REMARK VINA RESULT:      -6.6     20.322     23.828
REMARK  Name = Dasatinib.pdbqt.pdb
REMARK  5 active torsions:
REMARK  status: ('A' for Active; 'I' for Inactive)
REMARK    1  A    between atoms: N_1  and  C_3
REMARK    2  A    between atoms: N_13  and  C_16
REMARK    3  A    between atoms: C_17  and  O_18
REMARK    4  A    between atoms: C_22  and  C_25
REMARK    5  A    between atoms: N_27  and  C_29
REMARK                            x       y       z     vdW  Elec       q    Type
REMARK                         _______ _______ _______ _____ _____    ______ ____
ROOT
ATOM      1  N   UNL     1     -37.755  51.115 -18.638  0.00  0.00    +0.000 N 
ATOM      2  H   UNL     1     -38.093  50.597 -19.440  0.00  0.00    +0.000 HD
ATOM      3  C   UNL     1     -38.314  52.330 -18.432  0.00  0.00    +0.000 A 
ATOM      4  S   UNL     1     -39.422  52.951 -19.607  0.00  0.00    +0.000 S 
ATOM      5  C   UNL     1     -39.614  54.381 -18.682  0.00  0.00    +0.000 A 
ATOM      6  C   UNL     1     -38.822  54.290 -17.563  0.00  0.00    +0.000 A 
ATOM      7  N   UNL     1     -38.069  53.150 -17.435  0.00  0.00    +0.000 NA
ENDROOT
BRANCH   1   8
ATOM      8  C   UNL     1     -37.250  50.282 -17.616  0.00  0.00    +0.000 A 
ATOM      9  N   UNL     1     -37.870  50.163 -16.436  0.00  0.00    +0.000 NA
ATOM     10  C   UNL     1     -37.283  49.395 -15.512  0.00  0.00    +0.000 A 
ATOM     11  N   UNL     1     -36.138  48.721 -15.674  0.00  0.00    +0.000 NA
ATOM     12  C   UNL     1     -37.983  49.241 -14.193  0.00  0.00    +0.000 C 
ATOM     13  C   UNL     1     -35.528  48.833 -16.866  0.00  0.00    +0.000 A 
ATOM     14  C   UNL     1     -36.059  49.627 -17.871  0.00  0.00    +0.000 A 
ATOM     15  N   UNL     1     -34.288  48.181 -17.097  0.00  0.00    +0.000 N 
ATOM     16  C   UNL     1     -34.007  47.666 -18.464  0.00  0.00    +0.000 C 
ATOM     17  C   UNL     1     -33.521  46.250 -18.873  0.00  0.00    +0.000 C 
ATOM     18  N   UNL     1     -33.203  45.023 -18.088  0.00  0.00    +0.000 N 
ATOM     19  C   UNL     1     -33.497  45.596 -16.745  0.00  0.00    +0.000 C 
ATOM     20  C   UNL     1     -33.981  46.989 -16.264  0.00  0.00    +0.000 C 
BRANCH  18  21
ATOM     21  C   UNL     1     -31.760  44.843 -18.160  0.00  0.00    +0.000 C 
ATOM     22  C   UNL     1     -30.239  44.656 -18.235  0.00  0.00    +0.000 C 
BRANCH  22  23
ATOM     23  O   UNL     1     -28.923  44.495 -18.303  0.00  0.00    +0.000 OA
ATOM     24  H   UNL     1     -28.599  44.720 -19.191  0.00  0.00    +0.000 HD
ENDBRANCH  22  23
ENDBRANCH  18  21
ENDBRANCH   1   8
BRANCH   5  25
ATOM     25  C   UNL     1     -40.508  55.434 -19.109  0.00  0.00    +0.000 C 
ATOM     26  O   UNL     1     -41.467  55.241 -19.853  0.00  0.00    +0.000 OA
ATOM     27  N   UNL     1     -40.146  56.703 -18.676  0.00  0.00    +0.000 N 
ATOM     28  H   UNL     1     -39.146  56.858 -18.555  0.00  0.00    +0.000 HD
BRANCH  27  29
ATOM     29  C   UNL     1     -40.891  57.886 -18.967  0.00  0.00    +0.000 A 
ATOM     30  C   UNL     1     -40.422  58.724 -20.000  0.00  0.00    +0.000 A 
ATOM     31  C   UNL     1     -41.109  59.879 -20.368  0.00  0.00    +0.000 A 
ATOM     32  C   UNL     1     -39.157  58.377 -20.758  0.00  0.00    +0.000 C 
ATOM     33  C   UNL     1     -42.272  60.236 -19.697  0.00  0.00    +0.000 A 
ATOM     34  C   UNL     1     -42.714  59.461 -18.630  0.00  0.00    +0.000 A 
ATOM     35  C   UNL     1     -42.030  58.300 -18.256  0.00  0.00    +0.000 A 
ATOM     36 CL   UNL     1     -42.530  57.597 -16.758  0.00  0.00    +0.000 Cl
ENDBRANCH  27  29
ENDBRANCH   5  25
TORSDOF 5
ENDMDL
MODEL 4
REMARK VINA RESULT:      -6.6     22.363     24.185
REMARK  Name = Dasatinib.pdbqt.pdb
REMARK  5 active torsions:
REMARK  status: ('A' for Active; 'I' for Inactive)
REMARK    1  A    between atoms: N_1  and  C_3
REMARK    2  A    between atoms: N_13  and  C_16
REMARK    3  A    between atoms: C_17  and  O_18
REMARK    4  A    between atoms: C_22  and  C_25
REMARK    5  A    between atoms: N_27  and  C_29
REMARK                            x       y       z     vdW  Elec       q    Type
REMARK                         _______ _______ _______ _____ _____    ______ ____
ROOT
ATOM      1  N   UNL     1     -32.067  44.939 -14.234  0.00  0.00    +0.000 N 
ATOM      2  H   UNL     1     -31.463  45.591 -13.747  0.00  0.00    +0.000 HD
ATOM      3  C   UNL     1     -33.098  44.431 -13.520  0.00  0.00    +0.000 A 
ATOM      4  S   UNL     1     -33.213  44.803 -11.835  0.00  0.00    +0.000 S 
ATOM      5  C   UNL     1     -34.630  43.847 -11.712  0.00  0.00    +0.000 A 
ATOM      6  C   UNL     1     -34.905  43.310 -12.946  0.00  0.00    +0.000 A 
ATOM      7  N   UNL     1     -34.029  43.613 -13.957  0.00  0.00    +0.000 NA
ENDROOT
BRANCH   1   8
ATOM      8  C   UNL     1     -32.083  45.142 -15.631  0.00  0.00    +0.000 A 
ATOM      9  N   UNL     1     -31.372  44.371 -16.462  0.00  0.00    +0.000 NA
ATOM     10  C   UNL     1     -31.407  44.678 -17.763  0.00  0.00    +0.000 A 
ATOM     11  N   UNL     1     -32.108  45.680 -18.306  0.00  0.00    +0.000 NA
ATOM     12  C   UNL     1     -30.627  43.805 -18.702  0.00  0.00    +0.000 C 
ATOM     13  C   UNL     1     -32.833  46.442 -17.469  0.00  0.00    +0.000 A 
ATOM     14  C   UNL     1     -32.833  46.204 -16.103  0.00  0.00    +0.000 A 
ATOM     15  N   UNL     1     -33.569  47.550 -17.967  0.00  0.00    +0.000 N 
ATOM     16  C   UNL     1     -34.859  47.891 -17.311  0.00  0.00    +0.000 C 
ATOM     17  C   UNL     1     -36.238  48.137 -17.981  0.00  0.00    +0.000 C 
ATOM     18  N   UNL     1     -36.694  48.109 -19.399  0.00  0.00    +0.000 N 
ATOM     19  C   UNL     1     -35.373  47.770 -19.999  0.00  0.00    +0.000 C 
ATOM     20  C   UNL     1     -33.966  47.512 -19.399  0.00  0.00    +0.000 C 
BRANCH  18  21
ATOM     21  C   UNL     1     -36.981  49.487 -19.772  0.00  0.00    +0.000 C 
ATOM     22  C   UNL     1     -37.284  50.939 -20.164  0.00  0.00    +0.000 C 
BRANCH  22  23
ATOM     23  O   UNL     1     -37.547  52.197 -20.500  0.00  0.00    +0.000 OA
ATOM     24  H   UNL     1     -37.249  52.804 -19.802  0.00  0.00    +0.000 HD
ENDBRANCH  22  23
ENDBRANCH  18  21
ENDBRANCH   1   8
BRANCH   5  25
ATOM     25  C   UNL     1     -35.340  43.720 -10.459  0.00  0.00    +0.000 C 
ATOM     26  O   UNL     1     -36.389  43.091 -10.342  0.00  0.00    +0.000 OA
ATOM     27  N   UNL     1     -34.782  44.439  -9.409  0.00  0.00    +0.000 N 
ATOM     28  H   UNL     1     -34.296  45.296  -9.672  0.00  0.00    +0.000 HD
BRANCH  27  29
ATOM     29  C   UNL     1     -35.308  44.446  -8.081  0.00  0.00    +0.000 A 
ATOM     30  C   UNL     1     -35.967  45.613  -7.639  0.00  0.00    +0.000 A 
ATOM     31  C   UNL     1     -36.537  45.689  -6.370  0.00  0.00    +0.000 A 
ATOM     32  C   UNL     1     -36.090  46.818  -8.549  0.00  0.00    +0.000 C 
ATOM     33  C   UNL     1     -36.444  44.608  -5.504  0.00  0.00    +0.000 A 
ATOM     34  C   UNL     1     -35.740  43.474  -5.894  0.00  0.00    +0.000 A 
ATOM     35  C   UNL     1     -35.166  43.390  -7.166  0.00  0.00    +0.000 A 
ATOM     36 CL   UNL     1     -34.100  42.051  -7.410  0.00  0.00    +0.000 Cl
ENDBRANCH  27  29
ENDBRANCH   5  25
TORSDOF 5
ENDMDL
MODEL 5
REMARK VINA RESULT:      -6.6     22.837     24.782
REMARK  Name = Dasatinib.pdbqt.pdb
REMARK  5 active torsions:
REMARK  status: ('A' for Active; 'I' for Inactive)
REMARK    1  A    between atoms: N_1  and  C_3
REMARK    2  A    between atoms: N_13  and  C_16
REMARK    3  A    between atoms: C_17  and  O_18
REMARK    4  A    between atoms: C_22  and  C_25
REMARK    5  A    between atoms: N_27  and  C_29
REMARK                            x       y       z     vdW  Elec       q    Type
REMARK                         _______ _______ _______ _____ _____    ______ ____
ROOT
ATOM      1  N   UNL     1     -35.578  44.222 -13.645  0.00  0.00    +0.000 N 
ATOM      2  H   UNL     1     -36.188  43.414 -13.626  0.00  0.00    +0.000 HD
ATOM      3  C   UNL     1     -34.748  44.370 -12.586  0.00  0.00    +0.000 A 
ATOM      4  S   UNL     1     -34.896  43.282 -11.249  0.00  0.00    +0.000 S 
ATOM      5  C   UNL     1     -33.629  44.098 -10.434  0.00  0.00    +0.000 A 
ATOM      6  C   UNL     1     -33.196  45.136 -11.224  0.00  0.00    +0.000 A 
ATOM      7  N   UNL     1     -33.843  45.308 -12.421  0.00  0.00    +0.000 NA
ENDROOT
BRANCH   1   8
ATOM      8  C   UNL     1     -35.294  44.668 -14.954  0.00  0.00    +0.000 A 
ATOM      9  N   UNL     1     -35.985  45.663 -15.523  0.00  0.00    +0.000 NA
ATOM     10  C   UNL     1     -35.679  45.975 -16.787  0.00  0.00    +0.000 A 
ATOM     11  N   UNL     1     -34.728  45.388 -17.524  0.00  0.00    +0.000 NA
ATOM     12  C   UNL     1     -36.436  47.103 -17.425  0.00  0.00    +0.000 C 
ATOM     13  C   UNL     1     -34.027  44.400 -16.941  0.00  0.00    +0.000 A 
ATOM     14  C   UNL     1     -34.297  44.001 -15.641  0.00  0.00    +0.000 A 
ATOM     15  N   UNL     1     -33.031  43.703 -17.676  0.00  0.00    +0.000 N 
ATOM     16  C   UNL     1     -31.828  43.221 -16.947  0.00  0.00    +0.000 C 
ATOM     17  C   UNL     1     -30.335  43.424 -17.323  0.00  0.00    +0.000 C 
ATOM     18  N   UNL     1     -29.663  44.124 -18.454  0.00  0.00    +0.000 N 
ATOM     19  C   UNL     1     -30.905  44.576 -19.141  0.00  0.00    +0.000 C 
ATOM     20  C   UNL     1     -32.415  44.412 -18.828  0.00  0.00    +0.000 C 
BRANCH  18  21
ATOM     21  C   UNL     1     -29.073  43.090 -19.294  0.00  0.00    +0.000 C 
ATOM     22  C   UNL     1     -28.453  42.002 -20.180  0.00  0.00    +0.000 C 
BRANCH  22  23
ATOM     23  O   UNL     1     -27.918  41.061 -20.948  0.00  0.00    +0.000 OA
ATOM     24  H   UNL     1     -26.995  40.897 -20.691  0.00  0.00    +0.000 HD
ENDBRANCH  22  23
ENDBRANCH  18  21
ENDBRANCH   1   8
BRANCH   5  25
ATOM     25  C   UNL     1     -33.169  43.659  -9.136  0.00  0.00    +0.000 C 
ATOM     26  O   UNL     1     -32.151  42.991  -8.974  0.00  0.00    +0.000 OA
ATOM     27  N   UNL     1     -34.021  43.984  -8.087  0.00  0.00    +0.000 N 
ATOM     28  H   UNL     1     -35.011  44.032  -8.323  0.00  0.00    +0.000 HD
BRANCH  27  29
ATOM     29  C   UNL     1     -33.758  43.662  -6.720  0.00  0.00    +0.000 A 
ATOM     30  C   UNL     1     -33.071  44.615  -5.939  0.00  0.00    +0.000 A 
ATOM     31  C   UNL     1     -32.805  44.393  -4.589  0.00  0.00    +0.000 A 
ATOM     32  C   UNL     1     -32.617  45.926  -6.548  0.00  0.00    +0.000 C 
ATOM     33  C   UNL     1     -33.201  43.203  -3.993  0.00  0.00    +0.000 A 
ATOM     34  C   UNL     1     -33.818  42.222  -4.762  0.00  0.00    +0.000 A 
ATOM     35  C   UNL     1     -34.089  42.438  -6.116  0.00  0.00    +0.000 A 
ATOM     36 CL   UNL     1     -34.603  41.044  -7.000  0.00  0.00    +0.000 Cl
ENDBRANCH  27  29
ENDBRANCH   5  25
TORSDOF 5
ENDMDL
MODEL 6
REMARK VINA RESULT:      -6.6     22.249     24.130
REMARK  Name = Dasatinib.pdbqt.pdb
REMARK  5 active torsions:
REMARK  status: ('A' for Active; 'I' for Inactive)
REMARK    1  A    between atoms: N_1  and  C_3
REMARK    2  A    between atoms: N_13  and  C_16
REMARK    3  A    between atoms: C_17  and  O_18
REMARK    4  A    between atoms: C_22  and  C_25
REMARK    5  A    between atoms: N_27  and  C_29
REMARK                            x       y       z     vdW  Elec       q    Type
REMARK                         _______ _______ _______ _____ _____    ______ ____
ROOT
ATOM      1  N   UNL     1     -34.576  46.670 -13.815  0.00  0.00    +0.000 N 
ATOM      2  H   UNL     1     -35.529  47.010 -13.852  0.00  0.00    +0.000 HD
ATOM      3  C   UNL     1     -34.247  45.924 -12.735  0.00  0.00    +0.000 A 
ATOM      4  S   UNL     1     -35.403  45.742 -11.461  0.00  0.00    +0.000 S 
ATOM      5  C   UNL     1     -34.294  44.779 -10.580  0.00  0.00    +0.000 A 
ATOM      6  C   UNL     1     -33.131  44.675 -11.304  0.00  0.00    +0.000 A 
ATOM      7  N   UNL     1     -33.092  45.341 -12.503  0.00  0.00    +0.000 NA
ENDROOT
BRANCH   1   8
ATOM      8  C   UNL     1     -33.991  46.530 -15.093  0.00  0.00    +0.000 A 
ATOM      9  N   UNL     1     -33.033  45.627 -15.332  0.00  0.00    +0.000 NA
ATOM     10  C   UNL     1     -32.502  45.609 -16.560  0.00  0.00    +0.000 A 
ATOM     11  N   UNL     1     -32.861  46.406 -17.573  0.00  0.00    +0.000 NA
ATOM     12  C   UNL     1     -31.440  44.587 -16.840  0.00  0.00    +0.000 C 
ATOM     13  C   UNL     1     -33.835  47.300 -17.331  0.00  0.00    +0.000 A 
ATOM     14  C   UNL     1     -34.422  47.398 -16.079  0.00  0.00    +0.000 A 
ATOM     15  N   UNL     1     -34.239  48.208 -18.346  0.00  0.00    +0.000 N 
ATOM     16  C   UNL     1     -35.669  48.616 -18.397  0.00  0.00    +0.000 C 
ATOM     17  C   UNL     1     -36.623  48.607 -19.622  0.00  0.00    +0.000 C 
ATOM     18  N   UNL     1     -36.438  48.212 -21.046  0.00  0.00    +0.000 N 
ATOM     19  C   UNL     1     -35.005  47.821 -20.933  0.00  0.00    +0.000 C 
ATOM     20  C   UNL     1     -33.996  47.803 -19.755  0.00  0.00    +0.000 C 
BRANCH  18  21
ATOM     21  C   UNL     1     -36.477  49.439 -21.829  0.00  0.00    +0.000 C 
ATOM     22  C   UNL     1     -36.520  50.732 -22.654  0.00  0.00    +0.000 C 
BRANCH  22  23
ATOM     23  O   UNL     1     -36.560  51.851 -23.368  0.00  0.00    +0.000 OA
ATOM     24  H   UNL     1     -35.703  52.009 -23.798  0.00  0.00    +0.000 HD
ENDBRANCH  22  23
ENDBRANCH  18  21
ENDBRANCH   1   8
BRANCH   5  25
ATOM     25  C   UNL     1     -34.649  44.212  -9.298  0.00  0.00    +0.000 C 
ATOM     26  O   UNL     1     -35.810  44.025  -8.944  0.00  0.00    +0.000 OA
ATOM     27  N   UNL     1     -33.567  43.969  -8.460  0.00  0.00    +0.000 N 
ATOM     28  H   UNL     1     -32.774  44.599  -8.573  0.00  0.00    +0.000 HD
BRANCH  27  29
ATOM     29  C   UNL     1     -33.683  43.399  -7.156  0.00  0.00    +0.000 A 
ATOM     30  C   UNL     1     -33.291  44.187  -6.054  0.00  0.00    +0.000 A 
ATOM     31  C   UNL     1     -33.403  43.717  -4.747  0.00  0.00    +0.000 A 
ATOM     32  C   UNL     1     -32.750  45.587  -6.263  0.00  0.00    +0.000 C 
ATOM     33  C   UNL     1     -33.891  42.438  -4.512  0.00  0.00    +0.000 A 
ATOM     34  C   UNL     1     -34.219  41.620  -5.587  0.00  0.00    +0.000 A 
ATOM     35  C   UNL     1     -34.109  42.084  -6.901  0.00  0.00    +0.000 A 
ATOM     36 CL   UNL     1     -34.285  40.881  -8.129  0.00  0.00    +0.000 Cl
ENDBRANCH  27  29
ENDBRANCH   5  25
TORSDOF 5
ENDMDL
MODEL 7
REMARK VINA RESULT:      -6.6     17.166     21.467
REMARK  Name = Dasatinib.pdbqt.pdb
REMARK  5 active torsions:
REMARK  status: ('A' for Active; 'I' for Inactive)
REMARK    1  A    between atoms: N_1  and  C_3
REMARK    2  A    between atoms: N_13  and  C_16
REMARK    3  A    between atoms: C_17  and  O_18
REMARK    4  A    between atoms: C_22  and  C_25
REMARK    5  A    between atoms: N_27  and  C_29
REMARK                            x       y       z     vdW  Elec       q    Type
REMARK                         _______ _______ _______ _____ _____    ______ ____
ROOT
ATOM      1  N   UNL     1     -34.701  49.754 -19.629  0.00  0.00    +0.000 N 
ATOM      2  H   UNL     1     -33.828  50.235 -19.809  0.00  0.00    +0.000 HD
ATOM      3  C   UNL     1     -35.382  49.323 -20.716  0.00  0.00    +0.000 A 
ATOM      4  S   UNL     1     -34.804  49.750 -22.289  0.00  0.00    +0.000 S 
ATOM      5  C   UNL     1     -36.116  48.914 -23.007  0.00  0.00    +0.000 A 
ATOM      6  C   UNL     1     -36.898  48.385 -22.009  0.00  0.00    +0.000 A 
ATOM      7  N   UNL     1     -36.504  48.638 -20.720  0.00  0.00    +0.000 NA
ENDROOT
BRANCH   1   8
ATOM      8  C   UNL     1     -34.734  49.129 -18.363  0.00  0.00    +0.000 A 
ATOM      9  N   UNL     1     -35.568  49.536 -17.400  0.00  0.00    +0.000 NA
ATOM     10  C   UNL     1     -35.484  48.918 -16.216  0.00  0.00    +0.000 A 
ATOM     11  N   UNL     1     -34.650  47.915 -15.921  0.00  0.00    +0.000 NA
ATOM     12  C   UNL     1     -36.430  49.357 -15.137  0.00  0.00    +0.000 C 
ATOM     13  C   UNL     1     -33.825  47.499 -16.898  0.00  0.00    +0.000 A 
ATOM     14  C   UNL     1     -33.833  48.102 -18.147  0.00  0.00    +0.000 A 
ATOM     15  N   UNL     1     -32.882  46.468 -16.646  0.00  0.00    +0.000 N 
ATOM     16  C   UNL     1     -32.550  45.531 -17.753  0.00  0.00    +0.000 C 
ATOM     17  C   UNL     1     -32.537  43.979 -17.723  0.00  0.00    +0.000 C 
ATOM     18  N   UNL     1     -32.838  42.985 -16.654  0.00  0.00    +0.000 N 
ATOM     19  C   UNL     1     -33.156  43.972 -15.584  0.00  0.00    +0.000 C 
ATOM     20  C   UNL     1     -33.190  45.522 -15.541  0.00  0.00    +0.000 C 
BRANCH  18  21
ATOM     21  C   UNL     1     -31.570  42.367 -16.290  0.00  0.00    +0.000 C 
ATOM     22  C   UNL     1     -30.236  41.715 -15.906  0.00  0.00    +0.000 C 
BRANCH  22  23
ATOM     23  O   UNL     1     -29.082  41.148 -15.575  0.00  0.00    +0.000 OA
ATOM     24  H   UNL     1     -28.974  40.302 -16.040  0.00  0.00    +0.000 HD
ENDBRANCH  22  23
ENDBRANCH  18  21
ENDBRANCH   1   8
BRANCH   5  25
ATOM     25  C   UNL     1     -36.257  48.836 -24.444  0.00  0.00    +0.000 C 
ATOM     26  O   UNL     1     -37.114  48.154 -25.000  0.00  0.00    +0.000 OA
ATOM     27  N   UNL     1     -35.287  49.534 -25.153  0.00  0.00    +0.000 N 
ATOM     28  H   UNL     1     -34.376  49.602 -24.701  0.00  0.00    +0.000 HD
BRANCH  27  29
ATOM     29  C   UNL     1     -35.242  49.606 -26.579  0.00  0.00    +0.000 A 
ATOM     30  C   UNL     1     -34.282  48.819 -27.249  0.00  0.00    +0.000 A 
ATOM     31  C   UNL     1     -34.194  48.807 -28.640  0.00  0.00    +0.000 A 
ATOM     32  C   UNL     1     -33.326  47.941 -26.468  0.00  0.00    +0.000 C 
ATOM     33  C   UNL     1     -35.050  49.600 -29.393  0.00  0.00    +0.000 A 
ATOM     34  C   UNL     1     -35.956  50.436 -28.750  0.00  0.00    +0.000 A 
ATOM     35  C   UNL     1     -36.051  50.452 -27.356  0.00  0.00    +0.000 A 
ATOM     36 CL   UNL     1     -37.016  51.724 -26.694  0.00  0.00    +0.000 Cl
ENDBRANCH  27  29
ENDBRANCH   5  25
TORSDOF 5
ENDMDL
MODEL 8
REMARK VINA RESULT:      -6.4     23.764     25.872
REMARK  Name = Dasatinib.pdbqt.pdb
REMARK  5 active torsions:
REMARK  status: ('A' for Active; 'I' for Inactive)
REMARK    1  A    between atoms: N_1  and  C_3
REMARK    2  A    between atoms: N_13  and  C_16
REMARK    3  A    between atoms: C_17  and  O_18
REMARK    4  A    between atoms: C_22  and  C_25
REMARK    5  A    between atoms: N_27  and  C_29
REMARK                            x       y       z     vdW  Elec       q    Type
REMARK                         _______ _______ _______ _____ _____    ______ ____
ROOT
ATOM      1  N   UNL     1     -36.928  46.891 -11.812  0.00  0.00    +0.000 N 
ATOM      2  H   UNL     1     -37.457  47.383 -11.103  0.00  0.00    +0.000 HD
ATOM      3  C   UNL     1     -36.029  45.982 -11.366  0.00  0.00    +0.000 A 
ATOM      4  S   UNL     1     -35.753  45.846  -9.665  0.00  0.00    +0.000 S 
ATOM      5  C   UNL     1     -34.588  44.620  -9.944  0.00  0.00    +0.000 A 
ATOM      6  C   UNL     1     -34.486  44.413 -11.298  0.00  0.00    +0.000 A 
ATOM      7  N   UNL     1     -35.274  45.197 -12.101  0.00  0.00    +0.000 NA
ENDROOT
BRANCH   1   8
ATOM      8  C   UNL     1     -37.608  46.805 -13.046  0.00  0.00    +0.000 A 
ATOM      9  N   UNL     1     -38.866  46.356 -13.126  0.00  0.00    +0.000 NA
ATOM     10  C   UNL     1     -39.405  46.258 -14.346  0.00  0.00    +0.000 A 
ATOM     11  N   UNL     1     -38.798  46.589 -15.492  0.00  0.00    +0.000 NA
ATOM     12  C   UNL     1     -40.822  45.773 -14.441  0.00  0.00    +0.000 C 
ATOM     13  C   UNL     1     -37.540  47.054 -15.405  0.00  0.00    +0.000 A 
ATOM     14  C   UNL     1     -36.901  47.165 -14.179  0.00  0.00    +0.000 A 
ATOM     15  N   UNL     1     -36.818  47.385 -16.582  0.00  0.00    +0.000 N 
ATOM     16  C   UNL     1     -35.854  48.516 -16.522  0.00  0.00    +0.000 C 
ATOM     17  C   UNL     1     -35.737  49.727 -17.487  0.00  0.00    +0.000 C 
ATOM     18  N   UNL     1     -36.500  50.130 -18.701  0.00  0.00    +0.000 N 
ATOM     19  C   UNL     1     -37.436  48.971 -18.711  0.00  0.00    +0.000 C 
ATOM     20  C   UNL     1     -37.611  47.736 -17.789  0.00  0.00    +0.000 C 
BRANCH  18  21
ATOM     21  C   UNL     1     -35.604  49.954 -19.836  0.00  0.00    +0.000 C 
ATOM     22  C   UNL     1     -34.659  49.767 -21.030  0.00  0.00    +0.000 C 
BRANCH  22  23
ATOM     23  O   UNL     1     -33.839  49.606 -22.061  0.00  0.00    +0.000 OA
ATOM     24  H   UNL     1     -33.644  50.462 -22.477  0.00  0.00    +0.000 HD
ENDBRANCH  22  23
ENDBRANCH  18  21
ENDBRANCH   1   8
BRANCH   5  25
ATOM     25  C   UNL     1     -33.903  43.974  -8.846  0.00  0.00    +0.000 C 
ATOM     26  O   UNL     1     -32.978  43.182  -9.004  0.00  0.00    +0.000 OA
ATOM     27  N   UNL     1     -34.434  44.259  -7.594  0.00  0.00    +0.000 N 
ATOM     28  H   UNL     1     -35.435  44.446  -7.573  0.00  0.00    +0.000 HD
BRANCH  27  29
ATOM     29  C   UNL     1     -33.907  43.742  -6.371  0.00  0.00    +0.000 A 
ATOM     30  C   UNL     1     -33.013  44.555  -5.643  0.00  0.00    +0.000 A 
ATOM     31  C   UNL     1     -32.480  44.140  -4.424  0.00  0.00    +0.000 A 
ATOM     32  C   UNL     1     -32.621  45.924  -6.162  0.00  0.00    +0.000 C 
ATOM     33  C   UNL     1     -32.812  42.891  -3.914  0.00  0.00    +0.000 A 
ATOM     34  C   UNL     1     -33.636  42.046  -4.649  0.00  0.00    +0.000 A 
ATOM     35  C   UNL     1     -34.175  42.457  -5.872  0.00  0.00    +0.000 A 
ATOM     36 CL   UNL     1     -34.949  41.216  -6.794  0.00  0.00    +0.000 Cl
ENDBRANCH  27  29
ENDBRANCH   5  25
TORSDOF 5
ENDMDL
MODEL 9
REMARK VINA RESULT:      -6.3      2.091      2.815
REMARK  Name = Dasatinib.pdbqt.pdb
REMARK  5 active torsions:
REMARK  status: ('A' for Active; 'I' for Inactive)
REMARK    1  A    between atoms: N_1  and  C_3
REMARK    2  A    between atoms: N_13  and  C_16
REMARK    3  A    between atoms: C_17  and  O_18
REMARK    4  A    between atoms: C_22  and  C_25
REMARK    5  A    between atoms: N_27  and  C_29
REMARK                            x       y       z     vdW  Elec       q    Type
REMARK                         _______ _______ _______ _____ _____    ______ ____
ROOT
ATOM      1  N   UNL     1     -18.580  54.580 -29.679  0.00  0.00    +0.000 N 
ATOM      2  H   UNL     1     -18.337  53.600 -29.598  0.00  0.00    +0.000 HD
ATOM      3  C   UNL     1     -18.106  55.395 -28.708  0.00  0.00    +0.000 A 
ATOM      4  S   UNL     1     -17.273  54.698 -27.362  0.00  0.00    +0.000 S 
ATOM      5  C   UNL     1     -17.057  56.254 -26.679  0.00  0.00    +0.000 A 
ATOM      6  C   UNL     1     -17.638  57.183 -27.509  0.00  0.00    +0.000 A 
ATOM      7  N   UNL     1     -18.253  56.699 -28.636  0.00  0.00    +0.000 NA
ENDROOT
BRANCH   1   8
ATOM      8  C   UNL     1     -18.828  54.979 -31.010  0.00  0.00    +0.000 A 
ATOM      9  N   UNL     1     -17.856  55.465 -31.791  0.00  0.00    +0.000 NA
ATOM     10  C   UNL     1     -18.202  55.869 -33.018  0.00  0.00    +0.000 A 
ATOM     11  N   UNL     1     -19.434  55.811 -33.537  0.00  0.00    +0.000 NA
ATOM     12  C   UNL     1     -17.113  56.397 -33.906  0.00  0.00    +0.000 C 
ATOM     13  C   UNL     1     -20.403  55.308 -32.753  0.00  0.00    +0.000 A 
ATOM     14  C   UNL     1     -20.132  54.887 -31.460  0.00  0.00    +0.000 A 
ATOM     15  N   UNL     1     -21.743  55.255 -33.220  0.00  0.00    +0.000 N 
ATOM     16  C   UNL     1     -22.598  54.119 -32.780  0.00  0.00    +0.000 C 
ATOM     17  C   UNL     1     -23.464  53.177 -33.659  0.00  0.00    +0.000 C 
ATOM     18  N   UNL     1     -23.704  53.099 -35.127  0.00  0.00    +0.000 N 
ATOM     19  C   UNL     1     -22.835  54.248 -35.506  0.00  0.00    +0.000 C 
ATOM     20  C   UNL     1     -21.949  55.227 -34.692  0.00  0.00    +0.000 C 
BRANCH  18  21
ATOM     21  C   UNL     1     -25.079  53.523 -35.349  0.00  0.00    +0.000 C 
ATOM     22  C   UNL     1     -26.528  53.970 -35.580  0.00  0.00    +0.000 C 
BRANCH  22  23
ATOM     23  O   UNL     1     -27.783  54.356 -35.779  0.00  0.00    +0.000 OA
ATOM     24  H   UNL     1     -27.832  54.985 -36.518  0.00  0.00    +0.000 HD
ENDBRANCH  22  23
ENDBRANCH  18  21
ENDBRANCH   1   8
BRANCH   5  25
ATOM     25  C   UNL     1     -16.347  56.432 -25.432  0.00  0.00    +0.000 C 
ATOM     26  O   UNL     1     -15.121  56.419 -25.349  0.00  0.00    +0.000 OA
ATOM     27  N   UNL     1     -17.167  56.537 -24.316  0.00  0.00    +0.000 N 
ATOM     28  H   UNL     1     -18.049  56.029 -24.369  0.00  0.00    +0.000 HD
BRANCH  27  29
ATOM     29  C   UNL     1     -16.682  56.732 -22.987  0.00  0.00    +0.000 A 
ATOM     30  C   UNL     1     -16.696  58.042 -22.465  0.00  0.00    +0.000 A 
ATOM     31  C   UNL     1     -16.270  58.313 -21.166  0.00  0.00    +0.000 A 
ATOM     32  C   UNL     1     -17.198  59.199 -23.305  0.00  0.00    +0.000 C 
ATOM     33  C   UNL     1     -15.800  57.281 -20.364  0.00  0.00    +0.000 A 
ATOM     34  C   UNL     1     -15.712  55.994 -20.882  0.00  0.00    +0.000 A 
ATOM     35  C   UNL     1     -16.138  55.715 -22.184  0.00  0.00    +0.000 A 
ATOM     36 CL   UNL     1     -15.719  54.147 -22.780  0.00  0.00    +0.000 Cl
ENDBRANCH  27  29
ENDBRANCH   5  25
TORSDOF 5
ENDMDL
