REMARK  Name = Decitabine.pdbqt.pdb
REMARK  4 active torsions:
REMARK  status: ('A' for Active; 'I' for Inactive)
REMARK    1  A    between atoms: N_2  and  C1*_8
REMARK    2  A    between atoms: C4*_10  and  C5*_13
REMARK    3  A    between atoms: C3*_11  and  O3*_16
REMARK    4  A    between atoms: C5*_13  and  O5*_14
REMARK                            x       y       z     vdW  Elec       q    Type
REMARK                         _______ _______ _______ _____ _____    ______ ____
ROOT
ATOM      1  O   UNL     1      -1.401   2.319   0.381  0.00  0.00    +0.000 OA
ATOM      2  N   UNL     1      -1.036   0.046   0.136  0.00  0.00    +0.000 N 
ATOM      3  N   UNL     1      -3.203   0.940   0.098  0.00  0.00    +0.000 NA
ATOM      4  N   UNL     1      -2.850  -1.403  -0.134  0.00  0.00    +0.000 NA
ATOM      5  C   UNL     1      -1.834   1.183   0.216  0.00  0.00    +0.000 A 
ATOM      6  C   UNL     1      -1.736  -1.072  -0.033  0.00  0.00    +0.000 A 
ATOM      7  C   UNL     1      -3.652  -0.276  -0.078  0.00  0.00    +0.000 A 
ATOM      8  N   UNL     1      -4.992  -0.459  -0.193  0.00  0.00    +0.000 N 
ATOM      9  H   UNL     1      -5.314  -1.377   0.084  0.00  0.00    +0.000 HD
ATOM     10  H   UNL     1      -5.535   0.312   0.177  0.00  0.00    +0.000 HD
ENDROOT
BRANCH   2  11
ATOM     11  C1* UNL     1       0.320   0.006   0.219  0.00  0.00    +0.000 A 
ATOM     12  O4* UNL     1       1.035  -1.193   0.126  0.00  0.00    +0.000 OA
ATOM     13  C4* UNL     1       2.392  -0.867   0.244  0.00  0.00    +0.000 A 
ATOM     14  C3* UNL     1       2.523   0.557   0.419  0.00  0.00    +0.000 A 
ATOM     15  C2* UNL     1       1.218   1.079   0.386  0.00  0.00    +0.000 A 
BRANCH  14  16
ATOM     16  O3* UNL     1       3.628   1.223  -0.029  0.00  0.00    +0.000 OA
ATOM     17  H3* UNL     1       3.461   2.180  -0.083  0.00  0.00    +0.000 HD
ENDBRANCH  14  16
BRANCH  13  18
ATOM     18  C5* UNL     1       3.419  -1.806   0.026  0.00  0.00    +0.000 C 
BRANCH  18  19
ATOM     19  O5* UNL     1       4.392  -2.689  -0.180  0.00  0.00    +0.000 OA
ATOM     20  H5* UNL     1       5.236  -2.230  -0.331  0.00  0.00    +0.000 HD
ENDBRANCH  18  19
ENDBRANCH  13  18
ENDBRANCH   2  11
TORSDOF 4
