MODEL 1
REMARK VINA RESULT:      -5.4      0.000      0.000
REMARK  Name = Decitabine.pdbqt.pdb
REMARK  4 active torsions:
REMARK  status: ('A' for Active; 'I' for Inactive)
REMARK    1  A    between atoms: N_2  and  C1*_8
REMARK    2  A    between atoms: C4*_10  and  C5*_13
REMARK    3  A    between atoms: C3*_11  and  O3*_16
REMARK    4  A    between atoms: C5*_13  and  O5*_14
REMARK                            x       y       z     vdW  Elec       q    Type
REMARK                         _______ _______ _______ _____ _____    ______ ____
ROOT
ATOM      1  O   UNL     1     -35.659  42.263  -5.661  0.00  0.00    +0.000 OA
ATOM      2  N   UNL     1     -33.864  43.545  -4.957  0.00  0.00    +0.000 N 
ATOM      3  N   UNL     1     -34.948  42.066  -3.496  0.00  0.00    +0.000 NA
ATOM      4  N   UNL     1     -33.118  43.391  -2.748  0.00  0.00    +0.000 NA
ATOM      5  C   UNL     1     -34.876  42.606  -4.781  0.00  0.00    +0.000 A 
ATOM      6  C   UNL     1     -33.152  43.758  -3.854  0.00  0.00    +0.000 A 
ATOM      7  C   UNL     1     -34.107  42.440  -2.567  0.00  0.00    +0.000 A 
ATOM      8  N   UNL     1     -34.216  41.881  -1.335  0.00  0.00    +0.000 N 
ATOM      9  H   UNL     1     -33.862  42.457  -0.582  0.00  0.00    +0.000 HD
ATOM     10  H   UNL     1     -35.123  41.464  -1.163  0.00  0.00    +0.000 HD
ENDROOT
BRANCH   2  11
ATOM     11  C1* UNL     1     -33.578  44.215  -6.104  0.00  0.00    +0.000 A 
ATOM     12  O4* UNL     1     -33.084  45.524  -6.096  0.00  0.00    +0.000 OA
ATOM     13  C4* UNL     1     -32.898  45.896  -7.434  0.00  0.00    +0.000 A 
ATOM     14  C3* UNL     1     -33.287  44.803  -8.288  0.00  0.00    +0.000 A 
ATOM     15  C2* UNL     1     -33.694  43.763  -7.434  0.00  0.00    +0.000 A 
BRANCH  14  16
ATOM     16  O3* UNL     1     -32.693  44.612  -9.502  0.00  0.00    +0.000 OA
ATOM     17  H3* UNL     1     -33.099  43.866  -9.976  0.00  0.00    +0.000 HD
ENDBRANCH  14  16
BRANCH  13  18
ATOM     18  C5* UNL     1     -32.251  47.091  -7.805  0.00  0.00    +0.000 C 
BRANCH  18  19
ATOM     19  O5* UNL     1     -31.640  48.218  -8.160  0.00  0.00    +0.000 OA
ATOM     20  H5* UNL     1     -30.855  48.365  -7.605  0.00  0.00    +0.000 HD
ENDBRANCH  18  19
ENDBRANCH  13  18
ENDBRANCH   2  11
TORSDOF 4
ENDMDL
MODEL 2
REMARK VINA RESULT:      -5.1      1.066      2.019
REMARK  Name = Decitabine.pdbqt.pdb
REMARK  4 active torsions:
REMARK  status: ('A' for Active; 'I' for Inactive)
REMARK    1  A    between atoms: N_2  and  C1*_8
REMARK    2  A    between atoms: C4*_10  and  C5*_13
REMARK    3  A    between atoms: C3*_11  and  O3*_16
REMARK    4  A    between atoms: C5*_13  and  O5*_14
REMARK                            x       y       z     vdW  Elec       q    Type
REMARK                         _______ _______ _______ _____ _____    ______ ____
ROOT
ATOM      1  O   UNL     1     -35.800  42.237  -5.555  0.00  0.00    +0.000 OA
ATOM      2  N   UNL     1     -33.878  43.243  -4.746  0.00  0.00    +0.000 N 
ATOM      3  N   UNL     1     -35.237  41.928  -3.361  0.00  0.00    +0.000 NA
ATOM      4  N   UNL     1     -33.277  42.972  -2.504  0.00  0.00    +0.000 NA
ATOM      5  C   UNL     1     -35.022  42.459  -4.633  0.00  0.00    +0.000 A 
ATOM      6  C   UNL     1     -33.201  43.346  -3.606  0.00  0.00    +0.000 A 
ATOM      7  C   UNL     1     -34.400  42.171  -2.385  0.00  0.00    +0.000 A 
ATOM      8  N   UNL     1     -34.651  41.626  -1.168  0.00  0.00    +0.000 N 
ATOM      9  H   UNL     1     -34.258  42.140  -0.391  0.00  0.00    +0.000 HD
ATOM     10  H   UNL     1     -35.616  41.343  -1.047  0.00  0.00    +0.000 HD
ENDROOT
BRANCH   2  11
ATOM     11  C1* UNL     1     -33.441  43.873  -5.868  0.00  0.00    +0.000 A 
ATOM     12  O4* UNL     1     -33.493  43.267  -7.128  0.00  0.00    +0.000 OA
ATOM     13  C4* UNL     1     -32.974  44.191  -8.045  0.00  0.00    +0.000 A 
ATOM     14  C3* UNL     1     -32.588  45.388  -7.343  0.00  0.00    +0.000 A 
ATOM     15  C2* UNL     1     -32.902  45.169  -5.990  0.00  0.00    +0.000 A 
BRANCH  14  16
ATOM     16  O3* UNL     1     -32.633  46.608  -7.954  0.00  0.00    +0.000 OA
ATOM     17  H3* UNL     1     -31.799  47.093  -7.830  0.00  0.00    +0.000 HD
ENDBRANCH  14  16
BRANCH  13  18
ATOM     18  C5* UNL     1     -33.028  43.988  -9.437  0.00  0.00    +0.000 C 
BRANCH  18  19
ATOM     19  O5* UNL     1     -33.082  43.793 -10.752  0.00  0.00    +0.000 OA
ATOM     20  H5* UNL     1     -32.269  44.121 -11.174  0.00  0.00    +0.000 HD
ENDBRANCH  18  19
ENDBRANCH  13  18
ENDBRANCH   2  11
TORSDOF 4
ENDMDL
MODEL 3
REMARK VINA RESULT:      -4.9     14.823     16.698
REMARK  Name = Decitabine.pdbqt.pdb
REMARK  4 active torsions:
REMARK  status: ('A' for Active; 'I' for Inactive)
REMARK    1  A    between atoms: N_2  and  C1*_8
REMARK    2  A    between atoms: C4*_10  and  C5*_13
REMARK    3  A    between atoms: C3*_11  and  O3*_16
REMARK    4  A    between atoms: C5*_13  and  O5*_14
REMARK                            x       y       z     vdW  Elec       q    Type
REMARK                         _______ _______ _______ _____ _____    ______ ____
ROOT
ATOM      1  O   UNL     1     -29.045  53.304   6.447  0.00  0.00    +0.000 OA
ATOM      2  N   UNL     1     -30.111  51.304   6.916  0.00  0.00    +0.000 N 
ATOM      3  N   UNL     1     -29.824  52.040   4.709  0.00  0.00    +0.000 NA
ATOM      4  N   UNL     1     -30.943  49.990   5.171  0.00  0.00    +0.000 NA
ATOM      5  C   UNL     1     -29.617  52.288   6.066  0.00  0.00    +0.000 A 
ATOM      6  C   UNL     1     -30.702  50.303   6.268  0.00  0.00    +0.000 A 
ATOM      7  C   UNL     1     -30.435  50.952   4.315  0.00  0.00    +0.000 A 
ATOM      8  N   UNL     1     -30.607  50.754   2.983  0.00  0.00    +0.000 N 
ATOM      9  H   UNL     1     -31.398  50.170   2.746  0.00  0.00    +0.000 HD
ATOM     10  H   UNL     1     -30.527  51.604   2.438  0.00  0.00    +0.000 HD
ENDROOT
BRANCH   2  11
ATOM     11  C1* UNL     1     -30.040  51.301   8.273  0.00  0.00    +0.000 A 
ATOM     12  O4* UNL     1     -28.879  50.922   8.955  0.00  0.00    +0.000 OA
ATOM     13  C4* UNL     1     -29.153  51.043  10.324  0.00  0.00    +0.000 A 
ATOM     14  C3* UNL     1     -30.509  51.500  10.495  0.00  0.00    +0.000 A 
ATOM     15  C2* UNL     1     -31.035  51.666   9.202  0.00  0.00    +0.000 A 
BRANCH  14  16
ATOM     16  O3* UNL     1     -30.865  52.260  11.573  0.00  0.00    +0.000 OA
ATOM     17  H3* UNL     1     -31.416  51.751  12.192  0.00  0.00    +0.000 HD
ENDBRANCH  14  16
BRANCH  13  18
ATOM     18  C5* UNL     1     -28.158  50.908  11.311  0.00  0.00    +0.000 C 
BRANCH  18  19
ATOM     19  O5* UNL     1     -27.215  50.780  12.241  0.00  0.00    +0.000 OA
ATOM     20  H5* UNL     1     -27.522  51.154  13.084  0.00  0.00    +0.000 HD
ENDBRANCH  18  19
ENDBRANCH  13  18
ENDBRANCH   2  11
TORSDOF 4
ENDMDL
MODEL 4
REMARK VINA RESULT:      -4.9     10.340     12.762
REMARK  Name = Decitabine.pdbqt.pdb
REMARK  4 active torsions:
REMARK  status: ('A' for Active; 'I' for Inactive)
REMARK    1  A    between atoms: N_2  and  C1*_8
REMARK    2  A    between atoms: C4*_10  and  C5*_13
REMARK    3  A    between atoms: C3*_11  and  O3*_16
REMARK    4  A    between atoms: C5*_13  and  O5*_14
REMARK                            x       y       z     vdW  Elec       q    Type
REMARK                         _______ _______ _______ _____ _____    ______ ____
ROOT
ATOM      1  O   UNL     1     -33.083  44.080 -19.348  0.00  0.00    +0.000 OA
ATOM      2  N   UNL     1     -31.329  44.547 -17.910  0.00  0.00    +0.000 N 
ATOM      3  N   UNL     1     -30.941  43.796 -20.097  0.00  0.00    +0.000 NA
ATOM      4  N   UNL     1     -29.124  44.251 -18.627  0.00  0.00    +0.000 NA
ATOM      5  C   UNL     1     -31.878  44.143 -19.123  0.00  0.00    +0.000 A 
ATOM      6  C   UNL     1     -30.000  44.521 -17.905  0.00  0.00    +0.000 A 
ATOM      7  C   UNL     1     -29.660  43.868 -19.845  0.00  0.00    +0.000 A 
ATOM      8  N   UNL     1     -28.788  43.526 -20.828  0.00  0.00    +0.000 N 
ATOM      9  H   UNL     1     -27.890  43.201 -20.496  0.00  0.00    +0.000 HD
ATOM     10  H   UNL     1     -29.206  42.955 -21.553  0.00  0.00    +0.000 HD
ENDROOT
BRANCH   2  11
ATOM     11  C1* UNL     1     -32.017  44.936 -16.804  0.00  0.00    +0.000 A 
ATOM     12  O4* UNL     1     -32.040  44.167 -15.635  0.00  0.00    +0.000 OA
ATOM     13  C4* UNL     1     -32.827  44.861 -14.708  0.00  0.00    +0.000 A 
ATOM     14  C3* UNL     1     -33.307  46.078 -15.312  0.00  0.00    +0.000 A 
ATOM     15  C2* UNL     1     -32.776  46.107 -16.613  0.00  0.00    +0.000 A 
BRANCH  14  16
ATOM     16  O3* UNL     1     -33.551  47.190 -14.557  0.00  0.00    +0.000 OA
ATOM     17  H3* UNL     1     -34.496  47.261 -14.335  0.00  0.00    +0.000 HD
ENDBRANCH  14  16
BRANCH  13  18
ATOM     18  C5* UNL     1     -32.934  44.469 -13.360  0.00  0.00    +0.000 C 
BRANCH  18  19
ATOM     19  O5* UNL     1     -33.030  44.099 -12.086  0.00  0.00    +0.000 OA
ATOM     20  H5* UNL     1     -32.230  43.616 -11.815  0.00  0.00    +0.000 HD
ENDBRANCH  18  19
ENDBRANCH  13  18
ENDBRANCH   2  11
TORSDOF 4
ENDMDL
MODEL 5
REMARK VINA RESULT:      -4.8      2.922      5.779
REMARK  Name = Decitabine.pdbqt.pdb
REMARK  4 active torsions:
REMARK  status: ('A' for Active; 'I' for Inactive)
REMARK    1  A    between atoms: N_2  and  C1*_8
REMARK    2  A    between atoms: C4*_10  and  C5*_13
REMARK    3  A    between atoms: C3*_11  and  O3*_16
REMARK    4  A    between atoms: C5*_13  and  O5*_14
REMARK                            x       y       z     vdW  Elec       q    Type
REMARK                         _______ _______ _______ _____ _____    ______ ____
ROOT
ATOM      1  O   UNL     1     -35.959  45.320  -5.481  0.00  0.00    +0.000 OA
ATOM      2  N   UNL     1     -33.993  44.137  -5.789  0.00  0.00    +0.000 N 
ATOM      3  N   UNL     1     -34.285  46.271  -6.715  0.00  0.00    +0.000 NA
ATOM      4  N   UNL     1     -32.264  45.062  -7.061  0.00  0.00    +0.000 NA
ATOM      5  C   UNL     1     -34.829  45.237  -5.952  0.00  0.00    +0.000 A 
ATOM      6  C   UNL     1     -32.821  44.276  -6.403  0.00  0.00    +0.000 A 
ATOM      7  C   UNL     1     -33.079  46.170  -7.211  0.00  0.00    +0.000 A 
ATOM      8  N   UNL     1     -32.593  47.206  -7.941  0.00  0.00    +0.000 N 
ATOM      9  H   UNL     1     -31.888  46.946  -8.619  0.00  0.00    +0.000 HD
ATOM     10  H   UNL     1     -33.316  47.822  -8.294  0.00  0.00    +0.000 HD
ENDROOT
BRANCH   2  11
ATOM     11  C1* UNL     1     -34.278  43.004  -5.094  0.00  0.00    +0.000 A 
ATOM     12  O4* UNL     1     -34.408  43.000  -3.701  0.00  0.00    +0.000 OA
ATOM     13  C4* UNL     1     -34.707  41.684  -3.325  0.00  0.00    +0.000 A 
ATOM     14  C3* UNL     1     -34.758  40.856  -4.502  0.00  0.00    +0.000 A 
ATOM     15  C2* UNL     1     -34.501  41.705  -5.593  0.00  0.00    +0.000 A 
BRANCH  14  16
ATOM     16  O3* UNL     1     -35.572  39.760  -4.558  0.00  0.00    +0.000 OA
ATOM     17  H3* UNL     1     -35.122  39.012  -4.986  0.00  0.00    +0.000 HD
ENDBRANCH  14  16
BRANCH  13  18
ATOM     18  C5* UNL     1     -35.074  41.336  -2.010  0.00  0.00    +0.000 C 
BRANCH  18  19
ATOM     19  O5* UNL     1     -35.416  41.005  -0.769  0.00  0.00    +0.000 OA
ATOM     20  H5* UNL     1     -35.712  40.079  -0.737  0.00  0.00    +0.000 HD
ENDBRANCH  18  19
ENDBRANCH  13  18
ENDBRANCH   2  11
TORSDOF 4
ENDMDL
MODEL 6
REMARK VINA RESULT:      -4.7      1.837      2.336
REMARK  Name = Decitabine.pdbqt.pdb
REMARK  4 active torsions:
REMARK  status: ('A' for Active; 'I' for Inactive)
REMARK    1  A    between atoms: N_2  and  C1*_8
REMARK    2  A    between atoms: C4*_10  and  C5*_13
REMARK    3  A    between atoms: C3*_11  and  O3*_16
REMARK    4  A    between atoms: C5*_13  and  O5*_14
REMARK                            x       y       z     vdW  Elec       q    Type
REMARK                         _______ _______ _______ _____ _____    ______ ____
ROOT
ATOM      1  O   UNL     1     -35.781  42.751  -5.679  0.00  0.00    +0.000 OA
ATOM      2  N   UNL     1     -33.793  43.891  -6.004  0.00  0.00    +0.000 N 
ATOM      3  N   UNL     1     -34.313  42.921  -3.934  0.00  0.00    +0.000 NA
ATOM      4  N   UNL     1     -32.272  44.108  -4.242  0.00  0.00    +0.000 NA
ATOM      5  C   UNL     1     -34.707  43.161  -5.251  0.00  0.00    +0.000 A 
ATOM      6  C   UNL     1     -32.706  44.233  -5.318  0.00  0.00    +0.000 A 
ATOM      7  C   UNL     1     -33.164  43.363  -3.490  0.00  0.00    +0.000 A 
ATOM      8  N   UNL     1     -32.825  43.099  -2.203  0.00  0.00    +0.000 N 
ATOM      9  H   UNL     1     -32.185  43.766  -1.794  0.00  0.00    +0.000 HD
ATOM     10  H   UNL     1     -33.618  42.857  -1.621  0.00  0.00    +0.000 HD
ENDROOT
BRANCH   2  11
ATOM     11  C1* UNL     1     -33.931  44.257  -7.305  0.00  0.00    +0.000 A 
ATOM     12  O4* UNL     1     -35.069  44.925  -7.773  0.00  0.00    +0.000 OA
ATOM     13  C4* UNL     1     -34.874  45.150  -9.141  0.00  0.00    +0.000 A 
ATOM     14  C3* UNL     1     -33.597  44.610  -9.533  0.00  0.00    +0.000 A 
ATOM     15  C2* UNL     1     -33.024  44.071  -8.368  0.00  0.00    +0.000 A 
BRANCH  14  16
ATOM     16  O3* UNL     1     -32.881  45.165 -10.555  0.00  0.00    +0.000 OA
ATOM     17  H3* UNL     1     -32.352  45.918 -10.242  0.00  0.00    +0.000 HD
ENDBRANCH  14  16
BRANCH  13  18
ATOM     18  C5* UNL     1     -35.742  45.951  -9.908  0.00  0.00    +0.000 C 
BRANCH  18  19
ATOM     19  O5* UNL     1     -36.566  46.707 -10.630  0.00  0.00    +0.000 OA
ATOM     20  H5* UNL     1     -36.441  47.646 -10.409  0.00  0.00    +0.000 HD
ENDBRANCH  18  19
ENDBRANCH  13  18
ENDBRANCH   2  11
TORSDOF 4
ENDMDL
MODEL 7
REMARK VINA RESULT:      -4.7     24.797     25.884
REMARK  Name = Decitabine.pdbqt.pdb
REMARK  4 active torsions:
REMARK  status: ('A' for Active; 'I' for Inactive)
REMARK    1  A    between atoms: N_2  and  C1*_8
REMARK    2  A    between atoms: C4*_10  and  C5*_13
REMARK    3  A    between atoms: C3*_11  and  O3*_16
REMARK    4  A    between atoms: C5*_13  and  O5*_14
REMARK                            x       y       z     vdW  Elec       q    Type
REMARK                         _______ _______ _______ _____ _____    ______ ____
ROOT
ATOM      1  O   UNL     1     -32.789  65.938 -21.840  0.00  0.00    +0.000 OA
ATOM      2  N   UNL     1     -32.058  63.777 -22.235  0.00  0.00    +0.000 N 
ATOM      3  N   UNL     1     -34.173  64.493 -22.948  0.00  0.00    +0.000 NA
ATOM      4  N   UNL     1     -33.448  62.260 -23.344  0.00  0.00    +0.000 NA
ATOM      5  C   UNL     1     -32.979  64.817 -22.303  0.00  0.00    +0.000 A 
ATOM      6  C   UNL     1     -32.496  62.654 -22.797  0.00  0.00    +0.000 A 
ATOM      7  C   UNL     1     -34.363  63.295 -23.437  0.00  0.00    +0.000 A 
ATOM      8  N   UNL     1     -35.540  63.031 -24.061  0.00  0.00    +0.000 N 
ATOM      9  H   UNL     1     -35.811  62.057 -24.047  0.00  0.00    +0.000 HD
ATOM     10  H   UNL     1     -36.277  63.682 -23.817  0.00  0.00    +0.000 HD
ENDROOT
BRANCH   2  11
ATOM     11  C1* UNL     1     -30.825  63.828 -21.665  0.00  0.00    +0.000 A 
ATOM     12  O4* UNL     1     -30.647  64.093 -20.302  0.00  0.00    +0.000 OA
ATOM     13  C4* UNL     1     -29.268  64.063 -20.060  0.00  0.00    +0.000 A 
ATOM     14  C3* UNL     1     -28.577  63.782 -21.292  0.00  0.00    +0.000 A 
ATOM     15  C2* UNL     1     -29.571  63.626 -22.274  0.00  0.00    +0.000 A 
BRANCH  14  16
ATOM     16  O3* UNL     1     -27.384  63.116 -21.294  0.00  0.00    +0.000 OA
ATOM     17  H3* UNL     1     -26.638  63.736 -21.226  0.00  0.00    +0.000 HD
ENDBRANCH  14  16
BRANCH  13  18
ATOM     18  C5* UNL     1     -28.725  64.119 -18.761  0.00  0.00    +0.000 C 
BRANCH  18  19
ATOM     19  O5* UNL     1     -28.209  64.172 -17.537  0.00  0.00    +0.000 OA
ATOM     20  H5* UNL     1     -27.855  63.303 -17.283  0.00  0.00    +0.000 HD
ENDBRANCH  18  19
ENDBRANCH  13  18
ENDBRANCH   2  11
TORSDOF 4
ENDMDL
MODEL 8
REMARK VINA RESULT:      -4.7     25.735     27.556
REMARK  Name = Decitabine.pdbqt.pdb
REMARK  4 active torsions:
REMARK  status: ('A' for Active; 'I' for Inactive)
REMARK    1  A    between atoms: N_2  and  C1*_8
REMARK    2  A    between atoms: C4*_10  and  C5*_13
REMARK    3  A    between atoms: C3*_11  and  O3*_16
REMARK    4  A    between atoms: C5*_13  and  O5*_14
REMARK                            x       y       z     vdW  Elec       q    Type
REMARK                         _______ _______ _______ _____ _____    ______ ____
ROOT
ATOM      1  O   UNL     1     -29.524  59.770 -25.061  0.00  0.00    +0.000 OA
ATOM      2  N   UNL     1     -30.871  60.921 -26.551  0.00  0.00    +0.000 N 
ATOM      3  N   UNL     1     -31.102  61.203 -24.235  0.00  0.00    +0.000 NA
ATOM      4  N   UNL     1     -32.512  62.380 -25.750  0.00  0.00    +0.000 NA
ATOM      5  C   UNL     1     -30.428  60.570 -25.280  0.00  0.00    +0.000 A 
ATOM      6  C   UNL     1     -31.870  61.798 -26.532  0.00  0.00    +0.000 A 
ATOM      7  C   UNL     1     -32.064  62.055 -24.481  0.00  0.00    +0.000 A 
ATOM      8  N   UNL     1     -32.685  62.649 -23.431  0.00  0.00    +0.000 N 
ATOM      9  H   UNL     1     -33.633  62.947 -23.619  0.00  0.00    +0.000 HD
ATOM     10  H   UNL     1     -32.562  62.150 -22.558  0.00  0.00    +0.000 HD
ENDROOT
BRANCH   2  11
ATOM     11  C1* UNL     1     -30.386  60.452 -27.731  0.00  0.00    +0.000 A 
ATOM     12  O4* UNL     1     -29.078  60.713 -28.152  0.00  0.00    +0.000 OA
ATOM     13  C4* UNL     1     -28.916  60.081 -29.392  0.00  0.00    +0.000 A 
ATOM     14  C3* UNL     1     -30.146  59.422 -29.750  0.00  0.00    +0.000 A 
ATOM     15  C2* UNL     1     -31.042  59.657 -28.692  0.00  0.00    +0.000 A 
BRANCH  14  16
ATOM     16  O3* UNL     1     -30.142  58.290 -30.515  0.00  0.00    +0.000 OA
ATOM     17  H3* UNL     1     -30.503  58.466 -31.401  0.00  0.00    +0.000 HD
ENDBRANCH  14  16
BRANCH  13  18
ATOM     18  C5* UNL     1     -27.668  59.986 -30.037  0.00  0.00    +0.000 C 
BRANCH  18  19
ATOM     19  O5* UNL     1     -26.489  59.900 -30.646  0.00  0.00    +0.000 OA
ATOM     20  H5* UNL     1     -26.311  58.980 -30.906  0.00  0.00    +0.000 HD
ENDBRANCH  18  19
ENDBRANCH  13  18
ENDBRANCH   2  11
TORSDOF 4
ENDMDL
MODEL 9
REMARK VINA RESULT:      -4.7     10.589     11.361
REMARK  Name = Decitabine.pdbqt.pdb
REMARK  4 active torsions:
REMARK  status: ('A' for Active; 'I' for Inactive)
REMARK    1  A    between atoms: N_2  and  C1*_8
REMARK    2  A    between atoms: C4*_10  and  C5*_13
REMARK    3  A    between atoms: C3*_11  and  O3*_16
REMARK    4  A    between atoms: C5*_13  and  O5*_14
REMARK                            x       y       z     vdW  Elec       q    Type
REMARK                         _______ _______ _______ _____ _____    ______ ____
ROOT
ATOM      1  O   UNL     1     -34.942  44.073 -16.091  0.00  0.00    +0.000 OA
ATOM      2  N   UNL     1     -33.494  45.857 -15.811  0.00  0.00    +0.000 N 
ATOM      3  N   UNL     1     -35.784  46.068 -15.356  0.00  0.00    +0.000 NA
ATOM      4  N   UNL     1     -34.315  47.921 -15.083  0.00  0.00    +0.000 NA
ATOM      5  C   UNL     1     -34.742  45.242 -15.778  0.00  0.00    +0.000 A 
ATOM      6  C   UNL     1     -33.531  47.133 -15.438  0.00  0.00    +0.000 A 
ATOM      7  C   UNL     1     -35.557  47.312 -15.025  0.00  0.00    +0.000 A 
ATOM      8  N   UNL     1     -36.605  48.073 -14.616  0.00  0.00    +0.000 N 
ATOM      9  H   UNL     1     -36.486  49.066 -14.769  0.00  0.00    +0.000 HD
ATOM     10  H   UNL     1     -37.504  47.703 -14.901  0.00  0.00    +0.000 HD
ENDROOT
BRANCH   2  11
ATOM     11  C1* UNL     1     -32.321  45.280 -16.180  0.00  0.00    +0.000 A 
ATOM     12  O4* UNL     1     -31.872  45.291 -17.506  0.00  0.00    +0.000 OA
ATOM     13  C4* UNL     1     -30.642  44.622 -17.524  0.00  0.00    +0.000 A 
ATOM     14  C3* UNL     1     -30.322  44.183 -16.189  0.00  0.00    +0.000 A 
ATOM     15  C2* UNL     1     -31.378  44.617 -15.369  0.00  0.00    +0.000 A 
BRANCH  14  16
ATOM     16  O3* UNL     1     -29.025  44.070 -15.776  0.00  0.00    +0.000 OA
ATOM     17  H3* UNL     1     -28.411  44.361 -16.472  0.00  0.00    +0.000 HD
ENDBRANCH  14  16
BRANCH  13  18
ATOM     18  C5* UNL     1     -29.814  44.588 -18.663  0.00  0.00    +0.000 C 
BRANCH  18  19
ATOM     19  O5* UNL     1     -29.036  44.556 -19.741  0.00  0.00    +0.000 OA
ATOM     20  H5* UNL     1     -29.360  45.185 -20.408  0.00  0.00    +0.000 HD
ENDBRANCH  18  19
ENDBRANCH  13  18
ENDBRANCH   2  11
TORSDOF 4
ENDMDL
