MODEL 1
REMARK VINA RESULT:      -5.3      0.000      0.000
REMARK  Name = Deferoxamine.pdbqt.pdb
REMARK  19 active torsions:
REMARK  status: ('A' for Active; 'I' for Inactive)
REMARK    1  A    between atoms: C_1  and  C_2
REMARK    2  A    between atoms: C_3  and  C_4
REMARK    3  A    between atoms: C_4  and  N_5
REMARK    4  A    between atoms: C_6  and  C_9
REMARK    5  A    between atoms: C_10  and  C_11
REMARK    6  A    between atoms: N_13  and  O_14
REMARK    7  A    between atoms: N_13  and  C_16
REMARK    8  A    between atoms: C_17  and  C_18
REMARK    9  A    between atoms: C_19  and  C_20
REMARK   10  A    between atoms: C_20  and  N_21
REMARK   11  A    between atoms: C_24  and  N_25
REMARK   12  A    between atoms: N_25  and  O_28
REMARK   13  A    between atoms: C_26  and  C_30
REMARK   14  A    between atoms: C_31  and  C_32
REMARK   15  A    between atoms: N_34  and  C_36
REMARK   16  A    between atoms: C_37  and  C_38
REMARK   17  A    between atoms: C_38  and  C_39
REMARK   18  A    between atoms: C_40  and  N_41
REMARK   19  A    between atoms: N_41  and  O_45
REMARK                            x       y       z     vdW  Elec       q    Type
REMARK                         _______ _______ _______ _____ _____    ______ ____
ROOT
ATOM      1  C   UNL     1     -16.129  58.132 -18.192  0.00  0.00    +0.000 C 
ATOM      2  C   UNL     1     -15.974  58.465 -17.048  0.00  0.00    +0.000 C 
ENDROOT
BRANCH   2   3
ATOM      3  N   UNL     1     -15.801  58.840 -15.763  0.00  0.00    +0.000 N 
ATOM      4  C   UNL     1     -16.361  59.882 -15.044  0.00  0.00    +0.000 C 
ATOM      5  O   UNL     1     -17.023  60.793 -15.530  0.00  0.00    +0.000 OA
BRANCH   4   6
ATOM      6  C   UNL     1     -16.117  59.914 -13.617  0.00  0.00    +0.000 C 
ATOM      7  C   UNL     1     -15.926  59.948 -12.431  0.00  0.00    +0.000 C 
BRANCH   7   8
ATOM      8  C   UNL     1     -15.706  60.011 -11.007  0.00  0.00    +0.000 C 
ATOM      9  O   UNL     1     -14.593  60.296 -10.591  0.00  0.00    +0.000 OA
ATOM     10  N   UNL     1     -16.809  59.735 -10.231  0.00  0.00    +0.000 N 
ATOM     11  H   UNL     1     -17.664  59.521 -10.729  0.00  0.00    +0.000 HD
BRANCH  10  12
ATOM     12  C   UNL     1     -16.919  59.714  -8.885  0.00  0.00    +0.000 C 
ATOM     13  C   UNL     1     -17.021  59.698  -7.689  0.00  0.00    +0.000 C 
BRANCH  13  14
ATOM     14  C   UNL     1     -17.160  59.680  -6.164  0.00  0.00    +0.000 C 
BRANCH  14  15
ATOM     15  C   UNL     1     -17.291  59.659  -4.638  0.00  0.00    +0.000 C 
ATOM     16  C   UNL     1     -17.394  59.646  -3.442  0.00  0.00    +0.000 C 
BRANCH  16  17
ATOM     17  N   UNL     1     -17.512  59.637  -2.101  0.00  0.00    +0.000 N 
ATOM     18  C   UNL     1     -16.566  59.530  -1.108  0.00  0.00    +0.000 C 
ATOM     19  O   UNL     1     -15.356  59.418  -1.188  0.00  0.00    +0.000 OA
ATOM     20  C   UNL     1     -17.007  59.547   0.334  0.00  0.00    +0.000 C 
BRANCH  17  21
ATOM     21  O   UNL     1     -18.881  59.759  -1.750  0.00  0.00    +0.000 OA
ATOM     22  H   UNL     1     -19.313  59.071  -2.297  0.00  0.00    +0.000 HD
ENDBRANCH  17  21
ENDBRANCH  16  17
ENDBRANCH  14  15
ENDBRANCH  13  14
ENDBRANCH  10  12
ENDBRANCH   7   8
ENDBRANCH   4   6
BRANCH   3  23
ATOM     23  O   UNL     1     -15.252  57.763 -15.031  0.00  0.00    +0.000 OA
ATOM     24  H   UNL     1     -15.936  57.078 -15.152  0.00  0.00    +0.000 HD
ENDBRANCH   3  23
ENDBRANCH   2   3
BRANCH   1  25
ATOM     25  C   UNL     1     -16.329  57.723 -19.653  0.00  0.00    +0.000 C 
ATOM     26  C   UNL     1     -16.490  57.391 -20.795  0.00  0.00    +0.000 C 
BRANCH  26  27
ATOM     27  C   UNL     1     -16.701  56.953 -22.248  0.00  0.00    +0.000 C 
BRANCH  27  28
ATOM     28  N   UNL     1     -16.877  56.552 -23.526  0.00  0.00    +0.000 N 
ATOM     29  C   UNL     1     -16.189  55.598 -24.237  0.00  0.00    +0.000 C 
ATOM     30  O   UNL     1     -15.262  54.922 -23.815  0.00  0.00    +0.000 OA
ATOM     31  H   UNL     1     -17.629  57.026 -24.011  0.00  0.00    +0.000 HD
BRANCH  29  32
ATOM     32  C   UNL     1     -16.632  55.405 -25.596  0.00  0.00    +0.000 C 
ATOM     33  C   UNL     1     -16.999  55.268 -26.732  0.00  0.00    +0.000 C 
BRANCH  33  34
ATOM     34  C   UNL     1     -17.429  55.120 -28.107  0.00  0.00    +0.000 C 
ATOM     35  O   UNL     1     -16.906  55.845 -28.948  0.00  0.00    +0.000 OA
ATOM     36  N   UNL     1     -18.427  54.197 -28.368  0.00  0.00    +0.000 N 
BRANCH  36  37
ATOM     37  C   UNL     1     -18.923  53.744 -29.538  0.00  0.00    +0.000 C 
ATOM     38  C   UNL     1     -19.366  53.338 -30.577  0.00  0.00    +0.000 C 
BRANCH  38  39
ATOM     39  C   UNL     1     -19.929  52.814 -31.902  0.00  0.00    +0.000 C 
ATOM     40  C   UNL     1     -20.376  52.403 -32.937  0.00  0.00    +0.000 C 
BRANCH  40  41
ATOM     41  C   UNL     1     -20.949  51.880 -34.257  0.00  0.00    +0.000 C 
BRANCH  41  42
ATOM     42  N   UNL     1     -21.493  51.384 -35.510  0.00  0.00    +0.000 NA
ATOM     43  H   UNL     1     -22.359  50.873 -35.344  0.00  0.00    +0.000 HD
ATOM     44  H   UNL     1     -21.737  52.160 -36.124  0.00  0.00    +0.000 HD
ENDBRANCH  41  42
ENDBRANCH  40  41
ENDBRANCH  38  39
ENDBRANCH  36  37
BRANCH  36  45
ATOM     45  O   UNL     1     -18.773  53.300 -27.332  0.00  0.00    +0.000 OA
ATOM     46  H   UNL     1     -17.999  52.707 -27.323  0.00  0.00    +0.000 HD
ENDBRANCH  36  45
ENDBRANCH  33  34
ENDBRANCH  29  32
ENDBRANCH  27  28
ENDBRANCH  26  27
ENDBRANCH   1  25
TORSDOF 19
ENDMDL
MODEL 2
REMARK VINA RESULT:      -5.3      2.608     21.780
REMARK  Name = Deferoxamine.pdbqt.pdb
REMARK  19 active torsions:
REMARK  status: ('A' for Active; 'I' for Inactive)
REMARK    1  A    between atoms: C_1  and  C_2
REMARK    2  A    between atoms: C_3  and  C_4
REMARK    3  A    between atoms: C_4  and  N_5
REMARK    4  A    between atoms: C_6  and  C_9
REMARK    5  A    between atoms: C_10  and  C_11
REMARK    6  A    between atoms: N_13  and  O_14
REMARK    7  A    between atoms: N_13  and  C_16
REMARK    8  A    between atoms: C_17  and  C_18
REMARK    9  A    between atoms: C_19  and  C_20
REMARK   10  A    between atoms: C_20  and  N_21
REMARK   11  A    between atoms: C_24  and  N_25
REMARK   12  A    between atoms: N_25  and  O_28
REMARK   13  A    between atoms: C_26  and  C_30
REMARK   14  A    between atoms: C_31  and  C_32
REMARK   15  A    between atoms: N_34  and  C_36
REMARK   16  A    between atoms: C_37  and  C_38
REMARK   17  A    between atoms: C_38  and  C_39
REMARK   18  A    between atoms: C_40  and  N_41
REMARK   19  A    between atoms: N_41  and  O_45
REMARK                            x       y       z     vdW  Elec       q    Type
REMARK                         _______ _______ _______ _____ _____    ______ ____
ROOT
ATOM      1  C   UNL     1     -16.717  57.599 -19.876  0.00  0.00    +0.000 C 
ATOM      2  C   UNL     1     -16.618  57.161 -20.991  0.00  0.00    +0.000 C 
ENDROOT
BRANCH   2   3
ATOM      3  N   UNL     1     -16.505  56.669 -22.242  0.00  0.00    +0.000 N 
ATOM      4  C   UNL     1     -15.909  55.509 -22.705  0.00  0.00    +0.000 C 
ATOM      5  O   UNL     1     -15.196  54.771 -22.033  0.00  0.00    +0.000 OA
BRANCH   4   6
ATOM      6  C   UNL     1     -16.117  55.161 -24.095  0.00  0.00    +0.000 C 
ATOM      7  C   UNL     1     -16.292  54.887 -25.252  0.00  0.00    +0.000 C 
BRANCH   7   8
ATOM      8  C   UNL     1     -16.520  54.573 -26.641  0.00  0.00    +0.000 C 
ATOM      9  O   UNL     1     -15.576  54.599 -27.417  0.00  0.00    +0.000 OA
ATOM     10  N   UNL     1     -17.822  54.264 -26.966  0.00  0.00    +0.000 N 
ATOM     11  H   UNL     1     -18.488  54.282 -26.205  0.00  0.00    +0.000 HD
BRANCH  10  12
ATOM     12  C   UNL     1     -18.343  53.932 -28.167  0.00  0.00    +0.000 C 
ATOM     13  C   UNL     1     -18.805  53.631 -29.233  0.00  0.00    +0.000 C 
BRANCH  13  14
ATOM     14  C   UNL     1     -19.396  53.238 -30.591  0.00  0.00    +0.000 C 
BRANCH  14  15
ATOM     15  C   UNL     1     -19.979  52.849 -31.952  0.00  0.00    +0.000 C 
ATOM     16  C   UNL     1     -20.438  52.541 -33.018  0.00  0.00    +0.000 C 
BRANCH  16  17
ATOM     17  N   UNL     1     -20.960  52.196 -34.211  0.00  0.00    +0.000 N 
ATOM     18  C   UNL     1     -21.072  52.897 -35.388  0.00  0.00    +0.000 C 
ATOM     19  O   UNL     1     -20.719  54.031 -35.662  0.00  0.00    +0.000 OA
ATOM     20  C   UNL     1     -21.720  52.237 -36.579  0.00  0.00    +0.000 C 
BRANCH  17  21
ATOM     21  O   UNL     1     -21.455  50.868 -34.139  0.00  0.00    +0.000 OA
ATOM     22  H   UNL     1     -21.520  50.604 -35.080  0.00  0.00    +0.000 HD
ENDBRANCH  17  21
ENDBRANCH  16  17
ENDBRANCH  14  15
ENDBRANCH  13  14
ENDBRANCH  10  12
ENDBRANCH   7   8
ENDBRANCH   4   6
BRANCH   3  23
ATOM     23  O   UNL     1     -17.463  57.288 -23.076  0.00  0.00    +0.000 OA
ATOM     24  H   UNL     1     -18.209  57.409 -22.459  0.00  0.00    +0.000 HD
ENDBRANCH   3  23
ENDBRANCH   2   3
BRANCH   1  25
ATOM     25  C   UNL     1     -16.828  58.153 -18.453  0.00  0.00    +0.000 C 
ATOM     26  C   UNL     1     -16.926  58.578 -17.336  0.00  0.00    +0.000 C 
BRANCH  26  27
ATOM     27  C   UNL     1     -17.060  59.112 -15.906  0.00  0.00    +0.000 C 
BRANCH  27  28
ATOM     28  N   UNL     1     -17.170  59.598 -14.650  0.00  0.00    +0.000 N 
ATOM     29  C   UNL     1     -18.075  60.502 -14.147  0.00  0.00    +0.000 C 
ATOM     30  O   UNL     1     -18.972  61.042 -14.778  0.00  0.00    +0.000 OA
ATOM     31  H   UNL     1     -16.487  59.231 -14.000  0.00  0.00    +0.000 HD
BRANCH  29  32
ATOM     32  C   UNL     1     -17.922  60.813 -12.747  0.00  0.00    +0.000 C 
ATOM     33  C   UNL     1     -17.795  61.048 -11.576  0.00  0.00    +0.000 C 
BRANCH  33  34
ATOM     34  C   UNL     1     -17.631  61.312 -10.161  0.00  0.00    +0.000 C 
ATOM     35  O   UNL     1     -17.593  62.485  -9.801  0.00  0.00    +0.000 OA
ATOM     36  N   UNL     1     -17.490  60.221  -9.320  0.00  0.00    +0.000 N 
BRANCH  36  37
ATOM     37  C   UNL     1     -17.466  60.145  -7.974  0.00  0.00    +0.000 C 
ATOM     38  C   UNL     1     -17.446  60.080  -6.776  0.00  0.00    +0.000 C 
BRANCH  38  39
ATOM     39  C   UNL     1     -17.417  60.005  -5.246  0.00  0.00    +0.000 C 
ATOM     40  C   UNL     1     -17.400  59.946  -4.047  0.00  0.00    +0.000 C 
BRANCH  40  41
ATOM     41  C   UNL     1     -17.383  59.870  -2.518  0.00  0.00    +0.000 C 
BRANCH  41  42
ATOM     42  N   UNL     1     -17.366  59.798  -1.066  0.00  0.00    +0.000 NA
ATOM     43  H   UNL     1     -17.717  58.895  -0.751  0.00  0.00    +0.000 HD
ATOM     44  H   UNL     1     -16.411  59.867  -0.718  0.00  0.00    +0.000 HD
ENDBRANCH  41  42
ENDBRANCH  40  41
ENDBRANCH  38  39
ENDBRANCH  36  37
BRANCH  36  45
ATOM     45  O   UNL     1     -17.765  58.943  -9.859  0.00  0.00    +0.000 OA
ATOM     46  H   UNL     1     -18.382  59.166 -10.580  0.00  0.00    +0.000 HD
ENDBRANCH  36  45
ENDBRANCH  33  34
ENDBRANCH  29  32
ENDBRANCH  27  28
ENDBRANCH  26  27
ENDBRANCH   1  25
TORSDOF 19
ENDMDL
MODEL 3
REMARK VINA RESULT:      -5.1     20.228     20.706
REMARK  Name = Deferoxamine.pdbqt.pdb
REMARK  19 active torsions:
REMARK  status: ('A' for Active; 'I' for Inactive)
REMARK    1  A    between atoms: C_1  and  C_2
REMARK    2  A    between atoms: C_3  and  C_4
REMARK    3  A    between atoms: C_4  and  N_5
REMARK    4  A    between atoms: C_6  and  C_9
REMARK    5  A    between atoms: C_10  and  C_11
REMARK    6  A    between atoms: N_13  and  O_14
REMARK    7  A    between atoms: N_13  and  C_16
REMARK    8  A    between atoms: C_17  and  C_18
REMARK    9  A    between atoms: C_19  and  C_20
REMARK   10  A    between atoms: C_20  and  N_21
REMARK   11  A    between atoms: C_24  and  N_25
REMARK   12  A    between atoms: N_25  and  O_28
REMARK   13  A    between atoms: C_26  and  C_30
REMARK   14  A    between atoms: C_31  and  C_32
REMARK   15  A    between atoms: N_34  and  C_36
REMARK   16  A    between atoms: C_37  and  C_38
REMARK   17  A    between atoms: C_38  and  C_39
REMARK   18  A    between atoms: C_40  and  N_41
REMARK   19  A    between atoms: N_41  and  O_45
REMARK                            x       y       z     vdW  Elec       q    Type
REMARK                         _______ _______ _______ _____ _____    ______ ____
ROOT
ATOM      1  C   UNL     1     -34.577  47.894 -19.893  0.00  0.00    +0.000 C 
ATOM      2  C   UNL     1     -34.582  47.458 -18.773  0.00  0.00    +0.000 C 
ENDROOT
BRANCH   2   3
ATOM      3  N   UNL     1     -34.590  46.967 -17.517  0.00  0.00    +0.000 N 
ATOM      4  C   UNL     1     -33.556  46.499 -16.724  0.00  0.00    +0.000 C 
ATOM      5  O   UNL     1     -32.414  46.286 -17.116  0.00  0.00    +0.000 OA
BRANCH   4   6
ATOM      6  C   UNL     1     -33.858  46.208 -15.338  0.00  0.00    +0.000 C 
ATOM      7  C   UNL     1     -34.122  45.964 -14.191  0.00  0.00    +0.000 C 
BRANCH   7   8
ATOM      8  C   UNL     1     -34.460  45.682 -12.818  0.00  0.00    +0.000 C 
ATOM      9  O   UNL     1     -35.628  45.764 -12.466  0.00  0.00    +0.000 OA
ATOM     10  N   UNL     1     -33.398  45.336 -12.012  0.00  0.00    +0.000 N 
ATOM     11  H   UNL     1     -32.490  45.308 -12.458  0.00  0.00    +0.000 HD
BRANCH  10  12
ATOM     12  C   UNL     1     -33.394  45.020 -10.699  0.00  0.00    +0.000 C 
ATOM     13  C   UNL     1     -33.395  44.742  -9.532  0.00  0.00    +0.000 C 
BRANCH  13  14
ATOM     14  C   UNL     1     -33.405  44.393  -8.040  0.00  0.00    +0.000 C 
BRANCH  14  15
ATOM     15  C   UNL     1     -33.409  44.050  -6.548  0.00  0.00    +0.000 C 
ATOM     16  C   UNL     1     -33.414  43.780  -5.378  0.00  0.00    +0.000 C 
BRANCH  16  17
ATOM     17  N   UNL     1     -33.423  43.470  -4.067  0.00  0.00    +0.000 N 
ATOM     18  C   UNL     1     -33.907  42.370  -3.399  0.00  0.00    +0.000 C 
ATOM     19  O   UNL     1     -34.459  41.372  -3.828  0.00  0.00    +0.000 OA
ATOM     20  C   UNL     1     -33.775  42.304  -1.898  0.00  0.00    +0.000 C 
BRANCH  17  21
ATOM     21  O   UNL     1     -32.812  44.520  -3.334  0.00  0.00    +0.000 OA
ATOM     22  H   UNL     1     -31.859  44.400  -3.527  0.00  0.00    +0.000 HD
ENDBRANCH  17  21
ENDBRANCH  16  17
ENDBRANCH  14  15
ENDBRANCH  13  14
ENDBRANCH  10  12
ENDBRANCH   7   8
ENDBRANCH   4   6
BRANCH   3  23
ATOM     23  O   UNL     1     -35.783  47.360 -16.868  0.00  0.00    +0.000 OA
ATOM     24  H   UNL     1     -35.482  47.445 -15.944  0.00  0.00    +0.000 HD
ENDBRANCH   3  23
ENDBRANCH   2   3
BRANCH   1  25
ATOM     25  C   UNL     1     -34.584  48.456 -21.317  0.00  0.00    +0.000 C 
ATOM     26  C   UNL     1     -34.603  48.898 -22.432  0.00  0.00    +0.000 C 
BRANCH  26  27
ATOM     27  C   UNL     1     -34.642  49.464 -23.855  0.00  0.00    +0.000 C 
BRANCH  27  28
ATOM     28  N   UNL     1     -34.676  49.980 -25.103  0.00  0.00    +0.000 N 
ATOM     29  C   UNL     1     -35.692  49.943 -26.029  0.00  0.00    +0.000 C 
ATOM     30  O   UNL     1     -36.783  49.414 -25.872  0.00  0.00    +0.000 OA
ATOM     31  H   UNL     1     -33.830  50.464 -25.377  0.00  0.00    +0.000 HD
BRANCH  29  32
ATOM     32  C   UNL     1     -35.408  50.599 -27.282  0.00  0.00    +0.000 C 
ATOM     33  C   UNL     1     -35.193  51.140 -28.332  0.00  0.00    +0.000 C 
BRANCH  33  34
ATOM     34  C   UNL     1     -34.957  51.798 -29.601  0.00  0.00    +0.000 C 
ATOM     35  O   UNL     1     -34.884  51.093 -30.603  0.00  0.00    +0.000 OA
ATOM     36  N   UNL     1     -34.792  53.173 -29.586  0.00  0.00    +0.000 N 
BRANCH  36  37
ATOM     37  C   UNL     1     -34.704  54.060 -30.599  0.00  0.00    +0.000 C 
ATOM     38  C   UNL     1     -34.629  54.847 -31.501  0.00  0.00    +0.000 C 
BRANCH  38  39
ATOM     39  C   UNL     1     -34.534  55.847 -32.658  0.00  0.00    +0.000 C 
ATOM     40  C   UNL     1     -34.455  56.628 -33.566  0.00  0.00    +0.000 C 
BRANCH  40  41
ATOM     41  C   UNL     1     -34.351  57.622 -34.725  0.00  0.00    +0.000 C 
BRANCH  41  42
ATOM     42  N   UNL     1     -34.253  58.567 -35.826  0.00  0.00    +0.000 NA
ATOM     43  H   UNL     1     -34.576  59.488 -35.534  0.00  0.00    +0.000 HD
ATOM     44  H   UNL     1     -33.281  58.685 -36.107  0.00  0.00    +0.000 HD
ENDBRANCH  41  42
ENDBRANCH  40  41
ENDBRANCH  38  39
ENDBRANCH  36  37
BRANCH  36  45
ATOM     45  O   UNL     1     -35.112  53.855 -28.390  0.00  0.00    +0.000 OA
ATOM     46  H   UNL     1     -34.559  54.654 -28.469  0.00  0.00    +0.000 HD
ENDBRANCH  36  45
ENDBRANCH  33  34
ENDBRANCH  29  32
ENDBRANCH  27  28
ENDBRANCH  26  27
ENDBRANCH   1  25
TORSDOF 19
ENDMDL
MODEL 4
REMARK VINA RESULT:      -4.9      4.223     22.153
REMARK  Name = Deferoxamine.pdbqt.pdb
REMARK  19 active torsions:
REMARK  status: ('A' for Active; 'I' for Inactive)
REMARK    1  A    between atoms: C_1  and  C_2
REMARK    2  A    between atoms: C_3  and  C_4
REMARK    3  A    between atoms: C_4  and  N_5
REMARK    4  A    between atoms: C_6  and  C_9
REMARK    5  A    between atoms: C_10  and  C_11
REMARK    6  A    between atoms: N_13  and  O_14
REMARK    7  A    between atoms: N_13  and  C_16
REMARK    8  A    between atoms: C_17  and  C_18
REMARK    9  A    between atoms: C_19  and  C_20
REMARK   10  A    between atoms: C_20  and  N_21
REMARK   11  A    between atoms: C_24  and  N_25
REMARK   12  A    between atoms: N_25  and  O_28
REMARK   13  A    between atoms: C_26  and  C_30
REMARK   14  A    between atoms: C_31  and  C_32
REMARK   15  A    between atoms: N_34  and  C_36
REMARK   16  A    between atoms: C_37  and  C_38
REMARK   17  A    between atoms: C_38  and  C_39
REMARK   18  A    between atoms: C_40  and  N_41
REMARK   19  A    between atoms: N_41  and  O_45
REMARK                            x       y       z     vdW  Elec       q    Type
REMARK                         _______ _______ _______ _____ _____    ______ ____
ROOT
ATOM      1  C   UNL     1     -14.922  55.299 -19.045  0.00  0.00    +0.000 C 
ATOM      2  C   UNL     1     -15.246  55.133 -20.190  0.00  0.00    +0.000 C 
ENDROOT
BRANCH   2   3
ATOM      3  N   UNL     1     -15.610  54.945 -21.475  0.00  0.00    +0.000 N 
ATOM      4  C   UNL     1     -15.680  55.836 -22.532  0.00  0.00    +0.000 C 
ATOM      5  O   UNL     1     -15.575  57.053 -22.431  0.00  0.00    +0.000 OA
BRANCH   4   6
ATOM      6  C   UNL     1     -15.932  55.289 -23.849  0.00  0.00    +0.000 C 
ATOM      7  C   UNL     1     -16.147  54.823 -24.936  0.00  0.00    +0.000 C 
BRANCH   7   8
ATOM      8  C   UNL     1     -16.400  54.243 -26.232  0.00  0.00    +0.000 C 
ATOM      9  O   UNL     1     -15.510  53.612 -26.784  0.00  0.00    +0.000 OA
ATOM     10  N   UNL     1     -17.662  54.464 -26.736  0.00  0.00    +0.000 N 
ATOM     11  H   UNL     1     -18.288  55.004 -26.153  0.00  0.00    +0.000 HD
BRANCH  10  12
ATOM     12  C   UNL     1     -18.193  54.055 -27.909  0.00  0.00    +0.000 C 
ATOM     13  C   UNL     1     -18.668  53.697 -28.951  0.00  0.00    +0.000 C 
BRANCH  13  14
ATOM     14  C   UNL     1     -19.277  53.249 -30.283  0.00  0.00    +0.000 C 
BRANCH  14  15
ATOM     15  C   UNL     1     -19.884  52.808 -31.619  0.00  0.00    +0.000 C 
ATOM     16  C   UNL     1     -20.357  52.464 -32.667  0.00  0.00    +0.000 C 
BRANCH  16  17
ATOM     17  N   UNL     1     -20.881  52.076 -33.846  0.00  0.00    +0.000 N 
ATOM     18  C   UNL     1     -20.781  52.620 -35.105  0.00  0.00    +0.000 C 
ATOM     19  O   UNL     1     -20.178  53.607 -35.487  0.00  0.00    +0.000 OA
ATOM     20  C   UNL     1     -21.496  51.953 -36.253  0.00  0.00    +0.000 C 
BRANCH  17  21
ATOM     21  O   UNL     1     -21.654  50.902 -33.651  0.00  0.00    +0.000 OA
ATOM     22  H   UNL     1     -21.140  50.217 -34.126  0.00  0.00    +0.000 HD
ENDBRANCH  17  21
ENDBRANCH  16  17
ENDBRANCH  14  15
ENDBRANCH  13  14
ENDBRANCH  10  12
ENDBRANCH   7   8
ENDBRANCH   4   6
BRANCH   3  23
ATOM     23  O   UNL     1     -15.538  53.568 -21.786  0.00  0.00    +0.000 OA
ATOM     24  H   UNL     1     -16.250  53.482 -22.447  0.00  0.00    +0.000 HD
ENDBRANCH   3  23
ENDBRANCH   2   3
BRANCH   1  25
ATOM     25  C   UNL     1     -14.509  55.495 -17.583  0.00  0.00    +0.000 C 
ATOM     26  C   UNL     1     -14.196  55.659 -16.437  0.00  0.00    +0.000 C 
BRANCH  26  27
ATOM     27  C   UNL     1     -13.805  55.877 -14.971  0.00  0.00    +0.000 C 
BRANCH  27  28
ATOM     28  N   UNL     1     -13.463  56.088 -13.682  0.00  0.00    +0.000 N 
ATOM     29  C   UNL     1     -14.115  55.696 -12.537  0.00  0.00    +0.000 C 
ATOM     30  O   UNL     1     -15.161  55.064 -12.491  0.00  0.00    +0.000 OA
ATOM     31  H   UNL     1     -12.599  56.601 -13.559  0.00  0.00    +0.000 HD
BRANCH  29  32
ATOM     32  C   UNL     1     -13.477  56.081 -11.302  0.00  0.00    +0.000 C 
ATOM     33  C   UNL     1     -12.967  56.411 -10.266  0.00  0.00    +0.000 C 
BRANCH  33  34
ATOM     34  C   UNL     1     -12.372  56.806  -9.006  0.00  0.00    +0.000 C 
ATOM     35  O   UNL     1     -11.371  57.515  -9.046  0.00  0.00    +0.000 OA
ATOM     36  N   UNL     1     -12.953  56.322  -7.846  0.00  0.00    +0.000 N 
BRANCH  36  37
ATOM     37  C   UNL     1     -12.718  56.623  -6.552  0.00  0.00    +0.000 C 
ATOM     38  C   UNL     1     -12.510  56.895  -5.402  0.00  0.00    +0.000 C 
BRANCH  38  39
ATOM     39  C   UNL     1     -12.240  57.247  -3.935  0.00  0.00    +0.000 C 
ATOM     40  C   UNL     1     -12.031  57.517  -2.785  0.00  0.00    +0.000 C 
BRANCH  40  41
ATOM     41  C   UNL     1     -11.765  57.859  -1.317  0.00  0.00    +0.000 C 
BRANCH  41  42
ATOM     42  N   UNL     1     -11.513  58.184   0.077  0.00  0.00    +0.000 NA
ATOM     43  H   UNL     1     -11.661  59.178   0.243  0.00  0.00    +0.000 HD
ATOM     44  H   UNL     1     -12.172  57.696   0.681  0.00  0.00    +0.000 HD
ENDBRANCH  41  42
ENDBRANCH  40  41
ENDBRANCH  38  39
ENDBRANCH  36  37
BRANCH  36  45
ATOM     45  O   UNL     1     -14.215  55.696  -7.961  0.00  0.00    +0.000 OA
ATOM     46  H   UNL     1     -14.359  55.382  -7.050  0.00  0.00    +0.000 HD
ENDBRANCH  36  45
ENDBRANCH  33  34
ENDBRANCH  29  32
ENDBRANCH  27  28
ENDBRANCH  26  27
ENDBRANCH   1  25
TORSDOF 19
ENDMDL
MODEL 5
REMARK VINA RESULT:      -4.8      3.893      5.210
REMARK  Name = Deferoxamine.pdbqt.pdb
REMARK  19 active torsions:
REMARK  status: ('A' for Active; 'I' for Inactive)
REMARK    1  A    between atoms: C_1  and  C_2
REMARK    2  A    between atoms: C_3  and  C_4
REMARK    3  A    between atoms: C_4  and  N_5
REMARK    4  A    between atoms: C_6  and  C_9
REMARK    5  A    between atoms: C_10  and  C_11
REMARK    6  A    between atoms: N_13  and  O_14
REMARK    7  A    between atoms: N_13  and  C_16
REMARK    8  A    between atoms: C_17  and  C_18
REMARK    9  A    between atoms: C_19  and  C_20
REMARK   10  A    between atoms: C_20  and  N_21
REMARK   11  A    between atoms: C_24  and  N_25
REMARK   12  A    between atoms: N_25  and  O_28
REMARK   13  A    between atoms: C_26  and  C_30
REMARK   14  A    between atoms: C_31  and  C_32
REMARK   15  A    between atoms: N_34  and  C_36
REMARK   16  A    between atoms: C_37  and  C_38
REMARK   17  A    between atoms: C_38  and  C_39
REMARK   18  A    between atoms: C_40  and  N_41
REMARK   19  A    between atoms: N_41  and  O_45
REMARK                            x       y       z     vdW  Elec       q    Type
REMARK                         _______ _______ _______ _____ _____    ______ ____
ROOT
ATOM      1  C   UNL     1     -15.527  55.011 -21.756  0.00  0.00    +0.000 C 
ATOM      2  C   UNL     1     -15.195  55.109 -20.605  0.00  0.00    +0.000 C 
ENDROOT
BRANCH   2   3
ATOM      3  N   UNL     1     -14.822  55.218 -19.314  0.00  0.00    +0.000 N 
ATOM      4  C   UNL     1     -14.657  56.335 -18.513  0.00  0.00    +0.000 C 
ATOM      5  O   UNL     1     -14.663  57.493 -18.916  0.00  0.00    +0.000 OA
BRANCH   4   6
ATOM      6  C   UNL     1     -14.424  56.115 -17.101  0.00  0.00    +0.000 C 
ATOM      7  C   UNL     1     -14.231  55.918 -15.931  0.00  0.00    +0.000 C 
BRANCH   7   8
ATOM      8  C   UNL     1     -14.014  55.663 -14.528  0.00  0.00    +0.000 C 
ATOM      9  O   UNL     1     -13.602  54.566 -14.182  0.00  0.00    +0.000 OA
ATOM     10  N   UNL     1     -14.302  56.717 -13.690  0.00  0.00    +0.000 N 
ATOM     11  H   UNL     1     -14.631  57.564 -14.134  0.00  0.00    +0.000 HD
BRANCH  10  12
ATOM     12  C   UNL     1     -14.202  56.785 -12.345  0.00  0.00    +0.000 C 
ATOM     13  C   UNL     1     -14.117  56.841 -11.149  0.00  0.00    +0.000 C 
BRANCH  13  14
ATOM     14  C   UNL     1     -14.010  56.903  -9.622  0.00  0.00    +0.000 C 
BRANCH  14  15
ATOM     15  C   UNL     1     -13.912  56.961  -8.095  0.00  0.00    +0.000 C 
ATOM     16  C   UNL     1     -13.837  57.010  -6.898  0.00  0.00    +0.000 C 
BRANCH  16  17
ATOM     17  N   UNL     1     -13.758  57.068  -5.554  0.00  0.00    +0.000 N 
ATOM     18  C   UNL     1     -12.697  56.886  -4.700  0.00  0.00    +0.000 C 
ATOM     19  O   UNL     1     -11.531  56.625  -4.942  0.00  0.00    +0.000 OA
ATOM     20  C   UNL     1     -12.918  57.013  -3.213  0.00  0.00    +0.000 C 
BRANCH  17  21
ATOM     21  O   UNL     1     -15.039  57.369  -5.022  0.00  0.00    +0.000 OA
ATOM     22  H   UNL     1     -15.570  56.582  -5.263  0.00  0.00    +0.000 HD
ENDBRANCH  17  21
ENDBRANCH  16  17
ENDBRANCH  14  15
ENDBRANCH  13  14
ENDBRANCH  10  12
ENDBRANCH   7   8
ENDBRANCH   4   6
BRANCH   3  23
ATOM     23  O   UNL     1     -15.000  53.974 -18.668  0.00  0.00    +0.000 OA
ATOM     24  H   UNL     1     -14.606  53.361 -19.316  0.00  0.00    +0.000 HD
ENDBRANCH   3  23
ENDBRANCH   2   3
BRANCH   1  25
ATOM     25  C   UNL     1     -15.950  54.870 -23.221  0.00  0.00    +0.000 C 
ATOM     26  C   UNL     1     -16.294  54.758 -24.364  0.00  0.00    +0.000 C 
BRANCH  26  27
ATOM     27  C   UNL     1     -16.748  54.613 -25.821  0.00  0.00    +0.000 C 
BRANCH  27  28
ATOM     28  N   UNL     1     -17.152  54.503 -27.105  0.00  0.00    +0.000 N 
ATOM     29  C   UNL     1     -17.517  53.377 -27.804  0.00  0.00    +0.000 C 
ATOM     30  O   UNL     1     -17.539  52.237 -27.364  0.00  0.00    +0.000 OA
ATOM     31  H   UNL     1     -17.191  55.381 -27.606  0.00  0.00    +0.000 HD
BRANCH  29  32
ATOM     32  C   UNL     1     -17.905  53.603 -29.176  0.00  0.00    +0.000 C 
ATOM     33  C   UNL     1     -18.250  53.785 -30.312  0.00  0.00    +0.000 C 
BRANCH  33  34
ATOM     34  C   UNL     1     -18.686  54.011 -31.674  0.00  0.00    +0.000 C 
ATOM     35  O   UNL     1     -18.309  53.219 -32.532  0.00  0.00    +0.000 OA
ATOM     36  N   UNL     1     -19.468  55.128 -31.917  0.00  0.00    +0.000 N 
BRANCH  36  37
ATOM     37  C   UNL     1     -20.130  55.514 -33.027  0.00  0.00    +0.000 C 
ATOM     38  C   UNL     1     -20.715  55.857 -34.017  0.00  0.00    +0.000 C 
BRANCH  38  39
ATOM     39  C   UNL     1     -21.457  56.296 -35.284  0.00  0.00    +0.000 C 
ATOM     40  C   UNL     1     -22.038  56.634 -36.278  0.00  0.00    +0.000 C 
BRANCH  40  41
ATOM     41  C   UNL     1     -22.780  57.062 -37.547  0.00  0.00    +0.000 C 
BRANCH  41  42
ATOM     42  N   UNL     1     -23.484  57.469 -38.752  0.00  0.00    +0.000 NA
ATOM     43  H   UNL     1     -23.027  58.275 -39.176  0.00  0.00    +0.000 HD
ATOM     44  H   UNL     1     -23.451  56.727 -39.450  0.00  0.00    +0.000 HD
ENDBRANCH  41  42
ENDBRANCH  40  41
ENDBRANCH  38  39
ENDBRANCH  36  37
BRANCH  36  45
ATOM     45  O   UNL     1     -19.987  55.817 -30.797  0.00  0.00    +0.000 OA
ATOM     46  H   UNL     1     -19.184  55.942 -30.259  0.00  0.00    +0.000 HD
ENDBRANCH  36  45
ENDBRANCH  33  34
ENDBRANCH  29  32
ENDBRANCH  27  28
ENDBRANCH  26  27
ENDBRANCH   1  25
TORSDOF 19
ENDMDL
MODEL 6
REMARK VINA RESULT:      -4.7      2.571     21.847
REMARK  Name = Deferoxamine.pdbqt.pdb
REMARK  19 active torsions:
REMARK  status: ('A' for Active; 'I' for Inactive)
REMARK    1  A    between atoms: C_1  and  C_2
REMARK    2  A    between atoms: C_3  and  C_4
REMARK    3  A    between atoms: C_4  and  N_5
REMARK    4  A    between atoms: C_6  and  C_9
REMARK    5  A    between atoms: C_10  and  C_11
REMARK    6  A    between atoms: N_13  and  O_14
REMARK    7  A    between atoms: N_13  and  C_16
REMARK    8  A    between atoms: C_17  and  C_18
REMARK    9  A    between atoms: C_19  and  C_20
REMARK   10  A    between atoms: C_20  and  N_21
REMARK   11  A    between atoms: C_24  and  N_25
REMARK   12  A    between atoms: N_25  and  O_28
REMARK   13  A    between atoms: C_26  and  C_30
REMARK   14  A    between atoms: C_31  and  C_32
REMARK   15  A    between atoms: N_34  and  C_36
REMARK   16  A    between atoms: C_37  and  C_38
REMARK   17  A    between atoms: C_38  and  C_39
REMARK   18  A    between atoms: C_40  and  N_41
REMARK   19  A    between atoms: N_41  and  O_45
REMARK                            x       y       z     vdW  Elec       q    Type
REMARK                         _______ _______ _______ _____ _____    ______ ____
ROOT
ATOM      1  C   UNL     1     -15.728  57.081 -20.074  0.00  0.00    +0.000 C 
ATOM      2  C   UNL     1     -15.850  56.763 -21.227  0.00  0.00    +0.000 C 
ENDROOT
BRANCH   2   3
ATOM      3  N   UNL     1     -15.988  56.407 -22.521  0.00  0.00    +0.000 N 
ATOM      4  C   UNL     1     -15.929  55.164 -23.126  0.00  0.00    +0.000 C 
ATOM      5  O   UNL     1     -15.556  54.133 -22.575  0.00  0.00    +0.000 OA
BRANCH   4   6
ATOM      6  C   UNL     1     -16.305  55.083 -24.522  0.00  0.00    +0.000 C 
ATOM      7  C   UNL     1     -16.614  55.003 -25.681  0.00  0.00    +0.000 C 
BRANCH   7   8
ATOM      8  C   UNL     1     -16.968  54.890 -27.074  0.00  0.00    +0.000 C 
ATOM      9  O   UNL     1     -16.349  55.547 -27.899  0.00  0.00    +0.000 OA
ATOM     10  N   UNL     1     -18.002  54.023 -27.347  0.00  0.00    +0.000 N 
ATOM     11  H   UNL     1     -18.409  53.549 -26.551  0.00  0.00    +0.000 HD
BRANCH  10  12
ATOM     12  C   UNL     1     -18.556  53.708 -28.538  0.00  0.00    +0.000 C 
ATOM     13  C   UNL     1     -19.042  53.426 -29.599  0.00  0.00    +0.000 C 
BRANCH  13  14
ATOM     14  C   UNL     1     -19.655  53.061 -30.954  0.00  0.00    +0.000 C 
BRANCH  14  15
ATOM     15  C   UNL     1     -20.259  52.697 -32.313  0.00  0.00    +0.000 C 
ATOM     16  C   UNL     1     -20.736  52.411 -33.378  0.00  0.00    +0.000 C 
BRANCH  16  17
ATOM     17  N   UNL     1     -21.276  52.092 -34.569  0.00  0.00    +0.000 N 
ATOM     18  C   UNL     1     -22.239  52.718 -35.325  0.00  0.00    +0.000 C 
ATOM     19  O   UNL     1     -22.861  53.743 -35.109  0.00  0.00    +0.000 OA
ATOM     20  C   UNL     1     -22.653  52.110 -36.642  0.00  0.00    +0.000 C 
BRANCH  17  21
ATOM     21  O   UNL     1     -20.691  50.888 -35.042  0.00  0.00    +0.000 OA
ATOM     22  H   UNL     1     -19.946  50.746 -34.422  0.00  0.00    +0.000 HD
ENDBRANCH  17  21
ENDBRANCH  16  17
ENDBRANCH  14  15
ENDBRANCH  13  14
ENDBRANCH  10  12
ENDBRANCH   7   8
ENDBRANCH   4   6
BRANCH   3  23
ATOM     23  O   UNL     1     -16.638  57.445 -23.225  0.00  0.00    +0.000 OA
ATOM     24  H   UNL     1     -16.836  57.009 -24.074  0.00  0.00    +0.000 HD
ENDBRANCH   3  23
ENDBRANCH   2   3
BRANCH   1  25
ATOM     25  C   UNL     1     -15.585  57.475 -18.602  0.00  0.00    +0.000 C 
ATOM     26  C   UNL     1     -15.478  57.772 -17.445  0.00  0.00    +0.000 C 
BRANCH  26  27
ATOM     27  C   UNL     1     -15.345  58.138 -15.962  0.00  0.00    +0.000 C 
BRANCH  27  28
ATOM     28  N   UNL     1     -15.228  58.478 -14.660  0.00  0.00    +0.000 N 
ATOM     29  C   UNL     1     -14.101  58.527 -13.876  0.00  0.00    +0.000 C 
ATOM     30  O   UNL     1     -12.964  58.260 -14.239  0.00  0.00    +0.000 OA
ATOM     31  H   UNL     1     -16.101  58.736 -14.217  0.00  0.00    +0.000 HD
BRANCH  29  32
ATOM     32  C   UNL     1     -14.319  58.938 -12.510  0.00  0.00    +0.000 C 
ATOM     33  C   UNL     1     -14.514  59.298 -11.381  0.00  0.00    +0.000 C 
BRANCH  33  34
ATOM     34  C   UNL     1     -14.769  59.739 -10.025  0.00  0.00    +0.000 C 
ATOM     35  O   UNL     1     -14.402  60.868  -9.715  0.00  0.00    +0.000 OA
ATOM     36  N   UNL     1     -15.376  58.840  -9.165  0.00  0.00    +0.000 N 
BRANCH  36  37
ATOM     37  C   UNL     1     -15.861  59.006  -7.917  0.00  0.00    +0.000 C 
ATOM     38  C   UNL     1     -16.294  59.151  -6.807  0.00  0.00    +0.000 C 
BRANCH  38  39
ATOM     39  C   UNL     1     -16.854  59.336  -5.393  0.00  0.00    +0.000 C 
ATOM     40  C   UNL     1     -17.295  59.477  -4.286  0.00  0.00    +0.000 C 
BRANCH  40  41
ATOM     41  C   UNL     1     -17.859  59.652  -2.874  0.00  0.00    +0.000 C 
BRANCH  41  42
ATOM     42  N   UNL     1     -18.395  59.819  -1.533  0.00  0.00    +0.000 NA
ATOM     43  H   UNL     1     -19.331  60.219  -1.571  0.00  0.00    +0.000 HD
ATOM     44  H   UNL     1     -18.495  58.914  -1.075  0.00  0.00    +0.000 HD
ENDBRANCH  41  42
ENDBRANCH  40  41
ENDBRANCH  38  39
ENDBRANCH  36  37
BRANCH  36  45
ATOM     45  O   UNL     1     -15.923  57.665  -9.729  0.00  0.00    +0.000 OA
ATOM     46  H   UNL     1     -16.572  57.407  -9.049  0.00  0.00    +0.000 HD
ENDBRANCH  36  45
ENDBRANCH  33  34
ENDBRANCH  29  32
ENDBRANCH  27  28
ENDBRANCH  26  27
ENDBRANCH   1  25
TORSDOF 19
ENDMDL
MODEL 7
REMARK VINA RESULT:      -4.7      3.740     21.977
REMARK  Name = Deferoxamine.pdbqt.pdb
REMARK  19 active torsions:
REMARK  status: ('A' for Active; 'I' for Inactive)
REMARK    1  A    between atoms: C_1  and  C_2
REMARK    2  A    between atoms: C_3  and  C_4
REMARK    3  A    between atoms: C_4  and  N_5
REMARK    4  A    between atoms: C_6  and  C_9
REMARK    5  A    between atoms: C_10  and  C_11
REMARK    6  A    between atoms: N_13  and  O_14
REMARK    7  A    between atoms: N_13  and  C_16
REMARK    8  A    between atoms: C_17  and  C_18
REMARK    9  A    between atoms: C_19  and  C_20
REMARK   10  A    between atoms: C_20  and  N_21
REMARK   11  A    between atoms: C_24  and  N_25
REMARK   12  A    between atoms: N_25  and  O_28
REMARK   13  A    between atoms: C_26  and  C_30
REMARK   14  A    between atoms: C_31  and  C_32
REMARK   15  A    between atoms: N_34  and  C_36
REMARK   16  A    between atoms: C_37  and  C_38
REMARK   17  A    between atoms: C_38  and  C_39
REMARK   18  A    between atoms: C_40  and  N_41
REMARK   19  A    between atoms: N_41  and  O_45
REMARK                            x       y       z     vdW  Elec       q    Type
REMARK                         _______ _______ _______ _____ _____    ______ ____
ROOT
ATOM      1  C   UNL     1     -16.637  56.983 -21.843  0.00  0.00    +0.000 C 
ATOM      2  C   UNL     1     -16.648  56.486 -22.937  0.00  0.00    +0.000 C 
ENDROOT
BRANCH   2   3
ATOM      3  N   UNL     1     -16.663  55.928 -24.165  0.00  0.00    +0.000 N 
ATOM      4  C   UNL     1     -16.401  54.630 -24.570  0.00  0.00    +0.000 C 
ATOM      5  O   UNL     1     -15.922  53.756 -23.856  0.00  0.00    +0.000 OA
BRANCH   4   6
ATOM      6  C   UNL     1     -16.683  54.293 -25.950  0.00  0.00    +0.000 C 
ATOM      7  C   UNL     1     -16.929  54.018 -27.094  0.00  0.00    +0.000 C 
BRANCH   7   8
ATOM      8  C   UNL     1     -17.247  53.683 -28.460  0.00  0.00    +0.000 C 
ATOM      9  O   UNL     1     -16.336  53.526 -29.260  0.00  0.00    +0.000 OA
ATOM     10  N   UNL     1     -18.591  53.569 -28.738  0.00  0.00    +0.000 N 
ATOM     11  H   UNL     1     -19.222  53.726 -27.962  0.00  0.00    +0.000 HD
BRANCH  10  12
ATOM     12  C   UNL     1     -19.195  53.271 -29.908  0.00  0.00    +0.000 C 
ATOM     13  C   UNL     1     -19.729  53.010 -30.951  0.00  0.00    +0.000 C 
BRANCH  13  14
ATOM     14  C   UNL     1     -20.404  52.681 -32.286  0.00  0.00    +0.000 C 
BRANCH  14  15
ATOM     15  C   UNL     1     -21.070  52.353 -33.625  0.00  0.00    +0.000 C 
ATOM     16  C   UNL     1     -21.590  52.096 -34.676  0.00  0.00    +0.000 C 
BRANCH  16  17
ATOM     17  N   UNL     1     -22.167  51.806 -35.859  0.00  0.00    +0.000 N 
ATOM     18  C   UNL     1     -23.244  52.368 -36.503  0.00  0.00    +0.000 C 
ATOM     19  O   UNL     1     -23.964  53.291 -36.168  0.00  0.00    +0.000 OA
ATOM     20  C   UNL     1     -23.669  51.818 -37.842  0.00  0.00    +0.000 C 
BRANCH  17  21
ATOM     21  O   UNL     1     -21.479  50.722 -36.463  0.00  0.00    +0.000 OA
ATOM     22  H   UNL     1     -22.187  50.059 -36.601  0.00  0.00    +0.000 HD
ENDBRANCH  17  21
ENDBRANCH  16  17
ENDBRANCH  14  15
ENDBRANCH  13  14
ENDBRANCH  10  12
ENDBRANCH   7   8
ENDBRANCH   4   6
BRANCH   3  23
ATOM     23  O   UNL     1     -17.408  56.747 -25.043  0.00  0.00    +0.000 OA
ATOM     24  H   UNL     1     -17.543  56.148 -25.800  0.00  0.00    +0.000 HD
ENDBRANCH   3  23
ENDBRANCH   2   3
BRANCH   1  25
ATOM     25  C   UNL     1     -16.637  57.614 -20.448  0.00  0.00    +0.000 C 
ATOM     26  C   UNL     1     -16.624  58.106 -19.354  0.00  0.00    +0.000 C 
BRANCH  26  27
ATOM     27  C   UNL     1     -16.593  58.731 -17.955  0.00  0.00    +0.000 C 
BRANCH  27  28
ATOM     28  N   UNL     1     -16.551  59.271 -16.718  0.00  0.00    +0.000 N 
ATOM     29  C   UNL     1     -15.679  59.011 -15.688  0.00  0.00    +0.000 C 
ATOM     30  O   UNL     1     -14.755  58.211 -15.719  0.00  0.00    +0.000 OA
ATOM     31  H   UNL     1     -17.264  59.968 -16.544  0.00  0.00    +0.000 HD
BRANCH  29  32
ATOM     32  C   UNL     1     -15.906  59.769 -14.482  0.00  0.00    +0.000 C 
ATOM     33  C   UNL     1     -16.085  60.384 -13.465  0.00  0.00    +0.000 C 
BRANCH  33  34
ATOM     34  C   UNL     1     -16.282  61.115 -12.231  0.00  0.00    +0.000 C 
ATOM     35  O   UNL     1     -15.403  61.899 -11.887  0.00  0.00    +0.000 OA
ATOM     36  N   UNL     1     -17.432  60.847 -11.507  0.00  0.00    +0.000 N 
BRANCH  36  37
ATOM     37  C   UNL     1     -17.950  61.457 -10.421  0.00  0.00    +0.000 C 
ATOM     38  C   UNL     1     -18.414  61.999  -9.456  0.00  0.00    +0.000 C 
BRANCH  38  39
ATOM     39  C   UNL     1     -19.010  62.695  -8.228  0.00  0.00    +0.000 C 
ATOM     40  C   UNL     1     -19.481  63.242  -7.270  0.00  0.00    +0.000 C 
BRANCH  40  41
ATOM     41  C   UNL     1     -20.086  63.941  -6.049  0.00  0.00    +0.000 C 
BRANCH  41  42
ATOM     42  N   UNL     1     -20.659  64.605  -4.890  0.00  0.00    +0.000 NA
ATOM     43  H   UNL     1     -20.612  63.998  -4.074  0.00  0.00    +0.000 HD
ATOM     44  H   UNL     1     -20.120  65.436  -4.654  0.00  0.00    +0.000 HD
ENDBRANCH  41  42
ENDBRANCH  40  41
ENDBRANCH  38  39
ENDBRANCH  36  37
BRANCH  36  45
ATOM     45  O   UNL     1     -18.436  60.080 -12.140  0.00  0.00    +0.000 OA
ATOM     46  H   UNL     1     -18.686  59.463 -11.427  0.00  0.00    +0.000 HD
ENDBRANCH  36  45
ENDBRANCH  33  34
ENDBRANCH  29  32
ENDBRANCH  27  28
ENDBRANCH  26  27
ENDBRANCH   1  25
TORSDOF 19
ENDMDL
MODEL 8
REMARK VINA RESULT:      -4.7     23.229     23.995
REMARK  Name = Deferoxamine.pdbqt.pdb
REMARK  19 active torsions:
REMARK  status: ('A' for Active; 'I' for Inactive)
REMARK    1  A    between atoms: C_1  and  C_2
REMARK    2  A    between atoms: C_3  and  C_4
REMARK    3  A    between atoms: C_4  and  N_5
REMARK    4  A    between atoms: C_6  and  C_9
REMARK    5  A    between atoms: C_10  and  C_11
REMARK    6  A    between atoms: N_13  and  O_14
REMARK    7  A    between atoms: N_13  and  C_16
REMARK    8  A    between atoms: C_17  and  C_18
REMARK    9  A    between atoms: C_19  and  C_20
REMARK   10  A    between atoms: C_20  and  N_21
REMARK   11  A    between atoms: C_24  and  N_25
REMARK   12  A    between atoms: N_25  and  O_28
REMARK   13  A    between atoms: C_26  and  C_30
REMARK   14  A    between atoms: C_31  and  C_32
REMARK   15  A    between atoms: N_34  and  C_36
REMARK   16  A    between atoms: C_37  and  C_38
REMARK   17  A    between atoms: C_38  and  C_39
REMARK   18  A    between atoms: C_40  and  N_41
REMARK   19  A    between atoms: N_41  and  O_45
REMARK                            x       y       z     vdW  Elec       q    Type
REMARK                         _______ _______ _______ _____ _____    ______ ____
ROOT
ATOM      1  C   UNL     1     -34.146  45.044 -11.633  0.00  0.00    +0.000 C 
ATOM      2  C   UNL     1     -34.076  44.436 -10.599  0.00  0.00    +0.000 C 
ENDROOT
BRANCH   2   3
ATOM      3  N   UNL     1     -33.996  43.753  -9.439  0.00  0.00    +0.000 N 
ATOM      4  C   UNL     1     -34.768  43.828  -8.293  0.00  0.00    +0.000 C 
ATOM      5  O   UNL     1     -35.603  44.697  -8.066  0.00  0.00    +0.000 OA
BRANCH   4   6
ATOM      6  C   UNL     1     -34.546  42.824  -7.273  0.00  0.00    +0.000 C 
ATOM      7  C   UNL     1     -34.376  41.986  -6.428  0.00  0.00    +0.000 C 
BRANCH   7   8
ATOM      8  C   UNL     1     -34.194  40.982  -5.409  0.00  0.00    +0.000 C 
ATOM      9  O   UNL     1     -33.295  40.164  -5.536  0.00  0.00    +0.000 OA
ATOM     10  N   UNL     1     -35.080  41.048  -4.357  0.00  0.00    +0.000 N 
ATOM     11  H   UNL     1     -35.766  41.791  -4.397  0.00  0.00    +0.000 HD
BRANCH  10  12
ATOM     12  C   UNL     1     -35.163  40.258  -3.265  0.00  0.00    +0.000 C 
ATOM     13  C   UNL     1     -35.232  39.554  -2.295  0.00  0.00    +0.000 C 
BRANCH  13  14
ATOM     14  C   UNL     1     -35.310  38.657  -1.056  0.00  0.00    +0.000 C 
BRANCH  14  15
ATOM     15  C   UNL     1     -35.379  37.758   0.182  0.00  0.00    +0.000 C 
ATOM     16  C   UNL     1     -35.436  37.055   1.153  0.00  0.00    +0.000 C 
BRANCH  16  17
ATOM     17  N   UNL     1     -35.507  36.264   2.241  0.00  0.00    +0.000 N 
ATOM     18  C   UNL     1     -35.021  34.999   2.475  0.00  0.00    +0.000 C 
ATOM     19  O   UNL     1     -34.386  34.256   1.748  0.00  0.00    +0.000 OA
ATOM     20  C   UNL     1     -35.264  34.353   3.817  0.00  0.00    +0.000 C 
BRANCH  17  21
ATOM     21  O   UNL     1     -36.226  36.935   3.263  0.00  0.00    +0.000 OA
ATOM     22  H   UNL     1     -35.972  36.446   4.072  0.00  0.00    +0.000 HD
ENDBRANCH  17  21
ENDBRANCH  16  17
ENDBRANCH  14  15
ENDBRANCH  13  14
ENDBRANCH  10  12
ENDBRANCH   7   8
ENDBRANCH   4   6
BRANCH   3  23
ATOM     23  O   UNL     1     -33.237  42.578  -9.639  0.00  0.00    +0.000 OA
ATOM     24  H   UNL     1     -32.984  42.353  -8.724  0.00  0.00    +0.000 HD
ENDBRANCH   3  23
ENDBRANCH   2   3
BRANCH   1  25
ATOM     25  C   UNL     1     -34.233  45.805 -12.959  0.00  0.00    +0.000 C 
ATOM     26  C   UNL     1     -34.298  46.390 -14.005  0.00  0.00    +0.000 C 
BRANCH  26  27
ATOM     27  C   UNL     1     -34.380  47.124 -15.347  0.00  0.00    +0.000 C 
BRANCH  27  28
ATOM     28  N   UNL     1     -34.456  47.756 -16.539  0.00  0.00    +0.000 N 
ATOM     29  C   UNL     1     -35.209  48.850 -16.893  0.00  0.00    +0.000 C 
ATOM     30  O   UNL     1     -35.971  49.462 -16.158  0.00  0.00    +0.000 OA
ATOM     31  H   UNL     1     -33.864  47.360 -17.259  0.00  0.00    +0.000 HD
BRANCH  29  32
ATOM     32  C   UNL     1     -35.059  49.285 -18.260  0.00  0.00    +0.000 C 
ATOM     33  C   UNL     1     -34.957  49.647 -19.401  0.00  0.00    +0.000 C 
BRANCH  33  34
ATOM     34  C   UNL     1     -34.855  50.094 -20.775  0.00  0.00    +0.000 C 
ATOM     35  O   UNL     1     -34.837  51.304 -20.980  0.00  0.00    +0.000 OA
ATOM     36  N   UNL     1     -34.822  49.123 -21.761  0.00  0.00    +0.000 N 
BRANCH  36  37
ATOM     37  C   UNL     1     -34.591  49.223 -23.086  0.00  0.00    +0.000 C 
ATOM     38  C   UNL     1     -34.389  49.311 -24.266  0.00  0.00    +0.000 C 
BRANCH  38  39
ATOM     39  C   UNL     1     -34.135  49.418 -25.773  0.00  0.00    +0.000 C 
ATOM     40  C   UNL     1     -33.942  49.502 -26.954  0.00  0.00    +0.000 C 
BRANCH  40  41
ATOM     41  C   UNL     1     -33.699  49.608 -28.462  0.00  0.00    +0.000 C 
BRANCH  41  42
ATOM     42  N   UNL     1     -33.469  49.710 -29.894  0.00  0.00    +0.000 NA
ATOM     43  H   UNL     1     -33.973  48.976 -30.388  0.00  0.00    +0.000 HD
ATOM     44  H   UNL     1     -33.834  50.591 -30.251  0.00  0.00    +0.000 HD
ENDBRANCH  41  42
ENDBRANCH  40  41
ENDBRANCH  38  39
ENDBRANCH  36  37
BRANCH  36  45
ATOM     45  O   UNL     1     -34.639  47.783 -21.351  0.00  0.00    +0.000 OA
ATOM     46  H   UNL     1     -35.478  47.606 -20.889  0.00  0.00    +0.000 HD
ENDBRANCH  36  45
ENDBRANCH  33  34
ENDBRANCH  29  32
ENDBRANCH  27  28
ENDBRANCH  26  27
ENDBRANCH   1  25
TORSDOF 19
ENDMDL
MODEL 9
REMARK VINA RESULT:      -4.6      5.173     22.651
REMARK  Name = Deferoxamine.pdbqt.pdb
REMARK  19 active torsions:
REMARK  status: ('A' for Active; 'I' for Inactive)
REMARK    1  A    between atoms: C_1  and  C_2
REMARK    2  A    between atoms: C_3  and  C_4
REMARK    3  A    between atoms: C_4  and  N_5
REMARK    4  A    between atoms: C_6  and  C_9
REMARK    5  A    between atoms: C_10  and  C_11
REMARK    6  A    between atoms: N_13  and  O_14
REMARK    7  A    between atoms: N_13  and  C_16
REMARK    8  A    between atoms: C_17  and  C_18
REMARK    9  A    between atoms: C_19  and  C_20
REMARK   10  A    between atoms: C_20  and  N_21
REMARK   11  A    between atoms: C_24  and  N_25
REMARK   12  A    between atoms: N_25  and  O_28
REMARK   13  A    between atoms: C_26  and  C_30
REMARK   14  A    between atoms: C_31  and  C_32
REMARK   15  A    between atoms: N_34  and  C_36
REMARK   16  A    between atoms: C_37  and  C_38
REMARK   17  A    between atoms: C_38  and  C_39
REMARK   18  A    between atoms: C_40  and  N_41
REMARK   19  A    between atoms: N_41  and  O_45
REMARK                            x       y       z     vdW  Elec       q    Type
REMARK                         _______ _______ _______ _____ _____    ______ ____
ROOT
ATOM      1  C   UNL     1     -16.451  54.468 -24.934  0.00  0.00    +0.000 C 
ATOM      2  C   UNL     1     -16.839  54.342 -26.064  0.00  0.00    +0.000 C 
ENDROOT
BRANCH   2   3
ATOM      3  N   UNL     1     -17.277  54.200 -27.332  0.00  0.00    +0.000 N 
ATOM      4  C   UNL     1     -17.313  53.088 -28.155  0.00  0.00    +0.000 C 
ATOM      5  O   UNL     1     -16.766  52.018 -27.912  0.00  0.00    +0.000 OA
BRANCH   4   6
ATOM      6  C   UNL     1     -18.019  53.212 -29.414  0.00  0.00    +0.000 C 
ATOM      7  C   UNL     1     -18.599  53.328 -30.460  0.00  0.00    +0.000 C 
BRANCH   7   8
ATOM      8  C   UNL     1     -19.294  53.489 -31.713  0.00  0.00    +0.000 C 
ATOM      9  O   UNL     1     -18.762  54.129 -32.609  0.00  0.00    +0.000 OA
ATOM     10  N   UNL     1     -20.529  52.886 -31.780  0.00  0.00    +0.000 N 
ATOM     11  H   UNL     1     -20.828  52.386 -30.952  0.00  0.00    +0.000 HD
BRANCH  10  12
ATOM     12  C   UNL     1     -21.409  52.859 -32.804  0.00  0.00    +0.000 C 
ATOM     13  C   UNL     1     -22.195  52.839 -33.711  0.00  0.00    +0.000 C 
BRANCH  13  14
ATOM     14  C   UNL     1     -23.202  52.819 -34.865  0.00  0.00    +0.000 C 
BRANCH  14  15
ATOM     15  C   UNL     1     -24.213  52.808 -36.015  0.00  0.00    +0.000 C 
ATOM     16  C   UNL     1     -25.003  52.800 -36.919  0.00  0.00    +0.000 C 
BRANCH  16  17
ATOM     17  N   UNL     1     -25.885  52.790 -37.937  0.00  0.00    +0.000 N 
ATOM     18  C   UNL     1     -26.750  53.754 -38.396  0.00  0.00    +0.000 C 
ATOM     19  O   UNL     1     -26.944  54.888 -37.996  0.00  0.00    +0.000 OA
ATOM     20  C   UNL     1     -27.636  53.447 -39.578  0.00  0.00    +0.000 C 
BRANCH  17  21
ATOM     21  O   UNL     1     -25.842  51.526 -38.582  0.00  0.00    +0.000 OA
ATOM     22  H   UNL     1     -25.255  51.689 -39.350  0.00  0.00    +0.000 HD
ENDBRANCH  17  21
ENDBRANCH  16  17
ENDBRANCH  14  15
ENDBRANCH  13  14
ENDBRANCH  10  12
ENDBRANCH   7   8
ENDBRANCH   4   6
BRANCH   3  23
ATOM     23  O   UNL     1     -18.131  55.279 -27.656  0.00  0.00    +0.000 OA
ATOM     24  H   UNL     1     -18.960  55.007 -27.221  0.00  0.00    +0.000 HD
ENDBRANCH   3  23
ENDBRANCH   2   3
BRANCH   1  25
ATOM     25  C   UNL     1     -15.960  54.614 -23.491  0.00  0.00    +0.000 C 
ATOM     26  C   UNL     1     -15.578  54.715 -22.359  0.00  0.00    +0.000 C 
BRANCH  26  27
ATOM     27  C   UNL     1     -15.090  54.830 -20.910  0.00  0.00    +0.000 C 
BRANCH  27  28
ATOM     28  N   UNL     1     -14.646  54.919 -19.638  0.00  0.00    +0.000 N 
ATOM     29  C   UNL     1     -13.576  54.290 -19.047  0.00  0.00    +0.000 C 
ATOM     30  O   UNL     1     -12.812  53.510 -19.598  0.00  0.00    +0.000 OA
ATOM     31  H   UNL     1     -15.184  55.545 -19.052  0.00  0.00    +0.000 HD
BRANCH  29  32
ATOM     32  C   UNL     1     -13.367  54.606 -17.655  0.00  0.00    +0.000 C 
ATOM     33  C   UNL     1     -13.217  54.871 -16.493  0.00  0.00    +0.000 C 
BRANCH  33  34
ATOM     34  C   UNL     1     -13.056  55.179 -15.087  0.00  0.00    +0.000 C 
ATOM     35  O   UNL     1     -11.932  55.478 -14.695  0.00  0.00    +0.000 OA
ATOM     36  N   UNL     1     -14.176  55.077 -14.279  0.00  0.00    +0.000 N 
BRANCH  36  37
ATOM     37  C   UNL     1     -14.367  55.430 -12.991  0.00  0.00    +0.000 C 
ATOM     38  C   UNL     1     -14.534  55.741 -11.844  0.00  0.00    +0.000 C 
BRANCH  38  39
ATOM     39  C   UNL     1     -14.751  56.132 -10.379  0.00  0.00    +0.000 C 
ATOM     40  C   UNL     1     -14.922  56.443  -9.233  0.00  0.00    +0.000 C 
BRANCH  40  41
ATOM     41  C   UNL     1     -15.142  56.843  -7.771  0.00  0.00    +0.000 C 
BRANCH  41  42
ATOM     42  N   UNL     1     -15.350  57.223  -6.384  0.00  0.00    +0.000 NA
ATOM     43  H   UNL     1     -14.789  58.040  -6.151  0.00  0.00    +0.000 HD
ATOM     44  H   UNL     1     -16.320  57.495  -6.231  0.00  0.00    +0.000 HD
ENDBRANCH  41  42
ENDBRANCH  40  41
ENDBRANCH  38  39
ENDBRANCH  36  37
BRANCH  36  45
ATOM     45  O   UNL     1     -15.428  54.927 -14.916  0.00  0.00    +0.000 OA
ATOM     46  H   UNL     1     -15.296  54.097 -15.410  0.00  0.00    +0.000 HD
ENDBRANCH  36  45
ENDBRANCH  33  34
ENDBRANCH  29  32
ENDBRANCH  27  28
ENDBRANCH  26  27
ENDBRANCH   1  25
TORSDOF 19
ENDMDL
