MODEL 1
REMARK VINA RESULT:      -6.2      0.000      0.000
REMARK  Name = 
REMARK  25 active torsions:
REMARK  status: ('A' for Active; 'I' for Inactive)
REMARK    1  A    between atoms: O_2  and  C_17
REMARK    2  A    between atoms: O_2  and  C_36
REMARK    3  A    between atoms: O_3  and  C_20
REMARK    4  A    between atoms: O_3  and  C_37
REMARK    5  A    between atoms: O_4  and  C_21
REMARK    6  A    between atoms: O_5  and  C_22
REMARK    7  A    between atoms: O_7  and  C_30
REMARK    8  A    between atoms: O_8  and  C_31
REMARK    9  A    between atoms: O_8  and  C_39
REMARK   10  A    between atoms: O_12  and  C_41
REMARK   11  A    between atoms: O_13  and  C_51
REMARK   12  A    between atoms: O_13  and  C_55
REMARK   13  A    between atoms: N_15  and  C_44
REMARK   14  A    between atoms: C_18  and  C_29
REMARK   15  A    between atoms: C_24  and  C_33
REMARK   16  A    between atoms: C_24  and  C_34
REMARK   17  A    between atoms: C_32  and  C_35
REMARK   18  A    between atoms: C_36  and  C_38
REMARK   19  A    between atoms: C_37  and  C_40
REMARK   20  A    between atoms: C_39  and  C_41
REMARK   21  A    between atoms: C_41  and  C_44
REMARK   22  A    between atoms: C_44  and  C_48
REMARK   23  A    between atoms: C_55  and  C_56
REMARK   24  A    between atoms: C_55  and  C_57
REMARK   25  A    between atoms: C_55  and  C_58
REMARK                            x       y       z     vdW  Elec       q    Type
REMARK                         _______ _______ _______ _____ _____    ______ ____
ROOT
ATOM      1  O   UNL     1     -35.749  49.304 -21.054  0.00  0.00    +0.000 OA
ATOM      2  O   UNL     1     -40.868  45.995 -18.224  0.00  0.00    +0.000 OA
ATOM      3  C   UNL     1     -37.293  48.554 -18.069  0.00  0.00    +0.000 C 
ATOM      4  C   UNL     1     -36.119  48.527 -19.092  0.00  0.00    +0.000 C 
ATOM      5  C   UNL     1     -38.426  47.091 -18.488  0.00  0.00    +0.000 C 
ATOM      6  C   UNL     1     -36.967  48.884 -20.381  0.00  0.00    +0.000 C 
ATOM      7  C   UNL     1     -36.703  48.887 -16.332  0.00  0.00    +0.000 C 
ATOM      8  C   UNL     1     -37.342  49.044 -14.556  0.00  0.00    +0.000 C 
ATOM      9  C   UNL     1     -38.912  47.401 -19.964  0.00  0.00    +0.000 C 
ATOM     10  C   UNL     1     -37.783  47.758 -20.979  0.00  0.00    +0.000 C 
ATOM     11  C   UNL     1     -38.932  48.594 -13.907  0.00  0.00    +0.000 C 
ATOM     12  C   UNL     1     -35.271  49.709 -19.711  0.00  0.00    +0.000 C 
ATOM     13  C   UNL     1     -39.942  46.492 -17.546  0.00  0.00    +0.000 C 
ATOM     14  C   UNL     1     -36.403  48.090 -13.684  0.00  0.00    +0.000 C 
ATOM     15  C   UNL     1     -39.305  47.078 -14.258  0.00  0.00    +0.000 C 
ATOM     16  C   UNL     1     -37.623  45.732 -18.647  0.00  0.00    +0.000 C 
ATOM     17  C   UNL     1     -40.272  46.533 -15.656  0.00  0.00    +0.000 C 
ATOM     18  C   UNL     1     -36.927  46.617 -13.360  0.00  0.00    +0.000 C 
ATOM     19  C   UNL     1     -38.398  46.196 -13.717  0.00  0.00    +0.000 C 
ATOM     20  C   UNL     1     -38.831  48.690 -12.302  0.00  0.00    +0.000 C 
ATOM     21  C   UNL     1     -40.120  49.601 -14.027  0.00  0.00    +0.000 C 
ATOM     22  C   UNL     1     -38.641  44.708 -13.678  0.00  0.00    +0.000 C 
ENDROOT
BRANCH  17  23
ATOM     23  O   UNL     1     -41.613  46.908 -15.340  0.00  0.00    +0.000 OA
ATOM     24  H   UNL     1     -41.563  47.285 -14.441  0.00  0.00    +0.000 HD
ENDBRANCH  17  23
BRANCH   9  25
ATOM     25  O   UNL     1     -39.801  48.518 -19.927  0.00  0.00    +0.000 OA
ATOM     26  H   UNL     1     -40.704  48.161 -19.851  0.00  0.00    +0.000 HD
ENDBRANCH   9  25
BRANCH   8  27
ATOM     27  O   UNL     1     -37.025  50.397 -14.174  0.00  0.00    +0.000 OA
ATOM     28  H   UNL     1     -36.060  50.483 -14.077  0.00  0.00    +0.000 HD
ENDBRANCH   8  27
BRANCH  18  29
ATOM     29  O   UNL     1     -36.045  45.677 -14.039  0.00  0.00    +0.000 OA
BRANCH  29  31
ATOM     30  O   UNL     1     -35.505  43.575 -13.413  0.00  0.00    +0.000 OA
ATOM     31  C   UNL     1     -35.364  44.785 -13.276  0.00  0.00    +0.000 C 
BRANCH  31  32
ATOM     32  C   UNL     1     -34.544  45.397 -12.135  0.00  0.00    +0.000 C 
BRANCH  32  33
ATOM     33  O   UNL     1     -33.122  45.349 -12.304  0.00  0.00    +0.000 OA
ATOM     34  H   UNL     1     -32.968  45.259 -13.264  0.00  0.00    +0.000 HD
ENDBRANCH  32  33
BRANCH  32  35
ATOM     35  C   UNL     1     -34.981  44.731 -10.803  0.00  0.00    +0.000 C 
BRANCH  35  36
ATOM     36  C   UNL     1     -36.213  45.391 -10.193  0.00  0.00    +0.000 A 
ATOM     37  C   UNL     1     -36.115  46.688  -9.666  0.00  0.00    +0.000 A 
ATOM     38  C   UNL     1     -37.465  44.753 -10.175  0.00  0.00    +0.000 A 
ATOM     39  C   UNL     1     -37.230  47.320  -9.111  0.00  0.00    +0.000 A 
ATOM     40  C   UNL     1     -38.578  45.387  -9.619  0.00  0.00    +0.000 A 
ATOM     41  C   UNL     1     -38.460  46.668  -9.085  0.00  0.00    +0.000 A 
ENDBRANCH  35  36
BRANCH  35  43
ATOM     42  O   UNL     1     -34.358  42.736  -8.831  0.00  0.00    +0.000 OA
ATOM     43  N   UNL     1     -33.906  44.747  -9.821  0.00  0.00    +0.000 N 
ATOM     44  C   UNL     1     -33.762  43.800  -8.860  0.00  0.00    +0.000 C 
ATOM     45  H   UNL     1     -33.438  45.628  -9.655  0.00  0.00    +0.000 HD
BRANCH  44  46
ATOM     46  O   UNL     1     -32.836  44.223  -7.973  0.00  0.00    +0.000 OA
BRANCH  46  47
ATOM     47  C   UNL     1     -33.225  45.003  -6.812  0.00  0.00    +0.000 C 
ATOM     48  C   UNL     1     -32.458  44.562  -5.560  0.00  0.00    +0.000 C 
ATOM     49  C   UNL     1     -32.815  46.443  -7.156  0.00  0.00    +0.000 C 
ATOM     50  C   UNL     1     -34.742  44.962  -6.599  0.00  0.00    +0.000 C 
ENDBRANCH  46  47
ENDBRANCH  44  46
ENDBRANCH  35  43
ENDBRANCH  32  35
ENDBRANCH  31  32
ENDBRANCH  29  31
ENDBRANCH  18  29
BRANCH   7  51
ATOM     51  O   UNL     1     -36.678  47.579 -16.184  0.00  0.00    +0.000 OA
BRANCH  51  53
ATOM     52  O   UNL     1     -35.077  48.790 -16.227  0.00  0.00    +0.000 OA
ATOM     53  C   UNL     1     -35.305  47.587 -16.143  0.00  0.00    +0.000 C 
BRANCH  53  54
ATOM     54  C   UNL     1     -34.218  46.015 -16.262  0.00  0.00    +0.000 A 
ATOM     55  C   UNL     1     -34.615  44.756 -16.894  0.00  0.00    +0.000 A 
ATOM     56  C   UNL     1     -32.847  45.875 -15.886  0.00  0.00    +0.000 A 
ATOM     57  C   UNL     1     -33.810  43.606 -17.101  0.00  0.00    +0.000 A 
ATOM     58  C   UNL     1     -32.022  44.729 -16.085  0.00  0.00    +0.000 A 
ATOM     59  C   UNL     1     -32.502  43.594 -16.692  0.00  0.00    +0.000 A 
ENDBRANCH  53  54
ENDBRANCH  51  53
ENDBRANCH   7  51
BRANCH   4  60
ATOM     60  O   UNL     1     -35.465  47.238 -19.148  0.00  0.00    +0.000 OA
BRANCH  60  62
ATOM     61  O   UNL     1     -33.252  47.552 -19.047  0.00  0.00    +0.000 OA
ATOM     62  C   UNL     1     -34.212  47.040 -19.620  0.00  0.00    +0.000 C 
ATOM     63  C   UNL     1     -34.029  46.295 -20.904  0.00  0.00    +0.000 C 
ENDBRANCH  60  62
ENDBRANCH   4  60
TORSDOF 17
ENDMDL
MODEL 2
REMARK VINA RESULT:      -6.1     19.198     23.614
REMARK  Name = 
REMARK  25 active torsions:
REMARK  status: ('A' for Active; 'I' for Inactive)
REMARK    1  A    between atoms: O_2  and  C_17
REMARK    2  A    between atoms: O_2  and  C_36
REMARK    3  A    between atoms: O_3  and  C_20
REMARK    4  A    between atoms: O_3  and  C_37
REMARK    5  A    between atoms: O_4  and  C_21
REMARK    6  A    between atoms: O_5  and  C_22
REMARK    7  A    between atoms: O_7  and  C_30
REMARK    8  A    between atoms: O_8  and  C_31
REMARK    9  A    between atoms: O_8  and  C_39
REMARK   10  A    between atoms: O_12  and  C_41
REMARK   11  A    between atoms: O_13  and  C_51
REMARK   12  A    between atoms: O_13  and  C_55
REMARK   13  A    between atoms: N_15  and  C_44
REMARK   14  A    between atoms: C_18  and  C_29
REMARK   15  A    between atoms: C_24  and  C_33
REMARK   16  A    between atoms: C_24  and  C_34
REMARK   17  A    between atoms: C_32  and  C_35
REMARK   18  A    between atoms: C_36  and  C_38
REMARK   19  A    between atoms: C_37  and  C_40
REMARK   20  A    between atoms: C_39  and  C_41
REMARK   21  A    between atoms: C_41  and  C_44
REMARK   22  A    between atoms: C_44  and  C_48
REMARK   23  A    between atoms: C_55  and  C_56
REMARK   24  A    between atoms: C_55  and  C_57
REMARK   25  A    between atoms: C_55  and  C_58
REMARK                            x       y       z     vdW  Elec       q    Type
REMARK                         _______ _______ _______ _____ _____    ______ ____
ROOT
ATOM      1  O   UNL     1     -29.647  65.253 -21.012  0.00  0.00    +0.000 OA
ATOM      2  O   UNL     1     -33.403  66.148 -26.512  0.00  0.00    +0.000 OA
ATOM      3  C   UNL     1     -30.791  63.762 -23.898  0.00  0.00    +0.000 C 
ATOM      4  C   UNL     1     -29.698  64.336 -22.948  0.00  0.00    +0.000 C 
ATOM      5  C   UNL     1     -31.429  65.210 -24.946  0.00  0.00    +0.000 C 
ATOM      6  C   UNL     1     -30.654  65.233 -22.061  0.00  0.00    +0.000 C 
ATOM      7  C   UNL     1     -30.280  62.138 -24.656  0.00  0.00    +0.000 C 
ATOM      8  C   UNL     1     -30.881  60.818 -25.875  0.00  0.00    +0.000 C 
ATOM      9  C   UNL     1     -32.032  66.213 -23.877  0.00  0.00    +0.000 C 
ATOM     10  C   UNL     1     -31.100  66.545 -22.671  0.00  0.00    +0.000 C 
ATOM     11  C   UNL     1     -32.233  60.903 -27.022  0.00  0.00    +0.000 C 
ATOM     12  C   UNL     1     -29.276  63.899 -21.489  0.00  0.00    +0.000 C 
ATOM     13  C   UNL     1     -32.656  65.155 -26.373  0.00  0.00    +0.000 C 
ATOM     14  C   UNL     1     -29.666  60.596 -26.889  0.00  0.00    +0.000 C 
ATOM     15  C   UNL     1     -32.129  62.195 -27.961  0.00  0.00    +0.000 C 
ATOM     16  C   UNL     1     -30.250  66.045 -25.603  0.00  0.00    +0.000 C 
ATOM     17  C   UNL     1     -32.924  63.768 -27.671  0.00  0.00    +0.000 C 
ATOM     18  C   UNL     1     -29.700  61.380 -28.279  0.00  0.00    +0.000 C 
ATOM     19  C   UNL     1     -30.979  62.182 -28.713  0.00  0.00    +0.000 C 
ATOM     20  C   UNL     1     -32.117  59.617 -27.984  0.00  0.00    +0.000 C 
ATOM     21  C   UNL     1     -33.677  60.571 -26.527  0.00  0.00    +0.000 C 
ATOM     22  C   UNL     1     -30.748  63.140 -29.856  0.00  0.00    +0.000 C 
ENDROOT
BRANCH  17  23
ATOM     23  O   UNL     1     -34.305  63.536 -27.951  0.00  0.00    +0.000 OA
ATOM     24  H   UNL     1     -34.356  63.465 -28.923  0.00  0.00    +0.000 HD
ENDBRANCH  17  23
BRANCH   9  25
ATOM     25  O   UNL     1     -33.221  65.638 -23.333  0.00  0.00    +0.000 OA
ATOM     26  H   UNL     1     -32.974  65.216 -22.490  0.00  0.00    +0.000 HD
ENDBRANCH   9  25
BRANCH   8  27
ATOM     27  O   UNL     1     -30.986  59.617 -25.086  0.00  0.00    +0.000 OA
ATOM     28  H   UNL     1     -31.712  59.069 -25.434  0.00  0.00    +0.000 HD
ENDBRANCH   8  27
BRANCH  18  29
ATOM     29  O   UNL     1     -28.592  62.326 -28.277  0.00  0.00    +0.000 OA
BRANCH  29  31
ATOM     30  O   UNL     1     -26.770  62.946 -29.460  0.00  0.00    +0.000 OA
ATOM     31  C   UNL     1     -27.535  62.064 -29.087  0.00  0.00    +0.000 C 
BRANCH  31  32
ATOM     32  C   UNL     1     -27.468  60.631 -29.627  0.00  0.00    +0.000 C 
BRANCH  32  33
ATOM     33  O   UNL     1     -26.204  59.975 -29.478  0.00  0.00    +0.000 OA
ATOM     34  H   UNL     1     -25.685  60.526 -28.862  0.00  0.00    +0.000 HD
ENDBRANCH  32  33
BRANCH  32  35
ATOM     35  C   UNL     1     -27.933  60.642 -31.108  0.00  0.00    +0.000 C 
BRANCH  35  36
ATOM     36  C   UNL     1     -28.608  59.339 -31.522  0.00  0.00    +0.000 A 
ATOM     37  C   UNL     1     -29.769  58.917 -30.852  0.00  0.00    +0.000 A 
ATOM     38  C   UNL     1     -28.127  58.557 -32.585  0.00  0.00    +0.000 A 
ATOM     39  C   UNL     1     -30.414  57.734 -31.218  0.00  0.00    +0.000 A 
ATOM     40  C   UNL     1     -28.773  57.374 -32.948  0.00  0.00    +0.000 A 
ATOM     41  C   UNL     1     -29.914  56.962 -32.263  0.00  0.00    +0.000 A 
ENDBRANCH  35  36
BRANCH  35  43
ATOM     42  O   UNL     1     -27.484  62.966 -32.738  0.00  0.00    +0.000 OA
ATOM     43  N   UNL     1     -26.821  60.902 -32.013  0.00  0.00    +0.000 N 
ATOM     44  C   UNL     1     -26.757  61.990 -32.820  0.00  0.00    +0.000 C 
ATOM     45  H   UNL     1     -26.236  60.118 -32.271  0.00  0.00    +0.000 HD
BRANCH  44  46
ATOM     46  O   UNL     1     -25.746  61.818 -33.698  0.00  0.00    +0.000 OA
BRANCH  46  47
ATOM     47  C   UNL     1     -26.012  61.680 -35.118  0.00  0.00    +0.000 C 
ATOM     48  C   UNL     1     -26.019  63.043 -35.820  0.00  0.00    +0.000 C 
ATOM     49  C   UNL     1     -24.833  60.856 -35.657  0.00  0.00    +0.000 C 
ATOM     50  C   UNL     1     -27.309  60.902 -35.366  0.00  0.00    +0.000 C 
ENDBRANCH  46  47
ENDBRANCH  44  46
ENDBRANCH  35  43
ENDBRANCH  32  35
ENDBRANCH  31  32
ENDBRANCH  29  31
ENDBRANCH  18  29
BRANCH   7  51
ATOM     51  O   UNL     1     -29.847  62.850 -25.675  0.00  0.00    +0.000 OA
BRANCH  51  53
ATOM     52  O   UNL     1     -28.696  61.831 -24.385  0.00  0.00    +0.000 OA
ATOM     53  C   UNL     1     -28.543  62.618 -25.313  0.00  0.00    +0.000 C 
BRANCH  53  54
ATOM     54  C   UNL     1     -27.049  63.615 -25.981  0.00  0.00    +0.000 A 
ATOM     55  C   UNL     1     -25.670  63.129 -26.053  0.00  0.00    +0.000 A 
ATOM     56  C   UNL     1     -27.072  64.893 -26.618  0.00  0.00    +0.000 A 
ATOM     57  C   UNL     1     -24.557  63.787 -26.634  0.00  0.00    +0.000 A 
ATOM     58  C   UNL     1     -25.965  65.570 -27.209  0.00  0.00    +0.000 A 
ATOM     59  C   UNL     1     -24.707  65.018 -27.218  0.00  0.00    +0.000 A 
ENDBRANCH  53  54
ENDBRANCH  51  53
ENDBRANCH   7  51
BRANCH   4  60
ATOM     60  O   UNL     1     -28.680  65.076 -23.662  0.00  0.00    +0.000 OA
BRANCH  60  62
ATOM     61  O   UNL     1     -26.660  64.627 -22.809  0.00  0.00    +0.000 OA
ATOM     62  C   UNL     1     -27.503  65.466 -23.119  0.00  0.00    +0.000 C 
ATOM     63  C   UNL     1     -27.298  66.913 -22.796  0.00  0.00    +0.000 C 
ENDBRANCH  60  62
ENDBRANCH   4  60
TORSDOF 17
ENDMDL
MODEL 3
REMARK VINA RESULT:      -5.9      4.462      9.944
REMARK  Name = 
REMARK  25 active torsions:
REMARK  status: ('A' for Active; 'I' for Inactive)
REMARK    1  A    between atoms: O_2  and  C_17
REMARK    2  A    between atoms: O_2  and  C_36
REMARK    3  A    between atoms: O_3  and  C_20
REMARK    4  A    between atoms: O_3  and  C_37
REMARK    5  A    between atoms: O_4  and  C_21
REMARK    6  A    between atoms: O_5  and  C_22
REMARK    7  A    between atoms: O_7  and  C_30
REMARK    8  A    between atoms: O_8  and  C_31
REMARK    9  A    between atoms: O_8  and  C_39
REMARK   10  A    between atoms: O_12  and  C_41
REMARK   11  A    between atoms: O_13  and  C_51
REMARK   12  A    between atoms: O_13  and  C_55
REMARK   13  A    between atoms: N_15  and  C_44
REMARK   14  A    between atoms: C_18  and  C_29
REMARK   15  A    between atoms: C_24  and  C_33
REMARK   16  A    between atoms: C_24  and  C_34
REMARK   17  A    between atoms: C_32  and  C_35
REMARK   18  A    between atoms: C_36  and  C_38
REMARK   19  A    between atoms: C_37  and  C_40
REMARK   20  A    between atoms: C_39  and  C_41
REMARK   21  A    between atoms: C_41  and  C_44
REMARK   22  A    between atoms: C_44  and  C_48
REMARK   23  A    between atoms: C_55  and  C_56
REMARK   24  A    between atoms: C_55  and  C_57
REMARK   25  A    between atoms: C_55  and  C_58
REMARK                            x       y       z     vdW  Elec       q    Type
REMARK                         _______ _______ _______ _____ _____    ______ ____
ROOT
ATOM      1  O   UNL     1     -33.604  45.730 -15.792  0.00  0.00    +0.000 OA
ATOM      2  O   UNL     1     -37.973  44.837 -20.819  0.00  0.00    +0.000 OA
ATOM      3  C   UNL     1     -35.190  47.269 -18.433  0.00  0.00    +0.000 C 
ATOM      4  C   UNL     1     -34.859  47.044 -16.928  0.00  0.00    +0.000 C 
ATOM      5  C   UNL     1     -36.614  46.092 -18.867  0.00  0.00    +0.000 C 
ATOM      6  C   UNL     1     -34.289  45.573 -17.065  0.00  0.00    +0.000 C 
ATOM      7  C   UNL     1     -35.226  49.078 -18.881  0.00  0.00    +0.000 C 
ATOM      8  C   UNL     1     -35.560  50.234 -20.344  0.00  0.00    +0.000 C 
ATOM      9  C   UNL     1     -36.010  44.652 -18.596  0.00  0.00    +0.000 C 
ATOM     10  C   UNL     1     -35.313  44.469 -17.213  0.00  0.00    +0.000 C 
ATOM     11  C   UNL     1     -36.304  49.853 -21.910  0.00  0.00    +0.000 C 
ATOM     12  C   UNL     1     -33.487  47.164 -16.151  0.00  0.00    +0.000 C 
ATOM     13  C   UNL     1     -37.564  45.972 -20.488  0.00  0.00    +0.000 C 
ATOM     14  C   UNL     1     -36.599  51.318 -19.796  0.00  0.00    +0.000 C 
ATOM     15  C   UNL     1     -37.722  49.133 -21.730  0.00  0.00    +0.000 C 
ATOM     16  C   UNL     1     -37.811  46.184 -17.830  0.00  0.00    +0.000 C 
ATOM     17  C   UNL     1     -38.008  47.370 -21.724  0.00  0.00    +0.000 C 
ATOM     18  C   UNL     1     -38.150  51.083 -20.092  0.00  0.00    +0.000 C 
ATOM     19  C   UNL     1     -38.614  49.934 -21.058  0.00  0.00    +0.000 C 
ATOM     20  C   UNL     1     -36.584  51.255 -22.652  0.00  0.00    +0.000 C 
ATOM     21  C   UNL     1     -35.417  49.269 -23.055  0.00  0.00    +0.000 C 
ATOM     22  C   UNL     1     -40.085  49.611 -20.971  0.00  0.00    +0.000 C 
ENDROOT
BRANCH  17  23
ATOM     23  O   UNL     1     -37.851  46.971 -23.086  0.00  0.00    +0.000 OA
ATOM     24  H   UNL     1     -37.387  46.114 -23.045  0.00  0.00    +0.000 HD
ENDBRANCH  17  23
BRANCH   9  25
ATOM     25  O   UNL     1     -35.025  44.376 -19.594  0.00  0.00    +0.000 OA
ATOM     26  H   UNL     1     -34.933  45.181 -20.134  0.00  0.00    +0.000 HD
ENDBRANCH   9  25
BRANCH   8  27
ATOM     27  O   UNL     1     -34.313  50.926 -20.552  0.00  0.00    +0.000 OA
ATOM     28  H   UNL     1     -33.894  50.591 -21.364  0.00  0.00    +0.000 HD
ENDBRANCH   8  27
BRANCH  18  29
ATOM     29  O   UNL     1     -38.811  50.849 -18.814  0.00  0.00    +0.000 OA
BRANCH  29  31
ATOM     30  O   UNL     1     -40.602  51.786 -17.806  0.00  0.00    +0.000 OA
ATOM     31  C   UNL     1     -39.459  51.893 -18.238  0.00  0.00    +0.000 C 
BRANCH  31  32
ATOM     32  C   UNL     1     -38.729  53.238 -18.318  0.00  0.00    +0.000 C 
BRANCH  32  33
ATOM     33  O   UNL     1     -38.083  53.660 -17.112  0.00  0.00    +0.000 OA
ATOM     34  H   UNL     1     -38.112  52.895 -16.508  0.00  0.00    +0.000 HD
ENDBRANCH  32  33
BRANCH  32  35
ATOM     35  C   UNL     1     -39.727  54.308 -18.835  0.00  0.00    +0.000 C 
BRANCH  35  36
ATOM     36  C   UNL     1     -39.143  55.165 -19.953  0.00  0.00    +0.000 A 
ATOM     37  C   UNL     1     -39.083  56.559 -19.799  0.00  0.00    +0.000 A 
ATOM     38  C   UNL     1     -38.623  54.598 -21.129  0.00  0.00    +0.000 A 
ATOM     39  C   UNL     1     -38.543  57.367 -20.802  0.00  0.00    +0.000 A 
ATOM     40  C   UNL     1     -38.084  55.408 -22.131  0.00  0.00    +0.000 A 
ATOM     41  C   UNL     1     -38.047  56.791 -21.969  0.00  0.00    +0.000 A 
ENDBRANCH  35  36
BRANCH  35  43
ATOM     42  O   UNL     1     -42.367  54.538 -17.724  0.00  0.00    +0.000 OA
ATOM     43  N   UNL     1     -40.175  55.183 -17.759  0.00  0.00    +0.000 N 
ATOM     44  C   UNL     1     -41.473  55.291 -17.379  0.00  0.00    +0.000 C 
ATOM     45  H   UNL     1     -39.566  55.945 -17.492  0.00  0.00    +0.000 HD
BRANCH  44  46
ATOM     46  O   UNL     1     -41.591  56.344 -16.543  0.00  0.00    +0.000 OA
BRANCH  46  47
ATOM     47  C   UNL     1     -41.893  56.145 -15.138  0.00  0.00    +0.000 C 
ATOM     48  C   UNL     1     -41.076  54.991 -14.548  0.00  0.00    +0.000 C 
ATOM     49  C   UNL     1     -41.459  57.452 -14.457  0.00  0.00    +0.000 C 
ATOM     50  C   UNL     1     -43.398  55.953 -14.916  0.00  0.00    +0.000 C 
ENDBRANCH  46  47
ENDBRANCH  44  46
ENDBRANCH  35  43
ENDBRANCH  32  35
ENDBRANCH  31  32
ENDBRANCH  29  31
ENDBRANCH  18  29
BRANCH   7  51
ATOM     51  O   UNL     1     -36.523  49.016 -18.662  0.00  0.00    +0.000 OA
BRANCH  51  53
ATOM     52  O   UNL     1     -35.196  50.034 -17.551  0.00  0.00    +0.000 OA
ATOM     53  C   UNL     1     -36.382  49.727 -17.495  0.00  0.00    +0.000 C 
BRANCH  53  54
ATOM     54  C   UNL     1     -37.715  49.811 -16.122  0.00  0.00    +0.000 A 
ATOM     55  C   UNL     1     -38.923  48.987 -16.062  0.00  0.00    +0.000 A 
ATOM     56  C   UNL     1     -37.670  50.569 -14.912  0.00  0.00    +0.000 A 
ATOM     57  C   UNL     1     -39.879  48.938 -15.016  0.00  0.00    +0.000 A 
ATOM     58  C   UNL     1     -38.620  50.534 -13.850  0.00  0.00    +0.000 A 
ATOM     59  C   UNL     1     -39.725  49.719 -13.899  0.00  0.00    +0.000 A 
ENDBRANCH  53  54
ENDBRANCH  51  53
ENDBRANCH   7  51
BRANCH   4  60
ATOM     60  O   UNL     1     -36.028  47.153 -16.082  0.00  0.00    +0.000 OA
BRANCH  60  62
ATOM     61  O   UNL     1     -35.366  48.192 -14.214  0.00  0.00    +0.000 OA
ATOM     62  C   UNL     1     -35.984  47.265 -14.734  0.00  0.00    +0.000 C 
ATOM     63  C   UNL     1     -36.593  46.185 -13.897  0.00  0.00    +0.000 C 
ENDBRANCH  60  62
ENDBRANCH   4  60
TORSDOF 17
ENDMDL
MODEL 4
REMARK VINA RESULT:      -5.9      3.044      7.297
REMARK  Name = 
REMARK  25 active torsions:
REMARK  status: ('A' for Active; 'I' for Inactive)
REMARK    1  A    between atoms: O_2  and  C_17
REMARK    2  A    between atoms: O_2  and  C_36
REMARK    3  A    between atoms: O_3  and  C_20
REMARK    4  A    between atoms: O_3  and  C_37
REMARK    5  A    between atoms: O_4  and  C_21
REMARK    6  A    between atoms: O_5  and  C_22
REMARK    7  A    between atoms: O_7  and  C_30
REMARK    8  A    between atoms: O_8  and  C_31
REMARK    9  A    between atoms: O_8  and  C_39
REMARK   10  A    between atoms: O_12  and  C_41
REMARK   11  A    between atoms: O_13  and  C_51
REMARK   12  A    between atoms: O_13  and  C_55
REMARK   13  A    between atoms: N_15  and  C_44
REMARK   14  A    between atoms: C_18  and  C_29
REMARK   15  A    between atoms: C_24  and  C_33
REMARK   16  A    between atoms: C_24  and  C_34
REMARK   17  A    between atoms: C_32  and  C_35
REMARK   18  A    between atoms: C_36  and  C_38
REMARK   19  A    between atoms: C_37  and  C_40
REMARK   20  A    between atoms: C_39  and  C_41
REMARK   21  A    between atoms: C_41  and  C_44
REMARK   22  A    between atoms: C_44  and  C_48
REMARK   23  A    between atoms: C_55  and  C_56
REMARK   24  A    between atoms: C_55  and  C_57
REMARK   25  A    between atoms: C_55  and  C_58
REMARK                            x       y       z     vdW  Elec       q    Type
REMARK                         _______ _______ _______ _____ _____    ______ ____
ROOT
ATOM      1  O   UNL     1     -30.978  43.487 -15.557  0.00  0.00    +0.000 OA
ATOM      2  O   UNL     1     -35.671  43.520 -20.367  0.00  0.00    +0.000 OA
ATOM      3  C   UNL     1     -33.150  45.477 -17.340  0.00  0.00    +0.000 C 
ATOM      4  C   UNL     1     -32.598  44.800 -16.051  0.00  0.00    +0.000 C 
ATOM      5  C   UNL     1     -34.357  44.249 -18.137  0.00  0.00    +0.000 C 
ATOM      6  C   UNL     1     -31.771  43.654 -16.765  0.00  0.00    +0.000 C 
ATOM      7  C   UNL     1     -33.597  47.265 -17.058  0.00  0.00    +0.000 C 
ATOM      8  C   UNL     1     -34.330  48.767 -17.949  0.00  0.00    +0.000 C 
ATOM      9  C   UNL     1     -33.451  42.990 -18.464  0.00  0.00    +0.000 C 
ATOM     10  C   UNL     1     -32.567  42.477 -17.286  0.00  0.00    +0.000 C 
ATOM     11  C   UNL     1     -35.171  48.826 -19.511  0.00  0.00    +0.000 C 
ATOM     12  C   UNL     1     -31.191  44.938 -15.342  0.00  0.00    +0.000 C 
ATOM     13  C   UNL     1     -35.457  44.515 -19.641  0.00  0.00    +0.000 C 
ATOM     14  C   UNL     1     -35.486  49.306 -16.987  0.00  0.00    +0.000 C 
ATOM     15  C   UNL     1     -36.386  47.785 -19.566  0.00  0.00    +0.000 C 
ATOM     16  C   UNL     1     -35.411  43.678 -17.098  0.00  0.00    +0.000 C 
ATOM     17  C   UNL     1     -36.316  46.128 -20.227  0.00  0.00    +0.000 C 
ATOM     18  C   UNL     1     -36.985  48.846 -17.290  0.00  0.00    +0.000 C 
ATOM     19  C   UNL     1     -37.329  48.058 -18.604  0.00  0.00    +0.000 C 
ATOM     20  C   UNL     1     -35.812  50.297 -19.647  0.00  0.00    +0.000 C 
ATOM     21  C   UNL     1     -34.335  48.922 -20.827  0.00  0.00    +0.000 C 
ATOM     22  C   UNL     1     -38.686  47.397 -18.590  0.00  0.00    +0.000 C 
ENDROOT
BRANCH  17  23
ATOM     23  O   UNL     1     -36.253  46.302 -21.643  0.00  0.00    +0.000 OA
ATOM     24  H   UNL     1     -35.871  45.471 -21.982  0.00  0.00    +0.000 HD
ENDBRANCH  17  23
BRANCH   9  25
ATOM     25  O   UNL     1     -32.562  43.331 -19.529  0.00  0.00    +0.000 OA
ATOM     26  H   UNL     1     -31.666  43.370 -19.150  0.00  0.00    +0.000 HD
ENDBRANCH   9  25
BRANCH   8  27
ATOM     27  O   UNL     1     -33.279  49.753 -17.924  0.00  0.00    +0.000 OA
ATOM     28  H   UNL     1     -33.673  50.637 -17.823  0.00  0.00    +0.000 HD
ENDBRANCH   8  27
BRANCH  18  29
ATOM     29  O   UNL     1     -37.425  48.017 -16.175  0.00  0.00    +0.000 OA
BRANCH  29  31
ATOM     30  O   UNL     1     -39.054  47.954 -14.613  0.00  0.00    +0.000 OA
ATOM     31  C   UNL     1     -38.208  48.593 -15.230  0.00  0.00    +0.000 C 
BRANCH  31  32
ATOM     32  C   UNL     1     -38.073  50.115 -15.110  0.00  0.00    +0.000 C 
BRANCH  32  33
ATOM     33  O   UNL     1     -37.091  50.574 -14.175  0.00  0.00    +0.000 OA
ATOM     34  H   UNL     1     -36.360  50.939 -14.709  0.00  0.00    +0.000 HD
ENDBRANCH  32  33
BRANCH  32  35
ATOM     35  C   UNL     1     -39.474  50.709 -14.802  0.00  0.00    +0.000 C 
BRANCH  35  36
ATOM     36  C   UNL     1     -39.695  52.065 -15.464  0.00  0.00    +0.000 A 
ATOM     37  C   UNL     1     -40.655  52.945 -14.938  0.00  0.00    +0.000 A 
ATOM     38  C   UNL     1     -38.939  52.483 -16.572  0.00  0.00    +0.000 A 
ATOM     39  C   UNL     1     -40.870  54.197 -15.518  0.00  0.00    +0.000 A 
ATOM     40  C   UNL     1     -39.156  53.735 -17.150  0.00  0.00    +0.000 A 
ATOM     41  C   UNL     1     -40.123  54.590 -16.626  0.00  0.00    +0.000 A 
ENDBRANCH  35  36
BRANCH  35  43
ATOM     42  O   UNL     1     -41.579  49.567 -13.214  0.00  0.00    +0.000 OA
ATOM     43  N   UNL     1     -39.691  50.847 -13.368  0.00  0.00    +0.000 N 
ATOM     44  C   UNL     1     -40.781  50.351 -12.730  0.00  0.00    +0.000 C 
ATOM     45  H   UNL     1     -39.185  51.577 -12.887  0.00  0.00    +0.000 HD
BRANCH  44  46
ATOM     46  O   UNL     1     -40.809  50.849 -11.475  0.00  0.00    +0.000 OA
BRANCH  46  47
ATOM     47  C   UNL     1     -40.581  49.987 -10.330  0.00  0.00    +0.000 C 
ATOM     48  C   UNL     1     -39.581  48.874 -10.659  0.00  0.00    +0.000 C 
ATOM     49  C   UNL     1     -39.958  50.907  -9.269  0.00  0.00    +0.000 C 
ATOM     50  C   UNL     1     -41.899  49.430  -9.783  0.00  0.00    +0.000 C 
ENDBRANCH  46  47
ENDBRANCH  44  46
ENDBRANCH  35  43
ENDBRANCH  32  35
ENDBRANCH  31  32
ENDBRANCH  29  31
ENDBRANCH  18  29
BRANCH   7  51
ATOM     51  O   UNL     1     -34.819  46.832 -16.828  0.00  0.00    +0.000 OA
BRANCH  51  53
ATOM     52  O   UNL     1     -33.598  47.662 -15.468  0.00  0.00    +0.000 OA
ATOM     53  C   UNL     1     -34.683  47.090 -15.486  0.00  0.00    +0.000 C 
BRANCH  53  54
ATOM     54  C   UNL     1     -35.829  46.368 -14.132  0.00  0.00    +0.000 A 
ATOM     55  C   UNL     1     -35.996  46.912 -12.784  0.00  0.00    +0.000 A 
ATOM     56  C   UNL     1     -36.771  45.302 -14.269  0.00  0.00    +0.000 A 
ATOM     57  C   UNL     1     -36.908  46.478 -11.789  0.00  0.00    +0.000 A 
ATOM     58  C   UNL     1     -37.695  44.852 -13.281  0.00  0.00    +0.000 A 
ATOM     59  C   UNL     1     -37.766  45.438 -12.041  0.00  0.00    +0.000 A 
ENDBRANCH  53  54
ENDBRANCH  51  53
ENDBRANCH   7  51
BRANCH   4  60
ATOM     60  O   UNL     1     -33.652  44.321 -15.184  0.00  0.00    +0.000 OA
BRANCH  60  62
ATOM     61  O   UNL     1     -33.547  42.498 -13.891  0.00  0.00    +0.000 OA
ATOM     62  C   UNL     1     -33.440  43.718 -13.991  0.00  0.00    +0.000 C 
ATOM     63  C   UNL     1     -33.193  44.566 -12.783  0.00  0.00    +0.000 C 
ENDBRANCH  60  62
ENDBRANCH   4  60
TORSDOF 17
ENDMDL
MODEL 5
REMARK VINA RESULT:      -5.8     17.842     20.882
REMARK  Name = 
REMARK  25 active torsions:
REMARK  status: ('A' for Active; 'I' for Inactive)
REMARK    1  A    between atoms: O_2  and  C_17
REMARK    2  A    between atoms: O_2  and  C_36
REMARK    3  A    between atoms: O_3  and  C_20
REMARK    4  A    between atoms: O_3  and  C_37
REMARK    5  A    between atoms: O_4  and  C_21
REMARK    6  A    between atoms: O_5  and  C_22
REMARK    7  A    between atoms: O_7  and  C_30
REMARK    8  A    between atoms: O_8  and  C_31
REMARK    9  A    between atoms: O_8  and  C_39
REMARK   10  A    between atoms: O_12  and  C_41
REMARK   11  A    between atoms: O_13  and  C_51
REMARK   12  A    between atoms: O_13  and  C_55
REMARK   13  A    between atoms: N_15  and  C_44
REMARK   14  A    between atoms: C_18  and  C_29
REMARK   15  A    between atoms: C_24  and  C_33
REMARK   16  A    between atoms: C_24  and  C_34
REMARK   17  A    between atoms: C_32  and  C_35
REMARK   18  A    between atoms: C_36  and  C_38
REMARK   19  A    between atoms: C_37  and  C_40
REMARK   20  A    between atoms: C_39  and  C_41
REMARK   21  A    between atoms: C_41  and  C_44
REMARK   22  A    between atoms: C_44  and  C_48
REMARK   23  A    between atoms: C_55  and  C_56
REMARK   24  A    between atoms: C_55  and  C_57
REMARK   25  A    between atoms: C_55  and  C_58
REMARK                            x       y       z     vdW  Elec       q    Type
REMARK                         _______ _______ _______ _____ _____    ______ ____
ROOT
ATOM      1  O   UNL     1     -34.457  65.561  -9.502  0.00  0.00    +0.000 OA
ATOM      2  O   UNL     1     -36.434  59.686  -6.908  0.00  0.00    +0.000 OA
ATOM      3  C   UNL     1     -35.995  64.062  -6.811  0.00  0.00    +0.000 C 
ATOM      4  C   UNL     1     -34.866  64.871  -7.515  0.00  0.00    +0.000 C 
ATOM      5  C   UNL     1     -35.552  62.225  -6.988  0.00  0.00    +0.000 C 
ATOM      6  C   UNL     1     -35.180  64.406  -8.996  0.00  0.00    +0.000 C 
ATOM      7  C   UNL     1     -36.480  64.812  -5.175  0.00  0.00    +0.000 C 
ATOM      8  C   UNL     1     -37.633  64.528  -3.699  0.00  0.00    +0.000 C 
ATOM      9  C   UNL     1     -35.537  61.991  -8.556  0.00  0.00    +0.000 C 
ATOM     10  C   UNL     1     -34.703  63.021  -9.378  0.00  0.00    +0.000 C 
ATOM     11  C   UNL     1     -38.560  63.073  -3.282  0.00  0.00    +0.000 C 
ATOM     12  C   UNL     1     -34.920  66.256  -8.277  0.00  0.00    +0.000 C 
ATOM     13  C   UNL     1     -36.437  60.742  -6.239  0.00  0.00    +0.000 C 
ATOM     14  C   UNL     1     -36.701  64.646  -2.406  0.00  0.00    +0.000 C 
ATOM     15  C   UNL     1     -37.626  61.774  -3.225  0.00  0.00    +0.000 C 
ATOM     16  C   UNL     1     -34.055  61.921  -6.561  0.00  0.00    +0.000 C 
ATOM     17  C   UNL     1     -37.356  60.618  -4.559  0.00  0.00    +0.000 C 
ATOM     18  C   UNL     1     -36.136  63.296  -1.766  0.00  0.00    +0.000 C 
ATOM     19  C   UNL     1     -36.645  61.898  -2.270  0.00  0.00    +0.000 C 
ATOM     20  C   UNL     1     -39.143  63.293  -1.797  0.00  0.00    +0.000 C 
ATOM     21  C   UNL     1     -39.957  62.842  -3.942  0.00  0.00    +0.000 C 
ATOM     22  C   UNL     1     -35.789  60.735  -1.832  0.00  0.00    +0.000 C 
ENDROOT
BRANCH  17  23
ATOM     23  O   UNL     1     -38.574  59.878  -4.652  0.00  0.00    +0.000 OA
ATOM     24  H   UNL     1     -38.461  59.305  -5.434  0.00  0.00    +0.000 HD
ENDBRANCH  17  23
BRANCH   9  25
ATOM     25  O   UNL     1     -36.879  62.064  -9.040  0.00  0.00    +0.000 OA
ATOM     26  H   UNL     1     -37.390  62.577  -8.388  0.00  0.00    +0.000 HD
ENDBRANCH   9  25
BRANCH   8  27
ATOM     27  O   UNL     1     -38.500  65.678  -3.689  0.00  0.00    +0.000 OA
ATOM     28  H   UNL     1     -37.994  66.462  -3.967  0.00  0.00    +0.000 HD
ENDBRANCH   8  27
BRANCH  18  29
ATOM     29  O   UNL     1     -34.689  63.301  -1.933  0.00  0.00    +0.000 OA
BRANCH  29  31
ATOM     30  O   UNL     1     -34.171  64.854  -0.376  0.00  0.00    +0.000 OA
ATOM     31  C   UNL     1     -33.936  63.774  -0.908  0.00  0.00    +0.000 C 
BRANCH  31  32
ATOM     32  C   UNL     1     -32.688  62.946  -0.580  0.00  0.00    +0.000 C 
BRANCH  32  33
ATOM     33  O   UNL     1     -32.902  61.536  -0.448  0.00  0.00    +0.000 OA
ATOM     34  H   UNL     1     -33.785  61.434  -0.046  0.00  0.00    +0.000 HD
ENDBRANCH  32  33
BRANCH  32  35
ATOM     35  C   UNL     1     -32.024  63.543   0.689  0.00  0.00    +0.000 C 
BRANCH  35  36
ATOM     36  C   UNL     1     -30.532  63.803   0.505  0.00  0.00    +0.000 A 
ATOM     37  C   UNL     1     -30.038  65.112   0.615  0.00  0.00    +0.000 A 
ATOM     38  C   UNL     1     -29.621  62.761   0.262  0.00  0.00    +0.000 A 
ATOM     39  C   UNL     1     -28.675  65.376   0.461  0.00  0.00    +0.000 A 
ATOM     40  C   UNL     1     -28.259  63.028   0.109  0.00  0.00    +0.000 A 
ATOM     41  C   UNL     1     -27.787  64.335   0.205  0.00  0.00    +0.000 A 
ENDBRANCH  35  36
BRANCH  35  43
ATOM     42  O   UNL     1     -32.342  64.308   3.441  0.00  0.00    +0.000 OA
ATOM     43  N   UNL     1     -32.209  62.677   1.846  0.00  0.00    +0.000 N 
ATOM     44  C   UNL     1     -32.244  63.136   3.122  0.00  0.00    +0.000 C 
ATOM     45  H   UNL     1     -32.006  61.692   1.730  0.00  0.00    +0.000 HD
BRANCH  44  46
ATOM     46  O   UNL     1     -32.180  62.080   3.962  0.00  0.00    +0.000 OA
BRANCH  46  47
ATOM     47  C   UNL     1     -31.010  61.863   4.792  0.00  0.00    +0.000 C 
ATOM     48  C   UNL     1     -31.038  62.752   6.040  0.00  0.00    +0.000 C 
ATOM     49  C   UNL     1     -31.113  60.395   5.233  0.00  0.00    +0.000 C 
ATOM     50  C   UNL     1     -29.718  62.045   3.989  0.00  0.00    +0.000 C 
ENDBRANCH  46  47
ENDBRANCH  44  46
ENDBRANCH  35  43
ENDBRANCH  32  35
ENDBRANCH  31  32
ENDBRANCH  29  31
ENDBRANCH  18  29
BRANCH   7  51
ATOM     51  O   UNL     1     -35.619  63.975  -4.635  0.00  0.00    +0.000 OA
BRANCH  51  53
ATOM     52  O   UNL     1     -35.429  65.972  -4.689  0.00  0.00    +0.000 OA
ATOM     53  C   UNL     1     -34.745  65.003  -4.378  0.00  0.00    +0.000 C 
BRANCH  53  54
ATOM     54  C   UNL     1     -32.889  64.758  -3.972  0.00  0.00    +0.000 A 
ATOM     55  C   UNL     1     -32.027  65.745  -3.320  0.00  0.00    +0.000 A 
ATOM     56  C   UNL     1     -32.118  63.564  -4.113  0.00  0.00    +0.000 A 
ATOM     57  C   UNL     1     -30.683  65.571  -2.904  0.00  0.00    +0.000 A 
ATOM     58  C   UNL     1     -30.767  63.369  -3.702  0.00  0.00    +0.000 A 
ATOM     59  C   UNL     1     -30.048  64.371  -3.097  0.00  0.00    +0.000 A 
ENDBRANCH  53  54
ENDBRANCH  51  53
ENDBRANCH   7  51
BRANCH   4  60
ATOM     60  O   UNL     1     -33.548  64.507  -7.043  0.00  0.00    +0.000 OA
BRANCH  60  62
ATOM     61  O   UNL     1     -31.697  64.457  -8.299  0.00  0.00    +0.000 OA
ATOM     62  C   UNL     1     -32.399  65.063  -7.492  0.00  0.00    +0.000 C 
ATOM     63  C   UNL     1     -31.944  66.362  -6.906  0.00  0.00    +0.000 C 
ENDBRANCH  60  62
ENDBRANCH   4  60
TORSDOF 17
ENDMDL
MODEL 6
REMARK VINA RESULT:      -5.8      3.165      8.407
REMARK  Name = 
REMARK  25 active torsions:
REMARK  status: ('A' for Active; 'I' for Inactive)
REMARK    1  A    between atoms: O_2  and  C_17
REMARK    2  A    between atoms: O_2  and  C_36
REMARK    3  A    between atoms: O_3  and  C_20
REMARK    4  A    between atoms: O_3  and  C_37
REMARK    5  A    between atoms: O_4  and  C_21
REMARK    6  A    between atoms: O_5  and  C_22
REMARK    7  A    between atoms: O_7  and  C_30
REMARK    8  A    between atoms: O_8  and  C_31
REMARK    9  A    between atoms: O_8  and  C_39
REMARK   10  A    between atoms: O_12  and  C_41
REMARK   11  A    between atoms: O_13  and  C_51
REMARK   12  A    between atoms: O_13  and  C_55
REMARK   13  A    between atoms: N_15  and  C_44
REMARK   14  A    between atoms: C_18  and  C_29
REMARK   15  A    between atoms: C_24  and  C_33
REMARK   16  A    between atoms: C_24  and  C_34
REMARK   17  A    between atoms: C_32  and  C_35
REMARK   18  A    between atoms: C_36  and  C_38
REMARK   19  A    between atoms: C_37  and  C_40
REMARK   20  A    between atoms: C_39  and  C_41
REMARK   21  A    between atoms: C_41  and  C_44
REMARK   22  A    between atoms: C_44  and  C_48
REMARK   23  A    between atoms: C_55  and  C_56
REMARK   24  A    between atoms: C_55  and  C_57
REMARK   25  A    between atoms: C_55  and  C_58
REMARK                            x       y       z     vdW  Elec       q    Type
REMARK                         _______ _______ _______ _____ _____    ______ ____
ROOT
ATOM      1  O   UNL     1     -31.160  43.492 -15.508  0.00  0.00    +0.000 OA
ATOM      2  O   UNL     1     -35.806  43.617 -20.361  0.00  0.00    +0.000 OA
ATOM      3  C   UNL     1     -33.266  45.527 -17.319  0.00  0.00    +0.000 C 
ATOM      4  C   UNL     1     -32.742  44.842 -16.022  0.00  0.00    +0.000 C 
ATOM      5  C   UNL     1     -34.495  44.324 -18.123  0.00  0.00    +0.000 C 
ATOM      6  C   UNL     1     -31.936  43.673 -16.723  0.00  0.00    +0.000 C 
ATOM      7  C   UNL     1     -33.671  47.326 -17.049  0.00  0.00    +0.000 C 
ATOM      8  C   UNL     1     -34.358  48.841 -17.955  0.00  0.00    +0.000 C 
ATOM      9  C   UNL     1     -33.617  43.042 -18.435  0.00  0.00    +0.000 C 
ATOM     10  C   UNL     1     -32.757  42.513 -17.246  0.00  0.00    +0.000 C 
ATOM     11  C   UNL     1     -35.184  48.913 -19.525  0.00  0.00    +0.000 C 
ATOM     12  C   UNL     1     -31.339  44.949 -15.301  0.00  0.00    +0.000 C 
ATOM     13  C   UNL     1     -35.574  44.610 -19.638  0.00  0.00    +0.000 C 
ATOM     14  C   UNL     1     -35.510  49.412 -17.006  0.00  0.00    +0.000 C 
ATOM     15  C   UNL     1     -36.423  47.902 -19.586  0.00  0.00    +0.000 C 
ATOM     16  C   UNL     1     -35.572  43.784 -17.091  0.00  0.00    +0.000 C 
ATOM     17  C   UNL     1     -36.388  46.240 -20.239  0.00  0.00    +0.000 C 
ATOM     18  C   UNL     1     -37.017  48.988 -17.320  0.00  0.00    +0.000 C 
ATOM     19  C   UNL     1     -37.368  48.202 -18.634  0.00  0.00    +0.000 C 
ATOM     20  C   UNL     1     -35.787  50.399 -19.673  0.00  0.00    +0.000 C 
ATOM     21  C   UNL     1     -34.333  48.982 -20.833  0.00  0.00    +0.000 C 
ATOM     22  C   UNL     1     -38.741  47.575 -18.630  0.00  0.00    +0.000 C 
ENDROOT
BRANCH  17  23
ATOM     23  O   UNL     1     -36.307  46.407 -21.655  0.00  0.00    +0.000 OA
ATOM     24  H   UNL     1     -35.634  45.763 -21.946  0.00  0.00    +0.000 HD
ENDBRANCH  17  23
BRANCH   9  25
ATOM     25  O   UNL     1     -32.710  43.356 -19.493  0.00  0.00    +0.000 OA
ATOM     26  H   UNL     1     -33.091  42.991 -20.312  0.00  0.00    +0.000 HD
ENDBRANCH   9  25
BRANCH   8  27
ATOM     27  O   UNL     1     -33.284  49.801 -17.924  0.00  0.00    +0.000 OA
ATOM     28  H   UNL     1     -32.601  49.496 -17.301  0.00  0.00    +0.000 HD
ENDBRANCH   8  27
BRANCH  18  29
ATOM     29  O   UNL     1     -37.487  48.175 -16.206  0.00  0.00    +0.000 OA
BRANCH  29  31
ATOM     30  O   UNL     1     -39.398  48.038 -15.010  0.00  0.00    +0.000 OA
ATOM     31  C   UNL     1     -38.442  48.701 -15.399  0.00  0.00    +0.000 C 
BRANCH  31  32
ATOM     32  C   UNL     1     -38.328  50.209 -15.150  0.00  0.00    +0.000 C 
BRANCH  32  33
ATOM     33  O   UNL     1     -38.062  50.591 -13.796  0.00  0.00    +0.000 OA
ATOM     34  H   UNL     1     -38.432  49.881 -13.238  0.00  0.00    +0.000 HD
ENDBRANCH  32  33
BRANCH  32  35
ATOM     35  C   UNL     1     -39.609  50.895 -15.695  0.00  0.00    +0.000 C 
BRANCH  35  36
ATOM     36  C   UNL     1     -39.472  51.323 -17.152  0.00  0.00    +0.000 A 
ATOM     37  C   UNL     1     -40.310  50.752 -18.124  0.00  0.00    +0.000 A 
ATOM     38  C   UNL     1     -38.553  52.306 -17.555  0.00  0.00    +0.000 A 
ATOM     39  C   UNL     1     -40.214  51.133 -19.464  0.00  0.00    +0.000 A 
ATOM     40  C   UNL     1     -38.458  52.685 -18.895  0.00  0.00    +0.000 A 
ATOM     41  C   UNL     1     -39.286  52.097 -19.849  0.00  0.00    +0.000 A 
ENDBRANCH  35  36
BRANCH  35  43
ATOM     42  O   UNL     1     -42.232  51.968 -15.220  0.00  0.00    +0.000 OA
ATOM     43  N   UNL     1     -39.971  52.059 -14.897  0.00  0.00    +0.000 N 
ATOM     44  C   UNL     1     -41.235  52.546 -14.822  0.00  0.00    +0.000 C 
ATOM     45  H   UNL     1     -39.230  52.696 -14.636  0.00  0.00    +0.000 HD
BRANCH  44  46
ATOM     46  O   UNL     1     -41.197  53.752 -14.214  0.00  0.00    +0.000 OA
BRANCH  46  47
ATOM     47  C   UNL     1     -41.471  54.966 -14.959  0.00  0.00    +0.000 C 
ATOM     48  C   UNL     1     -42.964  55.307 -14.943  0.00  0.00    +0.000 C 
ATOM     49  C   UNL     1     -40.708  56.066 -14.205  0.00  0.00    +0.000 C 
ATOM     50  C   UNL     1     -40.919  54.878 -16.386  0.00  0.00    +0.000 C 
ENDBRANCH  46  47
ENDBRANCH  44  46
ENDBRANCH  35  43
ENDBRANCH  32  35
ENDBRANCH  31  32
ENDBRANCH  29  31
ENDBRANCH  18  29
BRANCH   7  51
ATOM     51  O   UNL     1     -34.905  46.924 -16.830  0.00  0.00    +0.000 OA
BRANCH  51  53
ATOM     52  O   UNL     1     -33.673  47.728 -15.463  0.00  0.00    +0.000 OA
ATOM     53  C   UNL     1     -34.782  47.205 -15.491  0.00  0.00    +0.000 C 
BRANCH  53  54
ATOM     54  C   UNL     1     -35.985  46.564 -14.144  0.00  0.00    +0.000 A 
ATOM     55  C   UNL     1     -36.208  47.189 -12.840  0.00  0.00    +0.000 A 
ATOM     56  C   UNL     1     -36.921  45.490 -14.255  0.00  0.00    +0.000 A 
ATOM     57  C   UNL     1     -37.161  46.814 -11.859  0.00  0.00    +0.000 A 
ATOM     58  C   UNL     1     -37.886  45.098 -13.281  0.00  0.00    +0.000 A 
ATOM     59  C   UNL     1     -38.007  45.759 -12.083  0.00  0.00    +0.000 A 
ENDBRANCH  53  54
ENDBRANCH  51  53
ENDBRANCH   7  51
BRANCH   4  60
ATOM     60  O   UNL     1     -33.816  44.393 -15.163  0.00  0.00    +0.000 OA
BRANCH  60  62
ATOM     61  O   UNL     1     -33.754  42.614 -13.808  0.00  0.00    +0.000 OA
ATOM     62  C   UNL     1     -33.631  43.829 -13.947  0.00  0.00    +0.000 C 
ATOM     63  C   UNL     1     -33.393  44.714 -12.764  0.00  0.00    +0.000 C 
ENDBRANCH  60  62
ENDBRANCH   4  60
TORSDOF 17
ENDMDL
MODEL 7
REMARK VINA RESULT:      -5.6     19.331     23.092
REMARK  Name = 
REMARK  25 active torsions:
REMARK  status: ('A' for Active; 'I' for Inactive)
REMARK    1  A    between atoms: O_2  and  C_17
REMARK    2  A    between atoms: O_2  and  C_36
REMARK    3  A    between atoms: O_3  and  C_20
REMARK    4  A    between atoms: O_3  and  C_37
REMARK    5  A    between atoms: O_4  and  C_21
REMARK    6  A    between atoms: O_5  and  C_22
REMARK    7  A    between atoms: O_7  and  C_30
REMARK    8  A    between atoms: O_8  and  C_31
REMARK    9  A    between atoms: O_8  and  C_39
REMARK   10  A    between atoms: O_12  and  C_41
REMARK   11  A    between atoms: O_13  and  C_51
REMARK   12  A    between atoms: O_13  and  C_55
REMARK   13  A    between atoms: N_15  and  C_44
REMARK   14  A    between atoms: C_18  and  C_29
REMARK   15  A    between atoms: C_24  and  C_33
REMARK   16  A    between atoms: C_24  and  C_34
REMARK   17  A    between atoms: C_32  and  C_35
REMARK   18  A    between atoms: C_36  and  C_38
REMARK   19  A    between atoms: C_37  and  C_40
REMARK   20  A    between atoms: C_39  and  C_41
REMARK   21  A    between atoms: C_41  and  C_44
REMARK   22  A    between atoms: C_44  and  C_48
REMARK   23  A    between atoms: C_55  and  C_56
REMARK   24  A    between atoms: C_55  and  C_57
REMARK   25  A    between atoms: C_55  and  C_58
REMARK                            x       y       z     vdW  Elec       q    Type
REMARK                         _______ _______ _______ _____ _____    ______ ____
ROOT
ATOM      1  O   UNL     1     -32.297  67.779 -18.981  0.00  0.00    +0.000 OA
ATOM      2  O   UNL     1     -33.160  68.307 -25.624  0.00  0.00    +0.000 OA
ATOM      3  C   UNL     1     -32.462  66.016 -21.934  0.00  0.00    +0.000 C 
ATOM      4  C   UNL     1     -31.756  66.558 -20.656  0.00  0.00    +0.000 C 
ATOM      5  C   UNL     1     -32.269  67.343 -23.277  0.00  0.00    +0.000 C 
ATOM      6  C   UNL     1     -32.761  67.744 -20.358  0.00  0.00    +0.000 C 
ATOM      7  C   UNL     1     -32.067  64.222 -22.248  0.00  0.00    +0.000 C 
ATOM      8  C   UNL     1     -32.397  62.828 -23.487  0.00  0.00    +0.000 C 
ATOM      9  C   UNL     1     -33.014  68.604 -22.671  0.00  0.00    +0.000 C 
ATOM     10  C   UNL     1     -32.609  68.983 -21.213  0.00  0.00    +0.000 C 
ATOM     11  C   UNL     1     -33.103  62.934 -25.112  0.00  0.00    +0.000 C 
ATOM     12  C   UNL     1     -32.080  66.320 -19.127  0.00  0.00    +0.000 C 
ATOM     13  C   UNL     1     -32.781  67.244 -25.086  0.00  0.00    +0.000 C 
ATOM     14  C   UNL     1     -30.958  62.231 -23.844  0.00  0.00    +0.000 C 
ATOM     15  C   UNL     1     -32.334  64.005 -26.020  0.00  0.00    +0.000 C 
ATOM     16  C   UNL     1     -30.770  67.841 -23.422  0.00  0.00    +0.000 C 
ATOM     17  C   UNL     1     -32.800  65.715 -26.244  0.00  0.00    +0.000 C 
ATOM     18  C   UNL     1     -30.241  62.754 -25.171  0.00  0.00    +0.000 C 
ATOM     19  C   UNL     1     -31.012  63.669 -26.189  0.00  0.00    +0.000 C 
ATOM     20  C   UNL     1     -32.897  61.498 -25.811  0.00  0.00    +0.000 C 
ATOM     21  C   UNL     1     -34.657  62.939 -25.272  0.00  0.00    +0.000 C 
ATOM     22  C   UNL     1     -30.124  64.358 -27.195  0.00  0.00    +0.000 C 
ENDROOT
BRANCH  17  23
ATOM     23  O   UNL     1     -33.958  65.670 -27.078  0.00  0.00    +0.000 OA
ATOM     24  H   UNL     1     -34.685  66.001 -26.518  0.00  0.00    +0.000 HD
ENDBRANCH  17  23
BRANCH   9  25
ATOM     25  O   UNL     1     -34.417  68.341 -22.654  0.00  0.00    +0.000 OA
ATOM     26  H   UNL     1     -34.715  68.442 -21.732  0.00  0.00    +0.000 HD
ENDBRANCH   9  25
BRANCH   8  27
ATOM     27  O   UNL     1     -33.085  61.818 -22.722  0.00  0.00    +0.000 OA
ATOM     28  H   UNL     1     -32.453  61.391 -22.117  0.00  0.00    +0.000 HD
ENDBRANCH   8  27
BRANCH  18  29
ATOM     29  O   UNL     1     -29.049  63.487 -24.768  0.00  0.00    +0.000 OA
BRANCH  29  31
ATOM     30  O   UNL     1     -27.613  61.815 -24.275  0.00  0.00    +0.000 OA
ATOM     31  C   UNL     1     -27.852  62.857 -24.875  0.00  0.00    +0.000 C 
BRANCH  31  32
ATOM     32  C   UNL     1     -26.781  63.621 -25.661  0.00  0.00    +0.000 C 
BRANCH  32  33
ATOM     33  O   UNL     1     -27.111  64.975 -25.994  0.00  0.00    +0.000 OA
ATOM     34  H   UNL     1     -26.263  65.456 -26.038  0.00  0.00    +0.000 HD
ENDBRANCH  32  33
BRANCH  32  35
ATOM     35  C   UNL     1     -26.416  62.796 -26.924  0.00  0.00    +0.000 C 
BRANCH  35  36
ATOM     36  C   UNL     1     -25.662  63.618 -27.964  0.00  0.00    +0.000 A 
ATOM     37  C   UNL     1     -24.469  64.265 -27.605  0.00  0.00    +0.000 A 
ATOM     38  C   UNL     1     -26.105  63.720 -29.294  0.00  0.00    +0.000 A 
ATOM     39  C   UNL     1     -23.752  65.014 -28.541  0.00  0.00    +0.000 A 
ATOM     40  C   UNL     1     -25.387  64.470 -30.227  0.00  0.00    +0.000 A 
ATOM     41  C   UNL     1     -24.214  65.119 -29.850  0.00  0.00    +0.000 A 
ENDBRANCH  35  36
BRANCH  35  43
ATOM     42  O   UNL     1     -27.204  60.035 -27.024  0.00  0.00    +0.000 OA
ATOM     43  N   UNL     1     -27.601  62.224 -27.548  0.00  0.00    +0.000 N 
ATOM     44  C   UNL     1     -27.828  60.889 -27.630  0.00  0.00    +0.000 C 
ATOM     45  H   UNL     1     -28.116  62.806 -28.195  0.00  0.00    +0.000 HD
BRANCH  44  46
ATOM     46  O   UNL     1     -28.867  60.678 -28.466  0.00  0.00    +0.000 OA
BRANCH  46  47
ATOM     47  C   UNL     1     -28.654  60.556 -29.897  0.00  0.00    +0.000 C 
ATOM     48  C   UNL     1     -27.177  60.313 -30.223  0.00  0.00    +0.000 C 
ATOM     49  C   UNL     1     -29.458  59.312 -30.305  0.00  0.00    +0.000 C 
ATOM     50  C   UNL     1     -29.214  61.770 -30.646  0.00  0.00    +0.000 C 
ENDBRANCH  46  47
ENDBRANCH  44  46
ENDBRANCH  35  43
ENDBRANCH  32  35
ENDBRANCH  31  32
ENDBRANCH  29  31
ENDBRANCH  18  29
BRANCH   7  51
ATOM     51  O   UNL     1     -31.106  64.662 -23.033  0.00  0.00    +0.000 OA
BRANCH  51  53
ATOM     52  O   UNL     1     -30.848  63.690 -21.296  0.00  0.00    +0.000 OA
ATOM     53  C   UNL     1     -30.153  64.266 -22.126  0.00  0.00    +0.000 C 
BRANCH  53  54
ATOM     54  C   UNL     1     -28.329  64.851 -22.161  0.00  0.00    +0.000 A 
ATOM     55  C   UNL     1     -27.193  64.115 -21.605  0.00  0.00    +0.000 A 
ATOM     56  C   UNL     1     -27.795  65.992 -22.834  0.00  0.00    +0.000 A 
ATOM     57  C   UNL     1     -25.819  64.455 -21.701  0.00  0.00    +0.000 A 
ATOM     58  C   UNL     1     -26.419  66.350 -22.942  0.00  0.00    +0.000 A 
ATOM     59  C   UNL     1     -25.430  65.583 -22.376  0.00  0.00    +0.000 A 
ENDBRANCH  53  54
ENDBRANCH  51  53
ENDBRANCH   7  51
BRANCH   4  60
ATOM     60  O   UNL     1     -30.396  66.980 -20.914  0.00  0.00    +0.000 OA
BRANCH  60  62
ATOM     61  O   UNL     1     -29.054  66.338 -19.243  0.00  0.00    +0.000 OA
ATOM     62  C   UNL     1     -29.487  67.247 -19.947  0.00  0.00    +0.000 C 
ATOM     63  C   UNL     1     -29.112  68.670 -19.677  0.00  0.00    +0.000 C 
ENDBRANCH  60  62
ENDBRANCH   4  60
TORSDOF 17
ENDMDL
MODEL 8
REMARK VINA RESULT:      -5.6     17.932     22.189
REMARK  Name = 
REMARK  25 active torsions:
REMARK  status: ('A' for Active; 'I' for Inactive)
REMARK    1  A    between atoms: O_2  and  C_17
REMARK    2  A    between atoms: O_2  and  C_36
REMARK    3  A    between atoms: O_3  and  C_20
REMARK    4  A    between atoms: O_3  and  C_37
REMARK    5  A    between atoms: O_4  and  C_21
REMARK    6  A    between atoms: O_5  and  C_22
REMARK    7  A    between atoms: O_7  and  C_30
REMARK    8  A    between atoms: O_8  and  C_31
REMARK    9  A    between atoms: O_8  and  C_39
REMARK   10  A    between atoms: O_12  and  C_41
REMARK   11  A    between atoms: O_13  and  C_51
REMARK   12  A    between atoms: O_13  and  C_55
REMARK   13  A    between atoms: N_15  and  C_44
REMARK   14  A    between atoms: C_18  and  C_29
REMARK   15  A    between atoms: C_24  and  C_33
REMARK   16  A    between atoms: C_24  and  C_34
REMARK   17  A    between atoms: C_32  and  C_35
REMARK   18  A    between atoms: C_36  and  C_38
REMARK   19  A    between atoms: C_37  and  C_40
REMARK   20  A    between atoms: C_39  and  C_41
REMARK   21  A    between atoms: C_41  and  C_44
REMARK   22  A    between atoms: C_44  and  C_48
REMARK   23  A    between atoms: C_55  and  C_56
REMARK   24  A    between atoms: C_55  and  C_57
REMARK   25  A    between atoms: C_55  and  C_58
REMARK                            x       y       z     vdW  Elec       q    Type
REMARK                         _______ _______ _______ _____ _____    ______ ____
ROOT
ATOM      1  O   UNL     1     -25.404  66.464 -21.857  0.00  0.00    +0.000 OA
ATOM      2  O   UNL     1     -30.503  68.949 -25.461  0.00  0.00    +0.000 OA
ATOM      3  C   UNL     1     -28.657  65.928 -22.849  0.00  0.00    +0.000 C 
ATOM      4  C   UNL     1     -27.136  65.603 -22.780  0.00  0.00    +0.000 C 
ATOM      5  C   UNL     1     -28.903  67.125 -24.301  0.00  0.00    +0.000 C 
ATOM      6  C   UNL     1     -26.643  67.045 -22.348  0.00  0.00    +0.000 C 
ATOM      7  C   UNL     1     -29.710  64.405 -22.630  0.00  0.00    +0.000 C 
ATOM      8  C   UNL     1     -31.520  63.846 -22.613  0.00  0.00    +0.000 C 
ATOM      9  C   UNL     1     -28.039  68.391 -23.895  0.00  0.00    +0.000 C 
ATOM     10  C   UNL     1     -26.577  68.087 -23.445  0.00  0.00    +0.000 C 
ATOM     11  C   UNL     1     -32.960  64.740 -23.140  0.00  0.00    +0.000 C 
ATOM     12  C   UNL     1     -26.215  65.264 -21.540  0.00  0.00    +0.000 C 
ATOM     13  C   UNL     1     -30.522  67.788 -24.995  0.00  0.00    +0.000 C 
ATOM     14  C   UNL     1     -31.585  62.598 -23.609  0.00  0.00    +0.000 C 
ATOM     15  C   UNL     1     -32.800  65.290 -24.634  0.00  0.00    +0.000 C 
ATOM     16  C   UNL     1     -28.199  66.615 -25.628  0.00  0.00    +0.000 C 
ATOM     17  C   UNL     1     -32.228  66.917 -25.096  0.00  0.00    +0.000 C 
ATOM     18  C   UNL     1     -32.056  62.863 -25.111  0.00  0.00    +0.000 C 
ATOM     19  C   UNL     1     -32.625  64.265 -25.534  0.00  0.00    +0.000 C 
ATOM     20  C   UNL     1     -34.185  63.694 -23.157  0.00  0.00    +0.000 C 
ATOM     21  C   UNL     1     -33.647  65.734 -22.150  0.00  0.00    +0.000 C 
ATOM     22  C   UNL     1     -32.699  64.476 -27.026  0.00  0.00    +0.000 C 
ENDROOT
BRANCH  17  23
ATOM     23  O   UNL     1     -33.311  67.789 -24.772  0.00  0.00    +0.000 OA
ATOM     24  H   UNL     1     -33.557  68.211 -25.617  0.00  0.00    +0.000 HD
ENDBRANCH  17  23
BRANCH   9  25
ATOM     25  O   UNL     1     -28.680  69.049 -22.802  0.00  0.00    +0.000 OA
ATOM     26  H   UNL     1     -28.179  69.866 -22.627  0.00  0.00    +0.000 HD
ENDBRANCH   9  25
BRANCH   8  27
ATOM     27  O   UNL     1     -31.727  63.327 -21.285  0.00  0.00    +0.000 OA
ATOM     28  H   UNL     1     -32.084  64.033 -20.718  0.00  0.00    +0.000 HD
ENDBRANCH   8  27
BRANCH  18  29
ATOM     29  O   UNL     1     -30.921  62.591 -25.983  0.00  0.00    +0.000 OA
BRANCH  29  31
ATOM     30  O   UNL     1     -30.484  61.620 -27.974  0.00  0.00    +0.000 OA
ATOM     31  C   UNL     1     -31.043  61.584 -26.883  0.00  0.00    +0.000 C 
BRANCH  31  32
ATOM     32  C   UNL     1     -32.050  60.491 -26.507  0.00  0.00    +0.000 C 
BRANCH  32  33
ATOM     33  O   UNL     1     -31.481  59.267 -26.029  0.00  0.00    +0.000 OA
ATOM     34  H   UNL     1     -30.612  59.502 -25.655  0.00  0.00    +0.000 HD
ENDBRANCH  32  33
BRANCH  32  35
ATOM     35  C   UNL     1     -32.987  60.248 -27.721  0.00  0.00    +0.000 C 
BRANCH  35  36
ATOM     36  C   UNL     1     -34.312  59.608 -27.321  0.00  0.00    +0.000 A 
ATOM     37  C   UNL     1     -35.327  60.404 -26.767  0.00  0.00    +0.000 A 
ATOM     38  C   UNL     1     -34.568  58.242 -27.525  0.00  0.00    +0.000 A 
ATOM     39  C   UNL     1     -36.555  59.846 -26.403  0.00  0.00    +0.000 A 
ATOM     40  C   UNL     1     -35.796  57.686 -27.160  0.00  0.00    +0.000 A 
ATOM     41  C   UNL     1     -36.787  58.487 -26.596  0.00  0.00    +0.000 A 
ENDBRANCH  35  36
BRANCH  35  43
ATOM     42  O   UNL     1     -32.501  60.869 -30.484  0.00  0.00    +0.000 OA
ATOM     43  N   UNL     1     -32.348  59.413 -28.728  0.00  0.00    +0.000 N 
ATOM     44  C   UNL     1     -32.261  59.760 -30.037  0.00  0.00    +0.000 C 
ATOM     45  H   UNL     1     -32.234  58.430 -28.518  0.00  0.00    +0.000 HD
BRANCH  44  46
ATOM     46  O   UNL     1     -31.843  58.686 -30.742  0.00  0.00    +0.000 OA
BRANCH  46  47
ATOM     47  C   UNL     1     -30.531  58.672 -31.361  0.00  0.00    +0.000 C 
ATOM     48  C   UNL     1     -29.466  59.261 -30.430  0.00  0.00    +0.000 C 
ATOM     49  C   UNL     1     -30.221  57.183 -31.580  0.00  0.00    +0.000 C 
ATOM     50  C   UNL     1     -30.553  59.374 -32.723  0.00  0.00    +0.000 C 
ENDBRANCH  46  47
ENDBRANCH  44  46
ENDBRANCH  35  43
ENDBRANCH  32  35
ENDBRANCH  31  32
ENDBRANCH  29  31
ENDBRANCH  18  29
BRANCH   7  51
ATOM     51  O   UNL     1     -29.723  64.332 -23.944  0.00  0.00    +0.000 OA
BRANCH  51  53
ATOM     52  O   UNL     1     -28.798  63.053 -22.704  0.00  0.00    +0.000 OA
ATOM     53  C   UNL     1     -28.909  63.226 -23.913  0.00  0.00    +0.000 C 
BRANCH  53  54
ATOM     54  C   UNL     1     -28.020  62.503 -25.448  0.00  0.00    +0.000 A 
ATOM     55  C   UNL     1     -27.729  61.086 -25.670  0.00  0.00    +0.000 A 
ATOM     56  C   UNL     1     -27.638  63.196 -26.638  0.00  0.00    +0.000 A 
ATOM     57  C   UNL     1     -27.173  60.494 -26.832  0.00  0.00    +0.000 A 
ATOM     58  C   UNL     1     -27.078  62.619 -27.815  0.00  0.00    +0.000 A 
ATOM     59  C   UNL     1     -26.844  61.269 -27.915  0.00  0.00    +0.000 A 
ENDBRANCH  53  54
ENDBRANCH  51  53
ENDBRANCH   7  51
BRANCH   4  60
ATOM     60  O   UNL     1     -26.610  65.149 -24.048  0.00  0.00    +0.000 OA
BRANCH  60  62
ATOM     61  O   UNL     1     -25.291  63.387 -23.647  0.00  0.00    +0.000 OA
ATOM     62  C   UNL     1     -25.443  64.478 -24.191  0.00  0.00    +0.000 C 
ATOM     63  C   UNL     1     -24.312  65.136 -24.918  0.00  0.00    +0.000 C 
ENDBRANCH  60  62
ENDBRANCH   4  60
TORSDOF 17
ENDMDL
MODEL 9
REMARK VINA RESULT:      -5.5     19.269     23.776
REMARK  Name = 
REMARK  25 active torsions:
REMARK  status: ('A' for Active; 'I' for Inactive)
REMARK    1  A    between atoms: O_2  and  C_17
REMARK    2  A    between atoms: O_2  and  C_36
REMARK    3  A    between atoms: O_3  and  C_20
REMARK    4  A    between atoms: O_3  and  C_37
REMARK    5  A    between atoms: O_4  and  C_21
REMARK    6  A    between atoms: O_5  and  C_22
REMARK    7  A    between atoms: O_7  and  C_30
REMARK    8  A    between atoms: O_8  and  C_31
REMARK    9  A    between atoms: O_8  and  C_39
REMARK   10  A    between atoms: O_12  and  C_41
REMARK   11  A    between atoms: O_13  and  C_51
REMARK   12  A    between atoms: O_13  and  C_55
REMARK   13  A    between atoms: N_15  and  C_44
REMARK   14  A    between atoms: C_18  and  C_29
REMARK   15  A    between atoms: C_24  and  C_33
REMARK   16  A    between atoms: C_24  and  C_34
REMARK   17  A    between atoms: C_32  and  C_35
REMARK   18  A    between atoms: C_36  and  C_38
REMARK   19  A    between atoms: C_37  and  C_40
REMARK   20  A    between atoms: C_39  and  C_41
REMARK   21  A    between atoms: C_41  and  C_44
REMARK   22  A    between atoms: C_44  and  C_48
REMARK   23  A    between atoms: C_55  and  C_56
REMARK   24  A    between atoms: C_55  and  C_57
REMARK   25  A    between atoms: C_55  and  C_58
REMARK                            x       y       z     vdW  Elec       q    Type
REMARK                         _______ _______ _______ _____ _____    ______ ____
ROOT
ATOM      1  O   UNL     1     -30.228  65.173 -20.003  0.00  0.00    +0.000 OA
ATOM      2  O   UNL     1     -33.358  66.580 -25.781  0.00  0.00    +0.000 OA
ATOM      3  C   UNL     1     -30.984  63.980 -23.143  0.00  0.00    +0.000 C 
ATOM      4  C   UNL     1     -30.027  64.469 -22.017  0.00  0.00    +0.000 C 
ATOM      5  C   UNL     1     -31.546  65.519 -24.101  0.00  0.00    +0.000 C 
ATOM      6  C   UNL     1     -31.107  65.246 -21.158  0.00  0.00    +0.000 C 
ATOM      7  C   UNL     1     -30.336  62.458 -24.003  0.00  0.00    +0.000 C 
ATOM      8  C   UNL     1     -30.749  61.266 -25.415  0.00  0.00    +0.000 C 
ATOM      9  C   UNL     1     -32.300  66.387 -23.010  0.00  0.00    +0.000 C 
ATOM     10  C   UNL     1     -31.524  66.606 -21.675  0.00  0.00    +0.000 C 
ATOM     11  C   UNL     1     -31.964  61.446 -26.697  0.00  0.00    +0.000 C 
ATOM     12  C   UNL     1     -29.760  63.886 -20.572  0.00  0.00    +0.000 C 
ATOM     13  C   UNL     1     -32.599  65.593 -25.659  0.00  0.00    +0.000 C 
ATOM     14  C   UNL     1     -29.420  61.180 -26.298  0.00  0.00    +0.000 C 
ATOM     15  C   UNL     1     -31.796  62.834 -27.477  0.00  0.00    +0.000 C 
ATOM     16  C   UNL     1     -30.328  66.444 -24.523  0.00  0.00    +0.000 C 
ATOM     17  C   UNL     1     -32.670  64.350 -27.118  0.00  0.00    +0.000 C 
ATOM     18  C   UNL     1     -29.320  62.109 -27.592  0.00  0.00    +0.000 C 
ATOM     19  C   UNL     1     -30.567  62.927 -28.086  0.00  0.00    +0.000 C 
ATOM     20  C   UNL     1     -31.695  60.275 -27.770  0.00  0.00    +0.000 C 
ATOM     21  C   UNL     1     -33.443  61.033 -26.413  0.00  0.00    +0.000 C 
ATOM     22  C   UNL     1     -30.239  64.007 -29.088  0.00  0.00    +0.000 C 
ENDROOT
BRANCH  17  23
ATOM     23  O   UNL     1     -34.001  64.120 -27.581  0.00  0.00    +0.000 OA
ATOM     24  H   UNL     1     -33.895  63.709 -28.460  0.00  0.00    +0.000 HD
ENDBRANCH  17  23
BRANCH   9  25
ATOM     25  O   UNL     1     -33.524  65.732 -22.673  0.00  0.00    +0.000 OA
ATOM     26  H   UNL     1     -34.248  66.321 -22.952  0.00  0.00    +0.000 HD
ENDBRANCH   9  25
BRANCH   8  27
ATOM     27  O   UNL     1     -30.904  59.984 -24.775  0.00  0.00    +0.000 OA
ATOM     28  H   UNL     1     -30.566  59.289 -25.367  0.00  0.00    +0.000 HD
ENDBRANCH   8  27
BRANCH  18  29
ATOM     29  O   UNL     1     -28.252  63.072 -27.361  0.00  0.00    +0.000 OA
BRANCH  29  31
ATOM     30  O   UNL     1     -26.429  61.740 -27.430  0.00  0.00    +0.000 OA
ATOM     31  C   UNL     1     -27.009  62.755 -27.802  0.00  0.00    +0.000 C 
BRANCH  31  32
ATOM     32  C   UNL     1     -26.327  63.829 -28.657  0.00  0.00    +0.000 C 
BRANCH  32  33
ATOM     33  O   UNL     1     -27.109  65.000 -28.914  0.00  0.00    +0.000 OA
ATOM     34  H   UNL     1     -27.444  64.906 -29.826  0.00  0.00    +0.000 HD
ENDBRANCH  32  33
BRANCH  32  35
ATOM     35  C   UNL     1     -25.839  63.169 -29.975  0.00  0.00    +0.000 C 
BRANCH  35  36
ATOM     36  C   UNL     1     -25.188  64.168 -30.925  0.00  0.00    +0.000 A 
ATOM     37  C   UNL     1     -25.772  64.415 -32.178  0.00  0.00    +0.000 A 
ATOM     38  C   UNL     1     -24.032  64.885 -30.572  0.00  0.00    +0.000 A 
ATOM     39  C   UNL     1     -25.202  65.333 -33.064  0.00  0.00    +0.000 A 
ATOM     40  C   UNL     1     -23.464  65.801 -31.460  0.00  0.00    +0.000 A 
ATOM     41  C   UNL     1     -24.047  66.023 -32.705  0.00  0.00    +0.000 A 
ENDBRANCH  35  36
BRANCH  35  43
ATOM     42  O   UNL     1     -26.029  60.401 -30.721  0.00  0.00    +0.000 OA
ATOM     43  N   UNL     1     -26.929  62.501 -30.672  0.00  0.00    +0.000 N 
ATOM     44  C   UNL     1     -26.875  61.206 -31.072  0.00  0.00    +0.000 C 
ATOM     45  H   UNL     1     -27.615  63.083 -31.135  0.00  0.00    +0.000 HD
BRANCH  44  46
ATOM     46  O   UNL     1     -27.920  60.963 -31.892  0.00  0.00    +0.000 OA
BRANCH  46  47
ATOM     47  C   UNL     1     -28.820  59.854 -31.636  0.00  0.00    +0.000 C 
ATOM     48  C   UNL     1     -28.317  58.563 -32.289  0.00  0.00    +0.000 C 
ATOM     49  C   UNL     1     -28.794  59.676 -30.111  0.00  0.00    +0.000 C 
ATOM     50  C   UNL     1     -30.252  60.193 -32.066  0.00  0.00    +0.000 C 
ENDBRANCH  46  47
ENDBRANCH  44  46
ENDBRANCH  35  43
ENDBRANCH  32  35
ENDBRANCH  31  32
ENDBRANCH  29  31
ENDBRANCH  18  29
BRANCH   7  51
ATOM     51  O   UNL     1     -29.813  63.285 -24.883  0.00  0.00    +0.000 OA
BRANCH  51  53
ATOM     52  O   UNL     1     -28.779  62.132 -23.606  0.00  0.00    +0.000 OA
ATOM     53  C   UNL     1     -28.552  63.041 -24.398  0.00  0.00    +0.000 C 
BRANCH  53  54
ATOM     54  C   UNL     1     -27.034  64.159 -24.741  0.00  0.00    +0.000 A 
ATOM     55  C   UNL     1     -25.637  63.776 -24.538  0.00  0.00    +0.000 A 
ATOM     56  C   UNL     1     -27.026  65.448 -25.358  0.00  0.00    +0.000 A 
ATOM     57  C   UNL     1     -24.482  64.527 -24.877  0.00  0.00    +0.000 A 
ATOM     58  C   UNL     1     -25.877  66.217 -25.707  0.00  0.00    +0.000 A 
ATOM     59  C   UNL     1     -24.604  65.758 -25.467  0.00  0.00    +0.000 A 
ENDBRANCH  53  54
ENDBRANCH  51  53
ENDBRANCH   7  51
BRANCH   4  60
ATOM     60  O   UNL     1     -28.959  65.303 -22.524  0.00  0.00    +0.000 OA
BRANCH  60  62
ATOM     61  O   UNL     1     -27.080  64.788 -21.424  0.00  0.00    +0.000 OA
ATOM     62  C   UNL     1     -27.863  65.653 -21.810  0.00  0.00    +0.000 C 
ATOM     63  C   UNL     1     -27.687  67.082 -21.404  0.00  0.00    +0.000 C 
ENDBRANCH  60  62
ENDBRANCH   4  60
TORSDOF 17
ENDMDL
