MODEL 1
REMARK VINA RESULT:      -6.9      0.000      0.000
REMARK  Name = 
REMARK  13 active torsions:
REMARK  status: ('A' for Active; 'I' for Inactive)
REMARK    1  A    between atoms: O_1  and  C_13
REMARK    2  A    between atoms: O_1  and  C_19
REMARK    3  A    between atoms: O_3  and  C_14
REMARK    4  A    between atoms: O_4  and  C_22
REMARK    5  A    between atoms: O_5  and  C_24
REMARK    6  A    between atoms: O_6  and  C_26
REMARK    7  A    between atoms: O_8  and  C_30
REMARK    8  A    between atoms: O_11  and  C_35
REMARK    9  A    between atoms: O_11  and  C_39
REMARK   10  A    between atoms: N_12  and  C_21
REMARK   11  A    between atoms: C_14  and  C_25
REMARK   12  A    between atoms: C_23  and  C_29
REMARK   13  A    between atoms: C_25  and  C_30
REMARK                            x       y       z     vdW  Elec       q    Type
REMARK                         _______ _______ _______ _____ _____    ______ ____
ROOT
ATOM      1  O   UNL     1     -34.435  46.207 -21.726  0.00  0.00    +0.000 OA
ATOM      2  O   UNL     1     -35.251  50.567 -18.795  0.00  0.00    +0.000 OA
ATOM      3  C   UNL     1     -33.826  44.495 -16.929  0.00  0.00    +0.000 C 
ATOM      4  C   UNL     1     -33.749  45.646 -14.673  0.00  0.00    +0.000 C 
ATOM      5  C   UNL     1     -34.258  44.433 -15.463  0.00  0.00    +0.000 C 
ATOM      6  C   UNL     1     -34.286  46.952 -15.278  0.00  0.00    +0.000 C 
ATOM      7  C   UNL     1     -34.193  45.819 -17.571  0.00  0.00    +0.000 A 
ATOM      8  C   UNL     1     -34.372  46.979 -16.793  0.00  0.00    +0.000 A 
ATOM      9  C   UNL     1     -34.306  45.914 -18.971  0.00  0.00    +0.000 A 
ATOM     10  C   UNL     1     -34.684  48.192 -17.434  0.00  0.00    +0.000 A 
ATOM     11  C   UNL     1     -34.608  47.135 -19.605  0.00  0.00    +0.000 A 
ATOM     12  C   UNL     1     -34.799  48.274 -18.832  0.00  0.00    +0.000 A 
ATOM     13  C   UNL     1     -34.707  47.214 -21.080  0.00  0.00    +0.000 C 
ATOM     14  C   UNL     1     -35.118  49.558 -19.482  0.00  0.00    +0.000 C 
ATOM     15  C   UNL     1     -35.099  48.486 -21.733  0.00  0.00    +0.000 A 
ATOM     16  C   UNL     1     -35.284  49.624 -20.945  0.00  0.00    +0.000 A 
ATOM     17  C   UNL     1     -35.281  48.593 -23.121  0.00  0.00    +0.000 A 
ATOM     18  C   UNL     1     -35.642  50.849 -21.529  0.00  0.00    +0.000 A 
ATOM     19  C   UNL     1     -35.664  49.809 -23.699  0.00  0.00    +0.000 A 
ATOM     20  C   UNL     1     -35.833  50.940 -22.905  0.00  0.00    +0.000 A 
ENDROOT
BRANCH   4  21
ATOM     21  O   UNL     1     -32.316  45.668 -14.651  0.00  0.00    +0.000 OA
ATOM     22  H   UNL     1     -32.013  44.739 -14.737  0.00  0.00    +0.000 HD
ENDBRANCH   4  21
BRANCH   9  23
ATOM     23  O   UNL     1     -34.110  44.760 -19.691  0.00  0.00    +0.000 OA
ATOM     24  H   UNL     1     -34.988  44.360 -19.893  0.00  0.00    +0.000 HD
ENDBRANCH   9  23
BRANCH  10  25
ATOM     25  O   UNL     1     -34.875  49.285 -16.624  0.00  0.00    +0.000 OA
ATOM     26  H   UNL     1     -35.420  49.947 -17.106  0.00  0.00    +0.000 HD
ENDBRANCH  10  25
BRANCH   4  28
ATOM     27  O   UNL     1     -35.172  46.209 -12.772  0.00  0.00    +0.000 OA
ATOM     28  C   UNL     1     -34.222  45.551 -13.212  0.00  0.00    +0.000 C 
BRANCH  28  29
ATOM     29  C   UNL     1     -33.450  44.612 -12.288  0.00  0.00    +0.000 C 
BRANCH  29  30
ATOM     30  O   UNL     1     -32.458  45.314 -11.548  0.00  0.00    +0.000 OA
ATOM     31  H   UNL     1     -31.658  45.327 -12.112  0.00  0.00    +0.000 HD
ENDBRANCH  29  30
ENDBRANCH  28  29
ENDBRANCH   4  28
BRANCH  17  32
ATOM     32  O   UNL     1     -35.201  47.506 -23.950  0.00  0.00    +0.000 OA
ATOM     33  C   UNL     1     -34.857  47.909 -25.277  0.00  0.00    +0.000 C 
ENDBRANCH  17  32
BRANCH   3  34
ATOM     34  O   UNL     1     -32.392  44.402 -16.992  0.00  0.00    +0.000 OA
BRANCH  34  36
ATOM     35  O   UNL     1     -31.169  42.390 -16.956  0.00  0.00    +0.000 OA
ATOM     36  C   UNL     1     -31.955  43.273 -17.753  0.00  0.00    +0.000 C 
ATOM     37  C   UNL     1     -31.197  43.764 -18.989  0.00  0.00    +0.000 C 
ATOM     38  C   UNL     1     -29.849  44.375 -18.599  0.00  0.00    +0.000 C 
ATOM     39  C   UNL     1     -29.051  43.366 -17.748  0.00  0.00    +0.000 C 
ATOM     40  C   UNL     1     -29.911  42.939 -16.543  0.00  0.00    +0.000 C 
ATOM     41  C   UNL     1     -29.227  41.884 -15.681  0.00  0.00    +0.000 C 
BRANCH  38  42
ATOM     42  N   UNL     1     -29.083  44.758 -19.799  0.00  0.00    +0.000 NA
ATOM     43  H   UNL     1     -28.629  43.939 -20.199  0.00  0.00    +0.000 HD
ATOM     44  H   UNL     1     -28.327  45.375 -19.484  0.00  0.00    +0.000 HD
ENDBRANCH  38  42
BRANCH  39  45
ATOM     45  O   UNL     1     -28.710  42.243 -18.582  0.00  0.00    +0.000 OA
ATOM     46  H   UNL     1     -27.765  42.314 -18.796  0.00  0.00    +0.000 HD
ENDBRANCH  39  45
ENDBRANCH  34  36
ENDBRANCH   3  34
TORSDOF 11
ENDMDL
MODEL 2
REMARK VINA RESULT:      -6.8      4.744      8.557
REMARK  Name = 
REMARK  13 active torsions:
REMARK  status: ('A' for Active; 'I' for Inactive)
REMARK    1  A    between atoms: O_1  and  C_13
REMARK    2  A    between atoms: O_1  and  C_19
REMARK    3  A    between atoms: O_3  and  C_14
REMARK    4  A    between atoms: O_4  and  C_22
REMARK    5  A    between atoms: O_5  and  C_24
REMARK    6  A    between atoms: O_6  and  C_26
REMARK    7  A    between atoms: O_8  and  C_30
REMARK    8  A    between atoms: O_11  and  C_35
REMARK    9  A    between atoms: O_11  and  C_39
REMARK   10  A    between atoms: N_12  and  C_21
REMARK   11  A    between atoms: C_14  and  C_25
REMARK   12  A    between atoms: C_23  and  C_29
REMARK   13  A    between atoms: C_25  and  C_30
REMARK                            x       y       z     vdW  Elec       q    Type
REMARK                         _______ _______ _______ _____ _____    ______ ____
ROOT
ATOM      1  O   UNL     1     -32.364  44.554 -13.564  0.00  0.00    +0.000 OA
ATOM      2  O   UNL     1     -36.203  47.762 -15.362  0.00  0.00    +0.000 OA
ATOM      3  C   UNL     1     -35.374  45.157  -9.455  0.00  0.00    +0.000 C 
ATOM      4  C   UNL     1     -37.389  46.618  -8.979  0.00  0.00    +0.000 C 
ATOM      5  C   UNL     1     -36.757  45.230  -8.806  0.00  0.00    +0.000 C 
ATOM      6  C   UNL     1     -37.538  46.964 -10.468  0.00  0.00    +0.000 C 
ATOM      7  C   UNL     1     -35.402  45.620 -10.898  0.00  0.00    +0.000 A 
ATOM      8  C   UNL     1     -36.400  46.499 -11.360  0.00  0.00    +0.000 A 
ATOM      9  C   UNL     1     -34.387  45.216 -11.786  0.00  0.00    +0.000 A 
ATOM     10  C   UNL     1     -36.371  46.926 -12.700  0.00  0.00    +0.000 A 
ATOM     11  C   UNL     1     -34.359  45.657 -13.123  0.00  0.00    +0.000 A 
ATOM     12  C   UNL     1     -35.355  46.512 -13.578  0.00  0.00    +0.000 A 
ATOM     13  C   UNL     1     -33.274  45.229 -14.035  0.00  0.00    +0.000 C 
ATOM     14  C   UNL     1     -35.339  46.980 -14.977  0.00  0.00    +0.000 C 
ATOM     15  C   UNL     1     -33.294  45.639 -15.460  0.00  0.00    +0.000 A 
ATOM     16  C   UNL     1     -34.298  46.501 -15.903  0.00  0.00    +0.000 A 
ATOM     17  C   UNL     1     -32.331  45.198 -16.381  0.00  0.00    +0.000 A 
ATOM     18  C   UNL     1     -34.341  46.921 -17.242  0.00  0.00    +0.000 A 
ATOM     19  C   UNL     1     -32.391  45.596 -17.722  0.00  0.00    +0.000 A 
ATOM     20  C   UNL     1     -33.389  46.467 -18.150  0.00  0.00    +0.000 A 
ENDROOT
BRANCH   4  21
ATOM     21  O   UNL     1     -36.601  47.616  -8.319  0.00  0.00    +0.000 OA
ATOM     22  H   UNL     1     -35.736  47.206  -8.106  0.00  0.00    +0.000 HD
ENDBRANCH   4  21
BRANCH   9  23
ATOM     23  O   UNL     1     -33.426  44.368 -11.288  0.00  0.00    +0.000 OA
ATOM     24  H   UNL     1     -32.547  44.810 -11.361  0.00  0.00    +0.000 HD
ENDBRANCH   9  23
BRANCH  10  25
ATOM     25  O   UNL     1     -37.384  47.761 -13.103  0.00  0.00    +0.000 OA
ATOM     26  H   UNL     1     -37.462  48.501 -12.459  0.00  0.00    +0.000 HD
ENDBRANCH  10  25
BRANCH   4  28
ATOM     27  O   UNL     1     -39.743  46.005  -8.781  0.00  0.00    +0.000 OA
ATOM     28  C   UNL     1     -38.783  46.640  -8.329  0.00  0.00    +0.000 C 
BRANCH  28  29
ATOM     29  C   UNL     1     -38.961  47.510  -7.086  0.00  0.00    +0.000 C 
BRANCH  29  30
ATOM     30  O   UNL     1     -38.181  47.024  -6.000  0.00  0.00    +0.000 OA
ATOM     31  H   UNL     1     -37.246  47.160  -6.255  0.00  0.00    +0.000 HD
ENDBRANCH  29  30
ENDBRANCH  28  29
ENDBRANCH   4  28
BRANCH  17  32
ATOM     32  O   UNL     1     -31.366  44.287 -16.044  0.00  0.00    +0.000 OA
ATOM     33  C   UNL     1     -31.402  43.164 -16.928  0.00  0.00    +0.000 C 
ENDBRANCH  17  32
BRANCH   3  34
ATOM     34  O   UNL     1     -34.491  46.054  -8.761  0.00  0.00    +0.000 OA
BRANCH  34  36
ATOM     35  O   UNL     1     -33.455  43.978  -8.353  0.00  0.00    +0.000 OA
ATOM     36  C   UNL     1     -33.315  45.395  -8.281  0.00  0.00    +0.000 C 
ATOM     37  C   UNL     1     -33.016  45.875  -6.859  0.00  0.00    +0.000 C 
ATOM     38  C   UNL     1     -34.056  45.341  -5.870  0.00  0.00    +0.000 C 
ATOM     39  C   UNL     1     -34.148  43.807  -5.996  0.00  0.00    +0.000 C 
ATOM     40  C   UNL     1     -34.444  43.444  -7.464  0.00  0.00    +0.000 C 
ATOM     41  C   UNL     1     -34.483  41.937  -7.697  0.00  0.00    +0.000 C 
BRANCH  38  42
ATOM     42  N   UNL     1     -33.709  45.726  -4.490  0.00  0.00    +0.000 NA
ATOM     43  H   UNL     1     -33.730  46.740  -4.395  0.00  0.00    +0.000 HD
ATOM     44  H   UNL     1     -32.733  45.448  -4.341  0.00  0.00    +0.000 HD
ENDBRANCH  38  42
BRANCH  39  45
ATOM     45  O   UNL     1     -32.902  43.241  -5.549  0.00  0.00    +0.000 OA
ATOM     46  H   UNL     1     -32.348  43.972  -5.228  0.00  0.00    +0.000 HD
ENDBRANCH  39  45
ENDBRANCH  34  36
ENDBRANCH   3  34
TORSDOF 11
ENDMDL
MODEL 3
REMARK VINA RESULT:      -6.7      2.626      7.584
REMARK  Name = 
REMARK  13 active torsions:
REMARK  status: ('A' for Active; 'I' for Inactive)
REMARK    1  A    between atoms: O_1  and  C_13
REMARK    2  A    between atoms: O_1  and  C_19
REMARK    3  A    between atoms: O_3  and  C_14
REMARK    4  A    between atoms: O_4  and  C_22
REMARK    5  A    between atoms: O_5  and  C_24
REMARK    6  A    between atoms: O_6  and  C_26
REMARK    7  A    between atoms: O_8  and  C_30
REMARK    8  A    between atoms: O_11  and  C_35
REMARK    9  A    between atoms: O_11  and  C_39
REMARK   10  A    between atoms: N_12  and  C_21
REMARK   11  A    between atoms: C_14  and  C_25
REMARK   12  A    between atoms: C_23  and  C_29
REMARK   13  A    between atoms: C_25  and  C_30
REMARK                            x       y       z     vdW  Elec       q    Type
REMARK                         _______ _______ _______ _____ _____    ______ ____
ROOT
ATOM      1  O   UNL     1     -31.175  45.436 -18.520  0.00  0.00    +0.000 OA
ATOM      2  O   UNL     1     -33.138  42.683 -14.417  0.00  0.00    +0.000 OA
ATOM      3  C   UNL     1     -35.055  48.382 -16.914  0.00  0.00    +0.000 C 
ATOM      4  C   UNL     1     -36.877  48.059 -15.183  0.00  0.00    +0.000 C 
ATOM      5  C   UNL     1     -35.866  49.037 -15.794  0.00  0.00    +0.000 C 
ATOM      6  C   UNL     1     -36.161  46.831 -14.602  0.00  0.00    +0.000 C 
ATOM      7  C   UNL     1     -34.423  47.079 -16.465  0.00  0.00    +0.000 A 
ATOM      8  C   UNL     1     -34.969  46.335 -15.401  0.00  0.00    +0.000 A 
ATOM      9  C   UNL     1     -33.306  46.566 -17.150  0.00  0.00    +0.000 A 
ATOM     10  C   UNL     1     -34.367  45.117 -15.037  0.00  0.00    +0.000 A 
ATOM     11  C   UNL     1     -32.716  45.339 -16.787  0.00  0.00    +0.000 A 
ATOM     12  C   UNL     1     -33.250  44.617 -15.726  0.00  0.00    +0.000 A 
ATOM     13  C   UNL     1     -31.550  44.813 -17.532  0.00  0.00    +0.000 C 
ATOM     14  C   UNL     1     -32.641  43.332 -15.333  0.00  0.00    +0.000 C 
ATOM     15  C   UNL     1     -30.891  43.560 -17.094  0.00  0.00    +0.000 A 
ATOM     16  C   UNL     1     -31.439  42.841 -16.030  0.00  0.00    +0.000 A 
ATOM     17  C   UNL     1     -29.737  43.060 -17.719  0.00  0.00    +0.000 A 
ATOM     18  C   UNL     1     -30.850  41.643 -15.596  0.00  0.00    +0.000 A 
ATOM     19  C   UNL     1     -29.136  41.879 -17.269  0.00  0.00    +0.000 A 
ATOM     20  C   UNL     1     -29.699  41.164 -16.215  0.00  0.00    +0.000 A 
ENDROOT
BRANCH   4  21
ATOM     21  O   UNL     1     -37.838  47.648 -16.163  0.00  0.00    +0.000 OA
ATOM     22  H   UNL     1     -38.492  48.374 -16.247  0.00  0.00    +0.000 HD
ENDBRANCH   4  21
BRANCH   9  23
ATOM     23  O   UNL     1     -32.815  47.318 -18.191  0.00  0.00    +0.000 OA
ATOM     24  H   UNL     1     -32.462  46.710 -18.882  0.00  0.00    +0.000 HD
ENDBRANCH   9  23
BRANCH  10  25
ATOM     25  O   UNL     1     -34.925  44.447 -13.975  0.00  0.00    +0.000 OA
ATOM     26  H   UNL     1     -35.862  44.731 -13.877  0.00  0.00    +0.000 HD
ENDBRANCH  10  25
BRANCH   4  28
ATOM     27  O   UNL     1     -38.036  48.157 -13.038  0.00  0.00    +0.000 OA
ATOM     28  C   UNL     1     -37.655  48.753 -14.052  0.00  0.00    +0.000 C 
BRANCH  28  29
ATOM     29  C   UNL     1     -37.972  50.236 -14.230  0.00  0.00    +0.000 C 
BRANCH  29  30
ATOM     30  O   UNL     1     -38.885  50.693 -13.239  0.00  0.00    +0.000 OA
ATOM     31  H   UNL     1     -39.703  50.169 -13.362  0.00  0.00    +0.000 HD
ENDBRANCH  29  30
ENDBRANCH  28  29
ENDBRANCH   4  28
BRANCH  17  32
ATOM     32  O   UNL     1     -29.093  43.748 -18.712  0.00  0.00    +0.000 OA
ATOM     33  C   UNL     1     -28.963  42.938 -19.883  0.00  0.00    +0.000 C 
ENDBRANCH  17  32
BRANCH   3  34
ATOM     34  O   UNL     1     -35.944  48.047 -17.993  0.00  0.00    +0.000 OA
BRANCH  34  36
ATOM     35  O   UNL     1     -37.572  48.901 -19.465  0.00  0.00    +0.000 OA
ATOM     36  C   UNL     1     -36.419  49.206 -18.685  0.00  0.00    +0.000 C 
ATOM     37  C   UNL     1     -35.283  49.784 -19.532  0.00  0.00    +0.000 C 
ATOM     38  C   UNL     1     -34.960  48.867 -20.715  0.00  0.00    +0.000 C 
ATOM     39  C   UNL     1     -36.247  48.587 -21.518  0.00  0.00    +0.000 C 
ATOM     40  C   UNL     1     -37.315  48.018 -20.565  0.00  0.00    +0.000 C 
ATOM     41  C   UNL     1     -38.650  47.775 -21.261  0.00  0.00    +0.000 C 
BRANCH  38  42
ATOM     42  N   UNL     1     -33.934  49.476 -21.581  0.00  0.00    +0.000 NA
ATOM     43  H   UNL     1     -33.891  50.480 -21.418  0.00  0.00    +0.000 HD
ATOM     44  H   UNL     1     -34.254  49.359 -22.548  0.00  0.00    +0.000 HD
ENDBRANCH  38  42
BRANCH  39  45
ATOM     45  O   UNL     1     -36.679  49.820 -22.124  0.00  0.00    +0.000 OA
ATOM     46  H   UNL     1     -36.748  49.666 -23.081  0.00  0.00    +0.000 HD
ENDBRANCH  39  45
ENDBRANCH  34  36
ENDBRANCH   3  34
TORSDOF 11
ENDMDL
MODEL 4
REMARK VINA RESULT:      -6.7      2.650      8.313
REMARK  Name = 
REMARK  13 active torsions:
REMARK  status: ('A' for Active; 'I' for Inactive)
REMARK    1  A    between atoms: O_1  and  C_13
REMARK    2  A    between atoms: O_1  and  C_19
REMARK    3  A    between atoms: O_3  and  C_14
REMARK    4  A    between atoms: O_4  and  C_22
REMARK    5  A    between atoms: O_5  and  C_24
REMARK    6  A    between atoms: O_6  and  C_26
REMARK    7  A    between atoms: O_8  and  C_30
REMARK    8  A    between atoms: O_11  and  C_35
REMARK    9  A    between atoms: O_11  and  C_39
REMARK   10  A    between atoms: N_12  and  C_21
REMARK   11  A    between atoms: C_14  and  C_25
REMARK   12  A    between atoms: C_23  and  C_29
REMARK   13  A    between atoms: C_25  and  C_30
REMARK                            x       y       z     vdW  Elec       q    Type
REMARK                         _______ _______ _______ _____ _____    ______ ____
ROOT
ATOM      1  O   UNL     1     -32.833  44.647 -11.564  0.00  0.00    +0.000 OA
ATOM      2  O   UNL     1     -37.638  46.922 -11.607  0.00  0.00    +0.000 OA
ATOM      3  C   UNL     1     -33.226  46.409 -16.365  0.00  0.00    +0.000 C 
ATOM      4  C   UNL     1     -35.115  47.480 -17.671  0.00  0.00    +0.000 C 
ATOM      5  C   UNL     1     -33.612  47.501 -17.365  0.00  0.00    +0.000 C 
ATOM      6  C   UNL     1     -35.933  47.691 -16.389  0.00  0.00    +0.000 C 
ATOM      7  C   UNL     1     -34.086  46.455 -15.118  0.00  0.00    +0.000 A 
ATOM      8  C   UNL     1     -35.374  47.026 -15.144  0.00  0.00    +0.000 A 
ATOM      9  C   UNL     1     -33.625  45.872 -13.923  0.00  0.00    +0.000 A 
ATOM     10  C   UNL     1     -36.149  47.022 -13.970  0.00  0.00    +0.000 A 
ATOM     11  C   UNL     1     -34.412  45.862 -12.755  0.00  0.00    +0.000 A 
ATOM     12  C   UNL     1     -35.676  46.441 -12.782  0.00  0.00    +0.000 A 
ATOM     13  C   UNL     1     -33.912  45.230 -11.514  0.00  0.00    +0.000 C 
ATOM     14  C   UNL     1     -36.510  46.439 -11.566  0.00  0.00    +0.000 C 
ATOM     15  C   UNL     1     -34.716  45.291 -10.270  0.00  0.00    +0.000 A 
ATOM     16  C   UNL     1     -35.986  45.871 -10.311  0.00  0.00    +0.000 A 
ATOM     17  C   UNL     1     -34.253  44.775  -9.050  0.00  0.00    +0.000 A 
ATOM     18  C   UNL     1     -36.782  45.934  -9.157  0.00  0.00    +0.000 A 
ATOM     19  C   UNL     1     -35.038  44.862  -7.894  0.00  0.00    +0.000 A 
ATOM     20  C   UNL     1     -36.306  45.431  -7.950  0.00  0.00    +0.000 A 
ENDROOT
BRANCH   4  21
ATOM     21  O   UNL     1     -35.485  46.242 -18.292  0.00  0.00    +0.000 OA
ATOM     22  H   UNL     1     -35.417  46.374 -19.261  0.00  0.00    +0.000 HD
ENDBRANCH   4  21
BRANCH   9  23
ATOM     23  O   UNL     1     -32.369  45.315 -13.947  0.00  0.00    +0.000 OA
ATOM     24  H   UNL     1     -31.762  45.923 -14.431  0.00  0.00    +0.000 HD
ENDBRANCH   9  23
BRANCH  10  25
ATOM     25  O   UNL     1     -37.385  47.617 -14.046  0.00  0.00    +0.000 OA
ATOM     26  H   UNL     1     -37.495  48.221 -13.277  0.00  0.00    +0.000 HD
ENDBRANCH  10  25
BRANCH   4  28
ATOM     27  O   UNL     1     -36.165  48.419 -19.664  0.00  0.00    +0.000 OA
ATOM     28  C   UNL     1     -35.460  48.603 -18.664  0.00  0.00    +0.000 C 
BRANCH  28  29
ATOM     29  C   UNL     1     -34.874  49.985 -18.387  0.00  0.00    +0.000 C 
BRANCH  29  30
ATOM     30  O   UNL     1     -34.333  50.565 -19.568  0.00  0.00    +0.000 OA
ATOM     31  H   UNL     1     -35.064  50.584 -20.220  0.00  0.00    +0.000 HD
ENDBRANCH  29  30
ENDBRANCH  28  29
ENDBRANCH   4  28
BRANCH  17  32
ATOM     32  O   UNL     1     -32.989  44.267  -8.909  0.00  0.00    +0.000 OA
ATOM     33  C   UNL     1     -32.468  44.565  -7.612  0.00  0.00    +0.000 C 
ENDBRANCH  17  32
BRANCH   3  34
ATOM     34  O   UNL     1     -33.461  45.126 -16.969  0.00  0.00    +0.000 OA
BRANCH  34  36
ATOM     35  O   UNL     1     -32.796  43.568 -18.606  0.00  0.00    +0.000 OA
ATOM     36  C   UNL     1     -32.530  44.839 -18.016  0.00  0.00    +0.000 C 
ATOM     37  C   UNL     1     -31.107  44.932 -17.461  0.00  0.00    +0.000 C 
ATOM     38  C   UNL     1     -30.814  43.773 -16.505  0.00  0.00    +0.000 C 
ATOM     39  C   UNL     1     -31.114  42.434 -17.208  0.00  0.00    +0.000 C 
ATOM     40  C   UNL     1     -32.564  42.458 -17.729  0.00  0.00    +0.000 C 
ATOM     41  C   UNL     1     -32.928  41.197 -18.504  0.00  0.00    +0.000 C 
BRANCH  38  42
ATOM     42  N   UNL     1     -29.413  43.815 -16.049  0.00  0.00    +0.000 NA
ATOM     43  H   UNL     1     -28.785  43.736 -16.846  0.00  0.00    +0.000 HD
ATOM     44  H   UNL     1     -29.259  42.973 -15.483  0.00  0.00    +0.000 HD
ENDBRANCH  38  42
BRANCH  39  45
ATOM     45  O   UNL     1     -30.168  42.265 -18.280  0.00  0.00    +0.000 OA
ATOM     46  H   UNL     1     -30.361  42.941 -18.950  0.00  0.00    +0.000 HD
ENDBRANCH  39  45
ENDBRANCH  34  36
ENDBRANCH   3  34
TORSDOF 11
ENDMDL
MODEL 5
REMARK VINA RESULT:      -6.6     17.788     20.675
REMARK  Name = 
REMARK  13 active torsions:
REMARK  status: ('A' for Active; 'I' for Inactive)
REMARK    1  A    between atoms: O_1  and  C_13
REMARK    2  A    between atoms: O_1  and  C_19
REMARK    3  A    between atoms: O_3  and  C_14
REMARK    4  A    between atoms: O_4  and  C_22
REMARK    5  A    between atoms: O_5  and  C_24
REMARK    6  A    between atoms: O_6  and  C_26
REMARK    7  A    between atoms: O_8  and  C_30
REMARK    8  A    between atoms: O_11  and  C_35
REMARK    9  A    between atoms: O_11  and  C_39
REMARK   10  A    between atoms: N_12  and  C_21
REMARK   11  A    between atoms: C_14  and  C_25
REMARK   12  A    between atoms: C_23  and  C_29
REMARK   13  A    between atoms: C_25  and  C_30
REMARK                            x       y       z     vdW  Elec       q    Type
REMARK                         _______ _______ _______ _____ _____    ______ ____
ROOT
ATOM      1  O   UNL     1     -14.458  53.939 -20.636  0.00  0.00    +0.000 OA
ATOM      2  O   UNL     1     -17.440  57.660 -22.989  0.00  0.00    +0.000 OA
ATOM      3  C   UNL     1     -15.068  52.089 -25.381  0.00  0.00    +0.000 C 
ATOM      4  C   UNL     1     -16.458  52.829 -27.367  0.00  0.00    +0.000 C 
ATOM      5  C   UNL     1     -15.105  52.277 -26.899  0.00  0.00    +0.000 C 
ATOM      6  C   UNL     1     -16.748  54.185 -26.707  0.00  0.00    +0.000 C 
ATOM      7  C   UNL     1     -15.482  53.348 -24.646  0.00  0.00    +0.000 A 
ATOM      8  C   UNL     1     -16.303  54.314 -25.261  0.00  0.00    +0.000 A 
ATOM      9  C   UNL     1     -15.092  53.542 -23.307  0.00  0.00    +0.000 A 
ATOM     10  C   UNL     1     -16.686  55.453 -24.531  0.00  0.00    +0.000 A 
ATOM     11  C   UNL     1     -15.490  54.680 -22.579  0.00  0.00    +0.000 A 
ATOM     12  C   UNL     1     -16.287  55.637 -23.197  0.00  0.00    +0.000 A 
ATOM     13  C   UNL     1     -15.079  54.855 -21.168  0.00  0.00    +0.000 C 
ATOM     14  C   UNL     1     -16.708  56.836 -22.448  0.00  0.00    +0.000 C 
ATOM     15  C   UNL     1     -15.439  56.092 -20.435  0.00  0.00    +0.000 A 
ATOM     16  C   UNL     1     -16.244  57.044 -21.065  0.00  0.00    +0.000 A 
ATOM     17  C   UNL     1     -15.010  56.339 -19.122  0.00  0.00    +0.000 A 
ATOM     18  C   UNL     1     -16.617  58.221 -20.398  0.00  0.00    +0.000 A 
ATOM     19  C   UNL     1     -15.361  57.525 -18.467  0.00  0.00    +0.000 A 
ATOM     20  C   UNL     1     -16.173  58.461 -19.100  0.00  0.00    +0.000 A 
ENDROOT
BRANCH   4  21
ATOM     21  O   UNL     1     -17.510  51.903 -27.069  0.00  0.00    +0.000 OA
ATOM     22  H   UNL     1     -17.517  51.235 -27.787  0.00  0.00    +0.000 HD
ENDBRANCH   4  21
BRANCH   9  23
ATOM     23  O   UNL     1     -14.303  52.568 -22.742  0.00  0.00    +0.000 OA
ATOM     24  H   UNL     1     -14.664  52.346 -21.852  0.00  0.00    +0.000 HD
ENDBRANCH   9  23
BRANCH  10  25
ATOM     25  O   UNL     1     -17.463  56.374 -25.191  0.00  0.00    +0.000 OA
ATOM     26  H   UNL     1     -18.268  55.924 -25.535  0.00  0.00    +0.000 HD
ENDBRANCH  10  25
BRANCH   4  28
ATOM     27  O   UNL     1     -15.462  52.740 -29.593  0.00  0.00    +0.000 OA
ATOM     28  C   UNL     1     -16.443  53.020 -28.893  0.00  0.00    +0.000 C 
BRANCH  28  29
ATOM     29  C   UNL     1     -17.700  53.598 -29.538  0.00  0.00    +0.000 C 
BRANCH  29  30
ATOM     30  O   UNL     1     -18.847  52.815 -29.230  0.00  0.00    +0.000 OA
ATOM     31  H   UNL     1     -19.175  52.467 -30.084  0.00  0.00    +0.000 HD
ENDBRANCH  29  30
ENDBRANCH  28  29
ENDBRANCH   4  28
BRANCH  17  32
ATOM     32  O   UNL     1     -14.152  55.496 -18.467  0.00  0.00    +0.000 OA
ATOM     33  C   UNL     1     -14.742  55.017 -17.257  0.00  0.00    +0.000 C 
ENDBRANCH  17  32
BRANCH   3  34
ATOM     34  O   UNL     1     -16.025  51.079 -25.018  0.00  0.00    +0.000 OA
BRANCH  34  36
ATOM     35  O   UNL     1     -16.605  49.055 -26.075  0.00  0.00    +0.000 OA
ATOM     36  C   UNL     1     -15.586  49.764 -25.373  0.00  0.00    +0.000 C 
ATOM     37  C   UNL     1     -15.137  49.028 -24.109  0.00  0.00    +0.000 C 
ATOM     38  C   UNL     1     -16.333  48.689 -23.216  0.00  0.00    +0.000 C 
ATOM     39  C   UNL     1     -17.388  47.919 -24.035  0.00  0.00    +0.000 C 
ATOM     40  C   UNL     1     -17.757  48.749 -25.279  0.00  0.00    +0.000 C 
ATOM     41  C   UNL     1     -18.747  48.030 -26.189  0.00  0.00    +0.000 C 
BRANCH  38  42
ATOM     42  N   UNL     1     -15.905  47.897 -22.049  0.00  0.00    +0.000 NA
ATOM     43  H   UNL     1     -14.899  47.984 -21.919  0.00  0.00    +0.000 HD
ATOM     44  H   UNL     1     -16.076  46.912 -22.280  0.00  0.00    +0.000 HD
ENDBRANCH  38  42
BRANCH  39  45
ATOM     45  O   UNL     1     -16.835  46.640 -24.395  0.00  0.00    +0.000 OA
ATOM     46  H   UNL     1     -16.544  46.206 -23.575  0.00  0.00    +0.000 HD
ENDBRANCH  39  45
ENDBRANCH  34  36
ENDBRANCH   3  34
TORSDOF 11
ENDMDL
MODEL 6
REMARK VINA RESULT:      -6.6     20.095     21.639
REMARK  Name = 
REMARK  13 active torsions:
REMARK  status: ('A' for Active; 'I' for Inactive)
REMARK    1  A    between atoms: O_1  and  C_13
REMARK    2  A    between atoms: O_1  and  C_19
REMARK    3  A    between atoms: O_3  and  C_14
REMARK    4  A    between atoms: O_4  and  C_22
REMARK    5  A    between atoms: O_5  and  C_24
REMARK    6  A    between atoms: O_6  and  C_26
REMARK    7  A    between atoms: O_8  and  C_30
REMARK    8  A    between atoms: O_11  and  C_35
REMARK    9  A    between atoms: O_11  and  C_39
REMARK   10  A    between atoms: N_12  and  C_21
REMARK   11  A    between atoms: C_14  and  C_25
REMARK   12  A    between atoms: C_23  and  C_29
REMARK   13  A    between atoms: C_25  and  C_30
REMARK                            x       y       z     vdW  Elec       q    Type
REMARK                         _______ _______ _______ _____ _____    ______ ____
ROOT
ATOM      1  O   UNL     1     -16.650  58.379 -22.898  0.00  0.00    +0.000 OA
ATOM      2  O   UNL     1     -15.190  53.396 -21.752  0.00  0.00    +0.000 OA
ATOM      3  C   UNL     1     -15.035  58.744 -18.043  0.00  0.00    +0.000 C 
ATOM      4  C   UNL     1     -14.302  57.032 -16.325  0.00  0.00    +0.000 C 
ATOM      5  C   UNL     1     -14.033  58.413 -16.936  0.00  0.00    +0.000 C 
ATOM      6  C   UNL     1     -14.212  55.937 -17.398  0.00  0.00    +0.000 C 
ATOM      7  C   UNL     1     -15.114  57.642 -19.081  0.00  0.00    +0.000 A 
ATOM      8  C   UNL     1     -14.761  56.316 -18.761  0.00  0.00    +0.000 A 
ATOM      9  C   UNL     1     -15.599  57.924 -20.371  0.00  0.00    +0.000 A 
ATOM     10  C   UNL     1     -14.877  55.320 -19.747  0.00  0.00    +0.000 A 
ATOM     11  C   UNL     1     -15.724  56.918 -21.350  0.00  0.00    +0.000 A 
ATOM     12  C   UNL     1     -15.359  55.614 -21.034  0.00  0.00    +0.000 A 
ATOM     13  C   UNL     1     -16.250  57.236 -22.696  0.00  0.00    +0.000 C 
ATOM     14  C   UNL     1     -15.481  54.551 -22.049  0.00  0.00    +0.000 C 
ATOM     15  C   UNL     1     -16.306  56.186 -23.741  0.00  0.00    +0.000 A 
ATOM     16  C   UNL     1     -15.941  54.880 -23.410  0.00  0.00    +0.000 A 
ATOM     17  C   UNL     1     -16.725  56.455 -25.054  0.00  0.00    +0.000 A 
ATOM     18  C   UNL     1     -15.995  53.857 -24.370  0.00  0.00    +0.000 A 
ATOM     19  C   UNL     1     -16.753  55.439 -26.016  0.00  0.00    +0.000 A 
ATOM     20  C   UNL     1     -16.398  54.138 -25.671  0.00  0.00    +0.000 A 
ENDROOT
BRANCH   4  21
ATOM     21  O   UNL     1     -15.591  57.000 -15.699  0.00  0.00    +0.000 OA
ATOM     22  H   UNL     1     -16.148  57.668 -16.153  0.00  0.00    +0.000 HD
ENDBRANCH   4  21
BRANCH   9  23
ATOM     23  O   UNL     1     -15.945  59.228 -20.635  0.00  0.00    +0.000 OA
ATOM     24  H   UNL     1     -15.556  59.489 -21.502  0.00  0.00    +0.000 HD
ENDBRANCH   9  23
BRANCH  10  25
ATOM     25  O   UNL     1     -14.493  54.050 -19.389  0.00  0.00    +0.000 OA
ATOM     26  H   UNL     1     -13.683  54.108 -18.833  0.00  0.00    +0.000 HD
ENDBRANCH  10  25
BRANCH   4  28
ATOM     27  O   UNL     1     -12.405  55.851 -15.345  0.00  0.00    +0.000 OA
ATOM     28  C   UNL     1     -13.263  56.734 -15.231  0.00  0.00    +0.000 C 
BRANCH  28  29
ATOM     29  C   UNL     1     -13.334  57.568 -13.954  0.00  0.00    +0.000 C 
BRANCH  29  30
ATOM     30  O   UNL     1     -14.481  57.234 -13.181  0.00  0.00    +0.000 OA
ATOM     31  H   UNL     1     -14.649  56.283 -13.341  0.00  0.00    +0.000 HD
ENDBRANCH  29  30
ENDBRANCH  28  29
ENDBRANCH   4  28
BRANCH  17  32
ATOM     32  O   UNL     1     -17.018  57.724 -25.478  0.00  0.00    +0.000 OA
ATOM     33  C   UNL     1     -16.498  57.949 -26.790  0.00  0.00    +0.000 C 
ENDBRANCH  17  32
BRANCH   3  34
ATOM     34  O   UNL     1     -16.346  58.846 -17.464  0.00  0.00    +0.000 OA
BRANCH  34  36
ATOM     35  O   UNL     1     -16.086  60.704 -16.040  0.00  0.00    +0.000 OA
ATOM     36  C   UNL     1     -16.724  60.203 -17.212  0.00  0.00    +0.000 C 
ATOM     37  C   UNL     1     -18.250  60.290 -17.121  0.00  0.00    +0.000 C 
ATOM     38  C   UNL     1     -18.763  59.618 -15.846  0.00  0.00    +0.000 C 
ATOM     39  C   UNL     1     -18.038  60.212 -14.621  0.00  0.00    +0.000 C 
ATOM     40  C   UNL     1     -16.518  60.075 -14.826  0.00  0.00    +0.000 C 
ATOM     41  C   UNL     1     -15.716  60.703 -13.691  0.00  0.00    +0.000 C 
BRANCH  38  42
ATOM     42  N   UNL     1     -20.221  59.789 -15.717  0.00  0.00    +0.000 NA
ATOM     43  H   UNL     1     -20.516  60.639 -16.194  0.00  0.00    +0.000 HD
ATOM     44  H   UNL     1     -20.416  59.942 -14.721  0.00  0.00    +0.000 HD
ENDBRANCH  38  42
BRANCH  39  45
ATOM     45  O   UNL     1     -18.435  61.589 -14.486  0.00  0.00    +0.000 OA
ATOM     46  H   UNL     1     -17.840  62.003 -13.839  0.00  0.00    +0.000 HD
ENDBRANCH  39  45
ENDBRANCH  34  36
ENDBRANCH   3  34
TORSDOF 11
ENDMDL
MODEL 7
REMARK VINA RESULT:      -6.6      2.960      6.097
REMARK  Name = 
REMARK  13 active torsions:
REMARK  status: ('A' for Active; 'I' for Inactive)
REMARK    1  A    between atoms: O_1  and  C_13
REMARK    2  A    between atoms: O_1  and  C_19
REMARK    3  A    between atoms: O_3  and  C_14
REMARK    4  A    between atoms: O_4  and  C_22
REMARK    5  A    between atoms: O_5  and  C_24
REMARK    6  A    between atoms: O_6  and  C_26
REMARK    7  A    between atoms: O_8  and  C_30
REMARK    8  A    between atoms: O_11  and  C_35
REMARK    9  A    between atoms: O_11  and  C_39
REMARK   10  A    between atoms: N_12  and  C_21
REMARK   11  A    between atoms: C_14  and  C_25
REMARK   12  A    between atoms: C_23  and  C_29
REMARK   13  A    between atoms: C_25  and  C_30
REMARK                            x       y       z     vdW  Elec       q    Type
REMARK                         _______ _______ _______ _____ _____    ______ ____
ROOT
ATOM      1  O   UNL     1     -36.928  51.992 -20.366  0.00  0.00    +0.000 OA
ATOM      2  O   UNL     1     -35.454  47.979 -23.528  0.00  0.00    +0.000 OA
ATOM      3  C   UNL     1     -34.519  48.814 -17.140  0.00  0.00    +0.000 C 
ATOM      4  C   UNL     1     -33.565  46.480 -17.393  0.00  0.00    +0.000 C 
ATOM      5  C   UNL     1     -33.358  47.879 -16.797  0.00  0.00    +0.000 C 
ATOM      6  C   UNL     1     -33.688  46.553 -18.922  0.00  0.00    +0.000 C 
ATOM      7  C   UNL     1     -34.804  48.839 -18.629  0.00  0.00    +0.000 A 
ATOM      8  C   UNL     1     -34.444  47.757 -19.456  0.00  0.00    +0.000 A 
ATOM      9  C   UNL     1     -35.488  49.930 -19.196  0.00  0.00    +0.000 A 
ATOM     10  C   UNL     1     -34.754  47.810 -20.827  0.00  0.00    +0.000 A 
ATOM     11  C   UNL     1     -35.804  49.971 -20.568  0.00  0.00    +0.000 A 
ATOM     12  C   UNL     1     -35.433  48.907 -21.383  0.00  0.00    +0.000 A 
ATOM     13  C   UNL     1     -36.536  51.123 -21.140  0.00  0.00    +0.000 C 
ATOM     14  C   UNL     1     -35.755  48.937 -22.822  0.00  0.00    +0.000 C 
ATOM     15  C   UNL     1     -36.798  51.191 -22.597  0.00  0.00    +0.000 A 
ATOM     16  C   UNL     1     -36.424  50.114 -23.404  0.00  0.00    +0.000 A 
ATOM     17  C   UNL     1     -37.420  52.296 -23.198  0.00  0.00    +0.000 A 
ATOM     18  C   UNL     1     -36.667  50.137 -24.786  0.00  0.00    +0.000 A 
ATOM     19  C   UNL     1     -37.638  52.329 -24.581  0.00  0.00    +0.000 A 
ATOM     20  C   UNL     1     -37.273  51.244 -25.373  0.00  0.00    +0.000 A 
ENDROOT
BRANCH   4  21
ATOM     21  O   UNL     1     -34.733  45.863 -16.836  0.00  0.00    +0.000 OA
ATOM     22  H   UNL     1     -34.448  45.013 -16.439  0.00  0.00    +0.000 HD
ENDBRANCH   4  21
BRANCH   9  23
ATOM     23  O   UNL     1     -35.831  50.957 -18.349  0.00  0.00    +0.000 OA
ATOM     24  H   UNL     1     -35.864  50.609 -17.428  0.00  0.00    +0.000 HD
ENDBRANCH   9  23
BRANCH  10  25
ATOM     25  O   UNL     1     -34.355  46.740 -21.590  0.00  0.00    +0.000 OA
ATOM     26  H   UNL     1     -34.263  45.951 -21.009  0.00  0.00    +0.000 HD
ENDBRANCH  10  25
BRANCH   4  28
ATOM     27  O   UNL     1     -31.451  45.345 -17.834  0.00  0.00    +0.000 OA
ATOM     28  C   UNL     1     -32.369  45.580 -17.039  0.00  0.00    +0.000 C 
BRANCH  28  29
ATOM     29  C   UNL     1     -32.354  44.952 -15.648  0.00  0.00    +0.000 C 
BRANCH  29  30
ATOM     30  O   UNL     1     -31.230  45.391 -14.893  0.00  0.00    +0.000 OA
ATOM     31  H   UNL     1     -31.397  46.333 -14.683  0.00  0.00    +0.000 HD
ENDBRANCH  29  30
ENDBRANCH  28  29
ENDBRANCH   4  28
BRANCH  17  32
ATOM     32  O   UNL     1     -37.740  53.424 -22.490  0.00  0.00    +0.000 OA
ATOM     33  C   UNL     1     -38.034  54.508 -23.374  0.00  0.00    +0.000 C 
ENDBRANCH  17  32
BRANCH   3  34
ATOM     34  O   UNL     1     -35.712  48.318 -16.510  0.00  0.00    +0.000 OA
BRANCH  34  36
ATOM     35  O   UNL     1     -35.649  48.319 -14.156  0.00  0.00    +0.000 OA
ATOM     36  C   UNL     1     -36.040  49.043 -15.321  0.00  0.00    +0.000 C 
ATOM     37  C   UNL     1     -37.536  49.366 -15.326  0.00  0.00    +0.000 C 
ATOM     38  C   UNL     1     -38.371  48.100 -15.119  0.00  0.00    +0.000 C 
ATOM     39  C   UNL     1     -37.902  47.375 -13.841  0.00  0.00    +0.000 C 
ATOM     40  C   UNL     1     -36.388  47.109 -13.945  0.00  0.00    +0.000 C 
ATOM     41  C   UNL     1     -35.821  46.456 -12.690  0.00  0.00    +0.000 C 
BRANCH  38  42
ATOM     42  N   UNL     1     -39.805  48.430 -15.028  0.00  0.00    +0.000 NA
ATOM     43  H   UNL     1     -40.133  48.804 -15.917  0.00  0.00    +0.000 HD
ATOM     44  H   UNL     1     -39.891  49.196 -14.351  0.00  0.00    +0.000 HD
ENDBRANCH  38  42
BRANCH  39  45
ATOM     45  O   UNL     1     -38.219  48.205 -12.708  0.00  0.00    +0.000 OA
ATOM     46  H   UNL     1     -38.980  48.757 -12.954  0.00  0.00    +0.000 HD
ENDBRANCH  39  45
ENDBRANCH  34  36
ENDBRANCH   3  34
TORSDOF 11
ENDMDL
MODEL 8
REMARK VINA RESULT:      -6.6     19.447     22.808
REMARK  Name = 
REMARK  13 active torsions:
REMARK  status: ('A' for Active; 'I' for Inactive)
REMARK    1  A    between atoms: O_1  and  C_13
REMARK    2  A    between atoms: O_1  and  C_19
REMARK    3  A    between atoms: O_3  and  C_14
REMARK    4  A    between atoms: O_4  and  C_22
REMARK    5  A    between atoms: O_5  and  C_24
REMARK    6  A    between atoms: O_6  and  C_26
REMARK    7  A    between atoms: O_8  and  C_30
REMARK    8  A    between atoms: O_11  and  C_35
REMARK    9  A    between atoms: O_11  and  C_39
REMARK   10  A    between atoms: N_12  and  C_21
REMARK   11  A    between atoms: C_14  and  C_25
REMARK   12  A    between atoms: C_23  and  C_29
REMARK   13  A    between atoms: C_25  and  C_30
REMARK                            x       y       z     vdW  Elec       q    Type
REMARK                         _______ _______ _______ _____ _____    ______ ____
ROOT
ATOM      1  O   UNL     1     -31.367  62.630  -3.285  0.00  0.00    +0.000 OA
ATOM      2  O   UNL     1     -30.069  67.100  -5.852  0.00  0.00    +0.000 OA
ATOM      3  C   UNL     1     -34.230  62.385  -7.534  0.00  0.00    +0.000 C 
ATOM      4  C   UNL     1     -34.662  64.009  -9.431  0.00  0.00    +0.000 C 
ATOM      5  C   UNL     1     -34.402  62.547  -9.045  0.00  0.00    +0.000 C 
ATOM      6  C   UNL     1     -33.498  64.904  -8.981  0.00  0.00    +0.000 C 
ATOM      7  C   UNL     1     -33.191  63.339  -6.979  0.00  0.00    +0.000 A 
ATOM      8  C   UNL     1     -32.877  64.540  -7.644  0.00  0.00    +0.000 A 
ATOM      9  C   UNL     1     -32.563  63.058  -5.750  0.00  0.00    +0.000 A 
ATOM     10  C   UNL     1     -31.928  65.409  -7.077  0.00  0.00    +0.000 A 
ATOM     11  C   UNL     1     -31.622  63.940  -5.184  0.00  0.00    +0.000 A 
ATOM     12  C   UNL     1     -31.304  65.116  -5.853  0.00  0.00    +0.000 A 
ATOM     13  C   UNL     1     -30.985  63.630  -3.885  0.00  0.00    +0.000 C 
ATOM     14  C   UNL     1     -30.318  66.047  -5.273  0.00  0.00    +0.000 C 
ATOM     15  C   UNL     1     -29.941  64.526  -3.334  0.00  0.00    +0.000 A 
ATOM     16  C   UNL     1     -29.634  65.707  -4.013  0.00  0.00    +0.000 A 
ATOM     17  C   UNL     1     -29.253  64.237  -2.145  0.00  0.00    +0.000 A 
ATOM     18  C   UNL     1     -28.660  66.588  -3.515  0.00  0.00    +0.000 A 
ATOM     19  C   UNL     1     -28.264  65.103  -1.663  0.00  0.00    +0.000 A 
ATOM     20  C   UNL     1     -27.976  66.284  -2.342  0.00  0.00    +0.000 A 
ENDROOT
BRANCH   4  21
ATOM     21  O   UNL     1     -35.889  64.472  -8.853  0.00  0.00    +0.000 OA
ATOM     22  H   UNL     1     -35.764  64.480  -7.880  0.00  0.00    +0.000 HD
ENDBRANCH   4  21
BRANCH   9  23
ATOM     23  O   UNL     1     -32.910  61.882  -5.129  0.00  0.00    +0.000 OA
ATOM     24  H   UNL     1     -33.850  61.943  -4.839  0.00  0.00    +0.000 HD
ENDBRANCH   9  23
BRANCH  10  25
ATOM     25  O   UNL     1     -31.641  66.553  -7.783  0.00  0.00    +0.000 OA
ATOM     26  H   UNL     1     -31.774  66.377  -8.742  0.00  0.00    +0.000 HD
ENDBRANCH  10  25
BRANCH   4  28
ATOM     27  O   UNL     1     -35.742  63.607 -11.582  0.00  0.00    +0.000 OA
ATOM     28  C   UNL     1     -34.810  64.127 -10.958  0.00  0.00    +0.000 C 
BRANCH  28  29
ATOM     29  C   UNL     1     -33.732  64.908 -11.706  0.00  0.00    +0.000 C 
BRANCH  29  30
ATOM     30  O   UNL     1     -33.606  64.457 -13.050  0.00  0.00    +0.000 OA
ATOM     31  H   UNL     1     -34.406  64.772 -13.518  0.00  0.00    +0.000 HD
ENDBRANCH  29  30
ENDBRANCH  28  29
ENDBRANCH   4  28
BRANCH  17  32
ATOM     32  O   UNL     1     -29.437  63.062  -1.467  0.00  0.00    +0.000 OA
ATOM     33  C   UNL     1     -28.680  63.056  -0.254  0.00  0.00    +0.000 C 
ENDBRANCH  17  32
BRANCH   3  34
ATOM     34  O   UNL     1     -35.470  62.721  -6.890  0.00  0.00    +0.000 OA
BRANCH  34  36
ATOM     35  O   UNL     1     -37.720  62.049  -6.711  0.00  0.00    +0.000 OA
ATOM     36  C   UNL     1     -36.369  61.610  -6.829  0.00  0.00    +0.000 C 
ATOM     37  C   UNL     1     -35.956  60.694  -5.675  0.00  0.00    +0.000 C 
ATOM     38  C   UNL     1     -36.239  61.353  -4.323  0.00  0.00    +0.000 C 
ATOM     39  C   UNL     1     -37.716  61.795  -4.261  0.00  0.00    +0.000 C 
ATOM     40  C   UNL     1     -38.016  62.702  -5.469  0.00  0.00    +0.000 C 
ATOM     41  C   UNL     1     -39.478  63.131  -5.530  0.00  0.00    +0.000 C 
BRANCH  38  42
ATOM     42  N   UNL     1     -35.930  60.429  -3.217  0.00  0.00    +0.000 NA
ATOM     43  H   UNL     1     -36.498  60.656  -2.403  0.00  0.00    +0.000 HD
ATOM     44  H   UNL     1     -34.958  60.609  -2.942  0.00  0.00    +0.000 HD
ENDBRANCH  38  42
BRANCH  39  45
ATOM     45  O   UNL     1     -38.540  60.614  -4.265  0.00  0.00    +0.000 OA
ATOM     46  H   UNL     1     -38.106  59.957  -4.835  0.00  0.00    +0.000 HD
ENDBRANCH  39  45
ENDBRANCH  34  36
ENDBRANCH   3  34
TORSDOF 11
ENDMDL
MODEL 9
REMARK VINA RESULT:      -6.6      4.173      8.818
REMARK  Name = 
REMARK  13 active torsions:
REMARK  status: ('A' for Active; 'I' for Inactive)
REMARK    1  A    between atoms: O_1  and  C_13
REMARK    2  A    between atoms: O_1  and  C_19
REMARK    3  A    between atoms: O_3  and  C_14
REMARK    4  A    between atoms: O_4  and  C_22
REMARK    5  A    between atoms: O_5  and  C_24
REMARK    6  A    between atoms: O_6  and  C_26
REMARK    7  A    between atoms: O_8  and  C_30
REMARK    8  A    between atoms: O_11  and  C_35
REMARK    9  A    between atoms: O_11  and  C_39
REMARK   10  A    between atoms: N_12  and  C_21
REMARK   11  A    between atoms: C_14  and  C_25
REMARK   12  A    between atoms: C_23  and  C_29
REMARK   13  A    between atoms: C_25  and  C_30
REMARK                            x       y       z     vdW  Elec       q    Type
REMARK                         _______ _______ _______ _____ _____    ______ ____
ROOT
ATOM      1  O   UNL     1     -31.710  39.955 -14.877  0.00  0.00    +0.000 OA
ATOM      2  O   UNL     1     -28.744  43.300 -17.755  0.00  0.00    +0.000 OA
ATOM      3  C   UNL     1     -34.448  44.292 -14.779  0.00  0.00    +0.000 C 
ATOM      4  C   UNL     1     -33.996  46.648 -15.595  0.00  0.00    +0.000 C 
ATOM      5  C   UNL     1     -35.033  45.523 -15.473  0.00  0.00    +0.000 C 
ATOM      6  C   UNL     1     -32.777  46.176 -16.401  0.00  0.00    +0.000 C 
ATOM      7  C   UNL     1     -33.155  43.839 -15.429  0.00  0.00    +0.000 A 
ATOM      8  C   UNL     1     -32.354  44.738 -16.159  0.00  0.00    +0.000 A 
ATOM      9  C   UNL     1     -32.709  42.515 -15.259  0.00  0.00    +0.000 A 
ATOM     10  C   UNL     1     -31.148  44.281 -16.720  0.00  0.00    +0.000 A 
ATOM     11  C   UNL     1     -31.494  42.068 -15.815  0.00  0.00    +0.000 A 
ATOM     12  C   UNL     1     -30.715  42.956 -16.548  0.00  0.00    +0.000 A 
ATOM     13  C   UNL     1     -31.039  40.674 -15.612  0.00  0.00    +0.000 C 
ATOM     14  C   UNL     1     -29.442  42.501 -17.138  0.00  0.00    +0.000 C 
ATOM     15  C   UNL     1     -29.797  40.194 -16.263  0.00  0.00    +0.000 A 
ATOM     16  C   UNL     1     -29.022  41.097 -16.993  0.00  0.00    +0.000 A 
ATOM     17  C   UNL     1     -29.363  38.863 -16.164  0.00  0.00    +0.000 A 
ATOM     18  C   UNL     1     -27.832  40.681 -17.613  0.00  0.00    +0.000 A 
ATOM     19  C   UNL     1     -28.191  38.444 -16.804  0.00  0.00    +0.000 A 
ATOM     20  C   UNL     1     -27.420  39.355 -17.519  0.00  0.00    +0.000 A 
ENDROOT
BRANCH   4  21
ATOM     21  O   UNL     1     -33.584  47.097 -14.298  0.00  0.00    +0.000 OA
ATOM     22  H   UNL     1     -32.604  47.052 -14.277  0.00  0.00    +0.000 HD
ENDBRANCH   4  21
BRANCH   9  23
ATOM     23  O   UNL     1     -33.516  41.675 -14.527  0.00  0.00    +0.000 OA
ATOM     24  H   UNL     1     -33.604  40.821 -15.012  0.00  0.00    +0.000 HD
ENDBRANCH   9  23
BRANCH  10  25
ATOM     25  O   UNL     1     -30.422  45.194 -17.445  0.00  0.00    +0.000 OA
ATOM     26  H   UNL     1     -29.463  45.016 -17.312  0.00  0.00    +0.000 HD
ENDBRANCH  10  25
BRANCH   4  28
ATOM     27  O   UNL     1     -34.109  48.382 -17.308  0.00  0.00    +0.000 OA
ATOM     28  C   UNL     1     -34.621  47.857 -16.313  0.00  0.00    +0.000 C 
BRANCH  28  29
ATOM     29  C   UNL     1     -35.917  48.419 -15.735  0.00  0.00    +0.000 C 
BRANCH  29  30
ATOM     30  O   UNL     1     -35.720  48.922 -14.418  0.00  0.00    +0.000 OA
ATOM     31  H   UNL     1     -35.009  48.378 -14.023  0.00  0.00    +0.000 HD
ENDBRANCH  29  30
ENDBRANCH  28  29
ENDBRANCH   4  28
BRANCH  17  32
ATOM     32  O   UNL     1     -30.110  37.900 -15.537  0.00  0.00    +0.000 OA
ATOM     33  C   UNL     1     -29.370  37.306 -14.468  0.00  0.00    +0.000 C 
ENDBRANCH  17  32
BRANCH   3  34
ATOM     34  O   UNL     1     -34.118  44.639 -13.424  0.00  0.00    +0.000 OA
BRANCH  34  36
ATOM     35  O   UNL     1     -35.888  44.706 -11.873  0.00  0.00    +0.000 OA
ATOM     36  C   UNL     1     -34.881  43.894 -12.471  0.00  0.00    +0.000 C 
ATOM     37  C   UNL     1     -33.934  43.288 -11.432  0.00  0.00    +0.000 C 
ATOM     38  C   UNL     1     -33.346  44.374 -10.528  0.00  0.00    +0.000 C 
ATOM     39  C   UNL     1     -34.488  45.206  -9.909  0.00  0.00    +0.000 C 
ATOM     40  C   UNL     1     -35.375  45.756 -11.043  0.00  0.00    +0.000 C 
ATOM     41  C   UNL     1     -36.575  46.537 -10.520  0.00  0.00    +0.000 C 
BRANCH  38  42
ATOM     42  N   UNL     1     -32.512  43.776  -9.470  0.00  0.00    +0.000 NA
ATOM     43  H   UNL     1     -31.762  44.415  -9.214  0.00  0.00    +0.000 HD
ATOM     44  H   UNL     1     -32.056  42.954  -9.881  0.00  0.00    +0.000 HD
ENDBRANCH  38  42
BRANCH  39  45
ATOM     45  O   UNL     1     -35.233  44.358  -9.016  0.00  0.00    +0.000 OA
ATOM     46  H   UNL     1     -35.254  44.794  -8.148  0.00  0.00    +0.000 HD
ENDBRANCH  39  45
ENDBRANCH  34  36
ENDBRANCH   3  34
TORSDOF 11
ENDMDL
