MODEL 1
REMARK VINA RESULT:      -6.4      0.000      0.000
REMARK  Name = Dronabinol.pdbqt.pdb
REMARK  3 active torsions:
REMARK  status: ('A' for Active; 'I' for Inactive)
REMARK    1  A    between atoms: C_13  and  O_18
REMARK    2  A    between atoms: C_16  and  C_20
REMARK    3  A    between atoms: C_21  and  C_22
REMARK                            x       y       z     vdW  Elec       q    Type
REMARK                         _______ _______ _______ _____ _____    ______ ____
ROOT
ATOM      1  O   UNL     1     -15.239  52.596 -22.699  0.00  0.00    +0.000 OA
ATOM      2  C   UNL     1     -15.224  51.945 -25.077  0.00  0.00    +0.000 A 
ATOM      3  C   UNL     1     -15.886  53.238 -25.378  0.00  0.00    +0.000 A 
ATOM      4  C   UNL     1     -14.604  51.783 -23.715  0.00  0.00    +0.000 C 
ATOM      5  C   UNL     1     -15.082  51.111 -26.241  0.00  0.00    +0.000 A 
ATOM      6  C   UNL     1     -16.032  54.248 -24.333  0.00  0.00    +0.000 A 
ATOM      7  C   UNL     1     -15.591  51.479 -27.647  0.00  0.00    +0.000 A 
ATOM      8  C   UNL     1     -16.286  53.354 -26.764  0.00  0.00    +0.000 A 
ATOM      9  C   UNL     1     -16.264  52.718 -27.910  0.00  0.00    +0.000 A 
ATOM     10  C   UNL     1     -15.688  53.850 -23.032  0.00  0.00    +0.000 A 
ATOM     11  C   UNL     1     -14.768  50.311 -23.249  0.00  0.00    +0.000 C 
ATOM     12  C   UNL     1     -13.096  52.164 -23.782  0.00  0.00    +0.000 C 
ATOM     13  C   UNL     1     -16.501  55.553 -24.528  0.00  0.00    +0.000 A 
ATOM     14  C   UNL     1     -15.844  54.726 -21.956  0.00  0.00    +0.000 A 
ATOM     15  C   UNL     1     -17.448  52.755 -28.825  0.00  0.00    +0.000 C 
ATOM     16  C   UNL     1     -16.312  56.019 -22.169  0.00  0.00    +0.000 A 
ATOM     17  C   UNL     1     -16.638  56.436 -23.454  0.00  0.00    +0.000 A 
ENDROOT
BRANCH  13  18
ATOM     18  O   UNL     1     -16.827  55.994 -25.779  0.00  0.00    +0.000 OA
ATOM     19  H   UNL     1     -16.433  55.398 -26.442  0.00  0.00    +0.000 HD
ENDBRANCH  13  18
BRANCH  16  20
ATOM     20  C   UNL     1     -16.445  56.917 -21.073  0.00  0.00    +0.000 C 
ATOM     21  C   UNL     1     -16.598  57.891 -19.899  0.00  0.00    +0.000 C 
BRANCH  21  22
ATOM     22  C   UNL     1     -16.761  58.866 -18.730  0.00  0.00    +0.000 C 
ATOM     23  C   UNL     1     -16.929  59.843 -17.561  0.00  0.00    +0.000 C 
ATOM     24  C   UNL     1     -17.099  60.817 -16.391  0.00  0.00    +0.000 C 
ENDBRANCH  21  22
ENDBRANCH  16  20
TORSDOF 3
ENDMDL
MODEL 2
REMARK VINA RESULT:      -6.1      3.182      8.481
REMARK  Name = Dronabinol.pdbqt.pdb
REMARK  3 active torsions:
REMARK  status: ('A' for Active; 'I' for Inactive)
REMARK    1  A    between atoms: C_13  and  O_18
REMARK    2  A    between atoms: C_16  and  C_20
REMARK    3  A    between atoms: C_21  and  C_22
REMARK                            x       y       z     vdW  Elec       q    Type
REMARK                         _______ _______ _______ _____ _____    ______ ____
ROOT
ATOM      1  O   UNL     1     -17.531  55.997 -25.981  0.00  0.00    +0.000 OA
ATOM      2  C   UNL     1     -16.047  54.683 -24.517  0.00  0.00    +0.000 A 
ATOM      3  C   UNL     1     -16.209  53.550 -25.461  0.00  0.00    +0.000 A 
ATOM      4  C   UNL     1     -16.482  56.045 -24.985  0.00  0.00    +0.000 C 
ATOM      5  C   UNL     1     -15.274  54.329 -23.355  0.00  0.00    +0.000 A 
ATOM      6  C   UNL     1     -16.888  53.752 -26.739  0.00  0.00    +0.000 A 
ATOM      7  C   UNL     1     -14.704  52.925 -23.078  0.00  0.00    +0.000 A 
ATOM      8  C   UNL     1     -15.597  52.329 -24.984  0.00  0.00    +0.000 A 
ATOM      9  C   UNL     1     -14.905  51.832 -23.987  0.00  0.00    +0.000 A 
ATOM     10  C   UNL     1     -17.517  54.994 -26.919  0.00  0.00    +0.000 A 
ATOM     11  C   UNL     1     -17.069  56.836 -23.784  0.00  0.00    +0.000 C 
ATOM     12  C   UNL     1     -15.262  56.802 -25.587  0.00  0.00    +0.000 C 
ATOM     13  C   UNL     1     -16.972  52.808 -27.769  0.00  0.00    +0.000 A 
ATOM     14  C   UNL     1     -18.238  55.263 -28.083  0.00  0.00    +0.000 A 
ATOM     15  C   UNL     1     -15.198  50.461 -23.464  0.00  0.00    +0.000 C 
ATOM     16  C   UNL     1     -18.311  54.313 -29.096  0.00  0.00    +0.000 A 
ATOM     17  C   UNL     1     -17.677  53.085 -28.943  0.00  0.00    +0.000 A 
ENDROOT
BRANCH  13  18
ATOM     18  O   UNL     1     -16.357  51.594 -27.650  0.00  0.00    +0.000 OA
ATOM     19  H   UNL     1     -17.001  50.937 -27.330  0.00  0.00    +0.000 HD
ENDBRANCH  13  18
BRANCH  16  20
ATOM     20  C   UNL     1     -19.025  54.602 -30.293  0.00  0.00    +0.000 C 
ATOM     21  C   UNL     1     -19.788  54.925 -31.582  0.00  0.00    +0.000 C 
BRANCH  21  22
ATOM     22  C   UNL     1     -20.543  55.256 -32.873  0.00  0.00    +0.000 C 
ATOM     23  C   UNL     1     -21.302  55.591 -34.161  0.00  0.00    +0.000 C 
ATOM     24  C   UNL     1     -22.060  55.928 -35.449  0.00  0.00    +0.000 C 
ENDBRANCH  21  22
ENDBRANCH  16  20
TORSDOF 3
ENDMDL
MODEL 3
REMARK VINA RESULT:      -5.9     14.063     15.624
REMARK  Name = Dronabinol.pdbqt.pdb
REMARK  3 active torsions:
REMARK  status: ('A' for Active; 'I' for Inactive)
REMARK    1  A    between atoms: C_13  and  O_18
REMARK    2  A    between atoms: C_16  and  C_20
REMARK    3  A    between atoms: C_21  and  C_22
REMARK                            x       y       z     vdW  Elec       q    Type
REMARK                         _______ _______ _______ _____ _____    ______ ____
ROOT
ATOM      1  O   UNL     1     -31.393  61.444 -26.228  0.00  0.00    +0.000 OA
ATOM      2  C   UNL     1     -30.194  60.436 -28.130  0.00  0.00    +0.000 A 
ATOM      3  C   UNL     1     -28.931  60.922 -27.522  0.00  0.00    +0.000 A 
ATOM      4  C   UNL     1     -31.427  60.438 -27.267  0.00  0.00    +0.000 C 
ATOM      5  C   UNL     1     -29.987  59.815 -29.413  0.00  0.00    +0.000 A 
ATOM      6  C   UNL     1     -28.939  61.498 -26.179  0.00  0.00    +0.000 A 
ATOM      7  C   UNL     1     -28.622  59.696 -30.117  0.00  0.00    +0.000 A 
ATOM      8  C   UNL     1     -27.779  60.710 -28.372  0.00  0.00    +0.000 A 
ATOM      9  C   UNL     1     -27.418  60.208 -29.528  0.00  0.00    +0.000 A 
ATOM     10  C   UNL     1     -30.200  61.723 -25.607  0.00  0.00    +0.000 A 
ATOM     11  C   UNL     1     -32.665  60.770 -28.144  0.00  0.00    +0.000 C 
ATOM     12  C   UNL     1     -31.596  59.041 -26.600  0.00  0.00    +0.000 C 
ATOM     13  C   UNL     1     -27.801  61.853 -25.444  0.00  0.00    +0.000 A 
ATOM     14  C   UNL     1     -30.314  62.319 -24.350  0.00  0.00    +0.000 A 
ATOM     15  C   UNL     1     -26.401  60.904 -30.376  0.00  0.00    +0.000 C 
ATOM     16  C   UNL     1     -29.172  62.666 -23.635  0.00  0.00    +0.000 A 
ATOM     17  C   UNL     1     -27.915  62.431 -24.178  0.00  0.00    +0.000 A 
ENDROOT
BRANCH  13  18
ATOM     18  O   UNL     1     -26.551  61.632 -25.949  0.00  0.00    +0.000 OA
ATOM     19  H   UNL     1     -25.900  62.137 -25.429  0.00  0.00    +0.000 HD
ENDBRANCH  13  18
BRANCH  16  20
ATOM     20  C   UNL     1     -29.293  63.249 -22.342  0.00  0.00    +0.000 C 
ATOM     21  C   UNL     1     -29.435  63.874 -20.949  0.00  0.00    +0.000 C 
BRANCH  21  22
ATOM     22  C   UNL     1     -29.587  64.491 -19.556  0.00  0.00    +0.000 C 
ATOM     23  C   UNL     1     -29.741  65.105 -18.161  0.00  0.00    +0.000 C 
ATOM     24  C   UNL     1     -29.895  65.717 -16.764  0.00  0.00    +0.000 C 
ENDBRANCH  21  22
ENDBRANCH  16  20
TORSDOF 3
ENDMDL
MODEL 4
REMARK VINA RESULT:      -5.9     24.364     29.187
REMARK  Name = Dronabinol.pdbqt.pdb
REMARK  3 active torsions:
REMARK  status: ('A' for Active; 'I' for Inactive)
REMARK    1  A    between atoms: C_13  and  O_18
REMARK    2  A    between atoms: C_16  and  C_20
REMARK    3  A    between atoms: C_21  and  C_22
REMARK                            x       y       z     vdW  Elec       q    Type
REMARK                         _______ _______ _______ _____ _____    ______ ____
ROOT
ATOM      1  O   UNL     1     -17.125  51.192   2.984  0.00  0.00    +0.000 OA
ATOM      2  C   UNL     1     -17.061  51.975   5.320  0.00  0.00    +0.000 A 
ATOM      3  C   UNL     1     -16.889  50.560   5.732  0.00  0.00    +0.000 A 
ATOM      4  C   UNL     1     -16.852  52.305   3.867  0.00  0.00    +0.000 C 
ATOM      5  C   UNL     1     -17.186  52.867   6.443  0.00  0.00    +0.000 A 
ATOM      6  C   UNL     1     -16.656  49.527   4.726  0.00  0.00    +0.000 A 
ATOM      7  C   UNL     1     -17.188  52.422   7.917  0.00  0.00    +0.000 A 
ATOM      8  C   UNL     1     -16.933  50.383   7.168  0.00  0.00    +0.000 A 
ATOM      9  C   UNL     1     -17.059  51.043   8.294  0.00  0.00    +0.000 A 
ATOM     10  C   UNL     1     -16.790  49.922   3.386  0.00  0.00    +0.000 A 
ATOM     11  C   UNL     1     -17.836  53.432   3.451  0.00  0.00    +0.000 C 
ATOM     12  C   UNL     1     -15.381  52.763   3.645  0.00  0.00    +0.000 C 
ATOM     13  C   UNL     1     -16.333  48.191   4.997  0.00  0.00    +0.000 A 
ATOM     14  C   UNL     1     -16.640  48.995   2.354  0.00  0.00    +0.000 A 
ATOM     15  C   UNL     1     -17.879  50.488   9.415  0.00  0.00    +0.000 C 
ATOM     16  C   UNL     1     -16.321  47.673   2.642  0.00  0.00    +0.000 A 
ATOM     17  C   UNL     1     -16.163  47.268   3.962  0.00  0.00    +0.000 A 
ENDROOT
BRANCH  13  18
ATOM     18  O   UNL     1     -16.169  47.764   6.284  0.00  0.00    +0.000 OA
ATOM     19  H   UNL     1     -15.824  46.853   6.279  0.00  0.00    +0.000 HD
ENDBRANCH  13  18
BRANCH  16  20
ATOM     20  C   UNL     1     -16.143  46.737   1.584  0.00  0.00    +0.000 C 
ATOM     21  C   UNL     1     -15.958  45.719   0.452  0.00  0.00    +0.000 C 
BRANCH  21  22
ATOM     22  C   UNL     1     -15.781  44.697  -0.674  0.00  0.00    +0.000 C 
ATOM     23  C   UNL     1     -15.600  43.674  -1.800  0.00  0.00    +0.000 C 
ATOM     24  C   UNL     1     -15.417  42.649  -2.924  0.00  0.00    +0.000 C 
ENDBRANCH  21  22
ENDBRANCH  16  20
TORSDOF 3
ENDMDL
MODEL 5
REMARK VINA RESULT:      -5.7      2.441      8.379
REMARK  Name = Dronabinol.pdbqt.pdb
REMARK  3 active torsions:
REMARK  status: ('A' for Active; 'I' for Inactive)
REMARK    1  A    between atoms: C_13  and  O_18
REMARK    2  A    between atoms: C_16  and  C_20
REMARK    3  A    between atoms: C_21  and  C_22
REMARK                            x       y       z     vdW  Elec       q    Type
REMARK                         _______ _______ _______ _____ _____    ______ ____
ROOT
ATOM      1  O   UNL     1     -16.647  57.933 -22.633  0.00  0.00    +0.000 OA
ATOM      2  C   UNL     1     -15.457  57.555 -20.508  0.00  0.00    +0.000 A 
ATOM      3  C   UNL     1     -15.325  56.130 -20.899  0.00  0.00    +0.000 A 
ATOM      4  C   UNL     1     -15.860  58.533 -21.578  0.00  0.00    +0.000 C 
ATOM      5  C   UNL     1     -14.950  57.816 -19.186  0.00  0.00    +0.000 A 
ATOM      6  C   UNL     1     -15.704  55.699 -22.242  0.00  0.00    +0.000 A 
ATOM      7  C   UNL     1     -14.371  56.744 -18.244  0.00  0.00    +0.000 A 
ATOM      8  C   UNL     1     -14.762  55.309 -19.848  0.00  0.00    +0.000 A 
ATOM      9  C   UNL     1     -14.287  55.363 -18.627  0.00  0.00    +0.000 A 
ATOM     10  C   UNL     1     -16.353  56.654 -23.040  0.00  0.00    +0.000 A 
ATOM     11  C   UNL     1     -16.756  59.637 -20.952  0.00  0.00    +0.000 C 
ATOM     12  C   UNL     1     -14.585  59.166 -22.210  0.00  0.00    +0.000 C 
ATOM     13  C   UNL     1     -15.489  54.422 -22.774  0.00  0.00    +0.000 A 
ATOM     14  C   UNL     1     -16.804  56.323 -24.319  0.00  0.00    +0.000 A 
ATOM     15  C   UNL     1     -14.604  54.287 -17.637  0.00  0.00    +0.000 C 
ATOM     16  C   UNL     1     -16.581  55.049 -24.831  0.00  0.00    +0.000 A 
ATOM     17  C   UNL     1     -15.922  54.097 -24.062  0.00  0.00    +0.000 A 
ENDROOT
BRANCH  13  18
ATOM     18  O   UNL     1     -14.841  53.466 -22.044  0.00  0.00    +0.000 OA
ATOM     19  H   UNL     1     -14.403  53.886 -21.282  0.00  0.00    +0.000 HD
ENDBRANCH  13  18
BRANCH  16  20
ATOM     20  C   UNL     1     -17.019  54.724 -26.146  0.00  0.00    +0.000 C 
ATOM     21  C   UNL     1     -17.498  54.364 -27.557  0.00  0.00    +0.000 C 
BRANCH  21  22
ATOM     22  C   UNL     1     -17.986  54.001 -28.962  0.00  0.00    +0.000 C 
ATOM     23  C   UNL     1     -18.476  53.632 -30.366  0.00  0.00    +0.000 C 
ATOM     24  C   UNL     1     -18.968  53.263 -31.769  0.00  0.00    +0.000 C 
ENDBRANCH  21  22
ENDBRANCH  16  20
TORSDOF 3
ENDMDL
MODEL 6
REMARK VINA RESULT:      -5.7     19.757     21.572
REMARK  Name = Dronabinol.pdbqt.pdb
REMARK  3 active torsions:
REMARK  status: ('A' for Active; 'I' for Inactive)
REMARK    1  A    between atoms: C_13  and  O_18
REMARK    2  A    between atoms: C_16  and  C_20
REMARK    3  A    between atoms: C_21  and  C_22
REMARK                            x       y       z     vdW  Elec       q    Type
REMARK                         _______ _______ _______ _____ _____    ______ ____
ROOT
ATOM      1  O   UNL     1     -34.079  46.633 -18.369  0.00  0.00    +0.000 OA
ATOM      2  C   UNL     1     -35.072  47.385 -16.242  0.00  0.00    +0.000 A 
ATOM      3  C   UNL     1     -34.113  46.494 -15.543  0.00  0.00    +0.000 A 
ATOM      4  C   UNL     1     -34.810  47.683 -17.694  0.00  0.00    +0.000 C 
ATOM      5  C   UNL     1     -36.000  48.016 -15.341  0.00  0.00    +0.000 A 
ATOM      6  C   UNL     1     -33.041  45.840 -16.289  0.00  0.00    +0.000 A 
ATOM      7  C   UNL     1     -36.042  47.777 -13.820  0.00  0.00    +0.000 A 
ATOM      8  C   UNL     1     -34.354  46.419 -14.118  0.00  0.00    +0.000 A 
ATOM      9  C   UNL     1     -35.130  46.881 -13.167  0.00  0.00    +0.000 A 
ATOM     10  C   UNL     1     -33.095  45.959 -17.687  0.00  0.00    +0.000 A 
ATOM     11  C   UNL     1     -36.165  47.811 -18.443  0.00  0.00    +0.000 C 
ATOM     12  C   UNL     1     -34.000  49.007 -17.814  0.00  0.00    +0.000 C 
ATOM     13  C   UNL     1     -31.995  45.102 -15.724  0.00  0.00    +0.000 A 
ATOM     14  C   UNL     1     -32.147  45.324 -18.490  0.00  0.00    +0.000 A 
ATOM     15  C   UNL     1     -35.611  45.983 -12.071  0.00  0.00    +0.000 C 
ATOM     16  C   UNL     1     -31.115  44.594 -17.911  0.00  0.00    +0.000 A 
ATOM     17  C   UNL     1     -31.035  44.484 -16.528  0.00  0.00    +0.000 A 
ENDROOT
BRANCH  13  18
ATOM     18  O   UNL     1     -31.887  44.977 -14.367  0.00  0.00    +0.000 OA
ATOM     19  H   UNL     1     -32.359  44.175 -14.080  0.00  0.00    +0.000 HD
ENDBRANCH  13  18
BRANCH  16  20
ATOM     20  C   UNL     1     -30.135  43.971 -18.734  0.00  0.00    +0.000 C 
ATOM     21  C   UNL     1     -29.074  43.294 -19.609  0.00  0.00    +0.000 C 
BRANCH  21  22
ATOM     22  C   UNL     1     -28.012  42.611 -20.475  0.00  0.00    +0.000 C 
ATOM     23  C   UNL     1     -26.947  41.932 -21.343  0.00  0.00    +0.000 C 
ATOM     24  C   UNL     1     -25.881  41.255 -22.211  0.00  0.00    +0.000 C 
ENDBRANCH  21  22
ENDBRANCH  16  20
TORSDOF 3
ENDMDL
MODEL 7
REMARK VINA RESULT:      -5.7      2.294      9.133
REMARK  Name = Dronabinol.pdbqt.pdb
REMARK  3 active torsions:
REMARK  status: ('A' for Active; 'I' for Inactive)
REMARK    1  A    between atoms: C_13  and  O_18
REMARK    2  A    between atoms: C_16  and  C_20
REMARK    3  A    between atoms: C_21  and  C_22
REMARK                            x       y       z     vdW  Elec       q    Type
REMARK                         _______ _______ _______ _____ _____    ______ ____
ROOT
ATOM      1  O   UNL     1     -17.284  58.798 -23.040  0.00  0.00    +0.000 OA
ATOM      2  C   UNL     1     -17.075  60.071 -20.940  0.00  0.00    +0.000 A 
ATOM      3  C   UNL     1     -16.650  58.810 -20.283  0.00  0.00    +0.000 A 
ATOM      4  C   UNL     1     -17.082  60.101 -22.444  0.00  0.00    +0.000 C 
ATOM      5  C   UNL     1     -17.205  61.163 -20.011  0.00  0.00    +0.000 A 
ATOM      6  C   UNL     1     -16.381  57.620 -21.085  0.00  0.00    +0.000 A 
ATOM      7  C   UNL     1     -16.976  61.051 -18.492  0.00  0.00    +0.000 A 
ATOM      8  C   UNL     1     -16.508  58.945 -18.849  0.00  0.00    +0.000 A 
ATOM      9  C   UNL     1     -16.602  59.813 -17.870  0.00  0.00    +0.000 A 
ATOM     10  C   UNL     1     -16.721  57.696 -22.444  0.00  0.00    +0.000 A 
ATOM     11  C   UNL     1     -18.262  60.984 -22.934  0.00  0.00    +0.000 C 
ATOM     12  C   UNL     1     -15.729  60.676 -22.958  0.00  0.00    +0.000 C 
ATOM     13  C   UNL     1     -15.835  56.424 -20.602  0.00  0.00    +0.000 A 
ATOM     14  C   UNL     1     -16.552  56.593 -23.282  0.00  0.00    +0.000 A 
ATOM     15  C   UNL     1     -17.200  59.418 -16.557  0.00  0.00    +0.000 C 
ATOM     16  C   UNL     1     -16.010  55.413 -22.784  0.00  0.00    +0.000 A 
ATOM     17  C   UNL     1     -15.648  55.326 -21.445  0.00  0.00    +0.000 A 
ENDROOT
BRANCH  13  18
ATOM     18  O   UNL     1     -15.467  56.309 -19.291  0.00  0.00    +0.000 OA
ATOM     19  H   UNL     1     -14.724  55.682 -19.220  0.00  0.00    +0.000 HD
ENDBRANCH  13  18
BRANCH  16  20
ATOM     20  C   UNL     1     -15.814  54.299 -23.649  0.00  0.00    +0.000 C 
ATOM     21  C   UNL     1     -15.594  53.106 -24.586  0.00  0.00    +0.000 C 
BRANCH  21  22
ATOM     22  C   UNL     1     -15.364  51.918 -25.524  0.00  0.00    +0.000 C 
ATOM     23  C   UNL     1     -15.130  50.728 -26.460  0.00  0.00    +0.000 C 
ATOM     24  C   UNL     1     -14.896  49.536 -27.394  0.00  0.00    +0.000 C 
ENDBRANCH  21  22
ENDBRANCH  16  20
TORSDOF 3
ENDMDL
MODEL 8
REMARK VINA RESULT:      -5.5     20.703     21.188
REMARK  Name = Dronabinol.pdbqt.pdb
REMARK  3 active torsions:
REMARK  status: ('A' for Active; 'I' for Inactive)
REMARK    1  A    between atoms: C_13  and  O_18
REMARK    2  A    between atoms: C_16  and  C_20
REMARK    3  A    between atoms: C_21  and  C_22
REMARK                            x       y       z     vdW  Elec       q    Type
REMARK                         _______ _______ _______ _____ _____    ______ ____
ROOT
ATOM      1  O   UNL     1     -34.914  44.846 -19.059  0.00  0.00    +0.000 OA
ATOM      2  C   UNL     1     -34.789  46.466 -20.912  0.00  0.00    +0.000 A 
ATOM      3  C   UNL     1     -34.530  47.520 -19.900  0.00  0.00    +0.000 A 
ATOM      4  C   UNL     1     -34.659  45.033 -20.471  0.00  0.00    +0.000 C 
ATOM      5  C   UNL     1     -34.910  46.996 -22.245  0.00  0.00    +0.000 A 
ATOM      6  C   UNL     1     -34.289  47.155 -18.506  0.00  0.00    +0.000 A 
ATOM      7  C   UNL     1     -34.827  48.492 -22.602  0.00  0.00    +0.000 A 
ATOM      8  C   UNL     1     -34.505  48.851 -20.469  0.00  0.00    +0.000 A 
ATOM      9  C   UNL     1     -34.614  49.500 -21.603  0.00  0.00    +0.000 A 
ATOM     10  C   UNL     1     -34.500  45.809 -18.171  0.00  0.00    +0.000 A 
ATOM     11  C   UNL     1     -35.714  44.170 -21.215  0.00  0.00    +0.000 C 
ATOM     12  C   UNL     1     -33.223  44.521 -20.786  0.00  0.00    +0.000 C 
ATOM     13  C   UNL     1     -33.890  48.038 -17.496  0.00  0.00    +0.000 A 
ATOM     14  C   UNL     1     -34.349  45.373 -16.854  0.00  0.00    +0.000 A 
ATOM     15  C   UNL     1     -35.358  50.796 -21.671  0.00  0.00    +0.000 C 
ATOM     16  C   UNL     1     -33.952  46.264 -15.863  0.00  0.00    +0.000 A 
ATOM     17  C   UNL     1     -33.719  47.597 -16.182  0.00  0.00    +0.000 A 
ENDROOT
BRANCH  13  18
ATOM     18  O   UNL     1     -33.650  49.353 -17.778  0.00  0.00    +0.000 OA
ATOM     19  H   UNL     1     -33.487  49.836 -16.947  0.00  0.00    +0.000 HD
ENDBRANCH  13  18
BRANCH  16  20
ATOM     20  C   UNL     1     -33.773  45.809 -14.526  0.00  0.00    +0.000 C 
ATOM     21  C   UNL     1     -33.580  45.306 -13.091  0.00  0.00    +0.000 C 
BRANCH  21  22
ATOM     22  C   UNL     1     -33.383  44.795 -11.662  0.00  0.00    +0.000 C 
ATOM     23  C   UNL     1     -33.182  44.279 -10.233  0.00  0.00    +0.000 C 
ATOM     24  C   UNL     1     -32.979  43.765  -8.804  0.00  0.00    +0.000 C 
ENDBRANCH  21  22
ENDBRANCH  16  20
TORSDOF 3
ENDMDL
MODEL 9
REMARK VINA RESULT:      -5.5     21.427     22.486
REMARK  Name = Dronabinol.pdbqt.pdb
REMARK  3 active torsions:
REMARK  status: ('A' for Active; 'I' for Inactive)
REMARK    1  A    between atoms: C_13  and  O_18
REMARK    2  A    between atoms: C_16  and  C_20
REMARK    3  A    between atoms: C_21  and  C_22
REMARK                            x       y       z     vdW  Elec       q    Type
REMARK                         _______ _______ _______ _____ _____    ______ ____
ROOT
ATOM      1  O   UNL     1     -37.731  49.163 -16.496  0.00  0.00    +0.000 OA
ATOM      2  C   UNL     1     -36.188  47.951 -15.003  0.00  0.00    +0.000 A 
ATOM      3  C   UNL     1     -35.188  47.987 -16.098  0.00  0.00    +0.000 A 
ATOM      4  C   UNL     1     -37.383  48.858 -15.124  0.00  0.00    +0.000 C 
ATOM      5  C   UNL     1     -35.735  47.199 -13.863  0.00  0.00    +0.000 A 
ATOM      6  C   UNL     1     -35.442  48.782 -17.297  0.00  0.00    +0.000 A 
ATOM      7  C   UNL     1     -34.383  46.465 -13.781  0.00  0.00    +0.000 A 
ATOM      8  C   UNL     1     -33.999  47.218 -15.798  0.00  0.00    +0.000 A 
ATOM      9  C   UNL     1     -33.444  46.480 -14.866  0.00  0.00    +0.000 A 
ATOM     10  C   UNL     1     -36.727  49.333 -17.417  0.00  0.00    +0.000 A 
ATOM     11  C   UNL     1     -38.626  48.153 -14.515  0.00  0.00    +0.000 C 
ATOM     12  C   UNL     1     -37.099  50.194 -14.377  0.00  0.00    +0.000 C 
ATOM     13  C   UNL     1     -34.519  49.013 -18.325  0.00  0.00    +0.000 A 
ATOM     14  C   UNL     1     -37.083  50.062 -18.552  0.00  0.00    +0.000 A 
ATOM     15  C   UNL     1     -32.688  45.241 -15.226  0.00  0.00    +0.000 C 
ATOM     16  C   UNL     1     -36.154  50.281 -19.563  0.00  0.00    +0.000 A 
ATOM     17  C   UNL     1     -34.870  49.761 -19.451  0.00  0.00    +0.000 A 
ENDROOT
BRANCH  13  18
ATOM     18  O   UNL     1     -33.249  48.517 -18.242  0.00  0.00    +0.000 OA
ATOM     19  H   UNL     1     -33.064  47.974 -19.030  0.00  0.00    +0.000 HD
ENDBRANCH  13  18
BRANCH  16  20
ATOM     20  C   UNL     1     -36.514  51.049 -20.707  0.00  0.00    +0.000 C 
ATOM     21  C   UNL     1     -36.898  51.886 -21.933  0.00  0.00    +0.000 C 
BRANCH  21  22
ATOM     22  C   UNL     1     -37.274  52.731 -23.153  0.00  0.00    +0.000 C 
ATOM     23  C   UNL     1     -37.648  53.580 -24.372  0.00  0.00    +0.000 C 
ATOM     24  C   UNL     1     -38.019  54.430 -25.592  0.00  0.00    +0.000 C 
ENDBRANCH  21  22
ENDBRANCH  16  20
TORSDOF 3
ENDMDL
