MODEL 1
REMARK VINA RESULT:      -6.6      0.000      0.000
REMARK  Name = Ellipticine.pdbqt.pdb
REMARK  0 active torsions:
REMARK  status: ('A' for Active; 'I' for Inactive)
REMARK                            x       y       z     vdW  Elec       q    Type
REMARK                         _______ _______ _______ _____ _____    ______ ____
ROOT
ATOM      1  N   UNL     1     -17.784  56.227 -27.091  0.00  0.00    +0.000 N 
ATOM      2  N   UNL     1     -14.805  53.031 -22.385  0.00  0.00    +0.000 NA
ATOM      3  C   UNL     1     -17.000  54.188 -26.594  0.00  0.00    +0.000 A 
ATOM      4  C   UNL     1     -17.146  55.493 -26.113  0.00  0.00    +0.000 A 
ATOM      5  C   UNL     1     -16.365  53.231 -25.762  0.00  0.00    +0.000 A 
ATOM      6  C   UNL     1     -17.581  54.168 -27.910  0.00  0.00    +0.000 A 
ATOM      7  C   UNL     1     -16.692  55.895 -24.846  0.00  0.00    +0.000 A 
ATOM      8  C   UNL     1     -16.063  54.943 -24.023  0.00  0.00    +0.000 A 
ATOM      9  C   UNL     1     -15.902  53.618 -24.482  0.00  0.00    +0.000 A 
ATOM     10  C   UNL     1     -18.057  55.448 -28.186  0.00  0.00    +0.000 A 
ATOM     11  C   UNL     1     -16.191  51.809 -26.251  0.00  0.00    +0.000 C 
ATOM     12  C   UNL     1     -17.745  53.172 -28.893  0.00  0.00    +0.000 A 
ATOM     13  C   UNL     1     -16.902  57.332 -24.428  0.00  0.00    +0.000 C 
ATOM     14  C   UNL     1     -18.687  55.788 -29.388  0.00  0.00    +0.000 A 
ATOM     15  C   UNL     1     -15.584  55.273 -22.745  0.00  0.00    +0.000 A 
ATOM     16  C   UNL     1     -15.270  52.726 -23.616  0.00  0.00    +0.000 A 
ATOM     17  C   UNL     1     -18.370  53.489 -30.101  0.00  0.00    +0.000 A 
ATOM     18  C   UNL     1     -18.832  54.778 -30.340  0.00  0.00    +0.000 A 
ATOM     19  C   UNL     1     -14.973  54.301 -21.975  0.00  0.00    +0.000 A 
ATOM     20  H   UNL     1     -18.015  57.210 -27.002  0.00  0.00    +0.000 HD
ENDROOT
TORSDOF 0
ENDMDL
MODEL 2
REMARK VINA RESULT:      -6.3      2.687      6.183
REMARK  Name = Ellipticine.pdbqt.pdb
REMARK  0 active torsions:
REMARK  status: ('A' for Active; 'I' for Inactive)
REMARK                            x       y       z     vdW  Elec       q    Type
REMARK                         _______ _______ _______ _____ _____    ______ ____
ROOT
ATOM      1  N   UNL     1     -17.011  58.516 -23.458  0.00  0.00    +0.000 N 
ATOM      2  N   UNL     1     -15.431  52.356 -24.344  0.00  0.00    +0.000 NA
ATOM      3  C   UNL     1     -16.301  56.719 -22.325  0.00  0.00    +0.000 A 
ATOM      4  C   UNL     1     -16.660  57.189 -23.592  0.00  0.00    +0.000 A 
ATOM      5  C   UNL     1     -15.897  55.365 -22.198  0.00  0.00    +0.000 A 
ATOM      6  C   UNL     1     -16.452  57.826 -21.417  0.00  0.00    +0.000 A 
ATOM      7  C   UNL     1     -16.637  56.382 -24.740  0.00  0.00    +0.000 A 
ATOM      8  C   UNL     1     -16.235  55.039 -24.612  0.00  0.00    +0.000 A 
ATOM      9  C   UNL     1     -15.868  54.537 -23.345  0.00  0.00    +0.000 A 
ATOM     10  C   UNL     1     -16.893  58.923 -22.154  0.00  0.00    +0.000 A 
ATOM     11  C   UNL     1     -15.502  54.823 -20.841  0.00  0.00    +0.000 C 
ATOM     12  C   UNL     1     -16.252  57.991 -20.032  0.00  0.00    +0.000 A 
ATOM     13  C   UNL     1     -17.045  56.995 -26.059  0.00  0.00    +0.000 C 
ATOM     14  C   UNL     1     -17.145  60.176 -21.584  0.00  0.00    +0.000 A 
ATOM     15  C   UNL     1     -16.188  54.174 -25.716  0.00  0.00    +0.000 A 
ATOM     16  C   UNL     1     -15.480  53.199 -23.290  0.00  0.00    +0.000 A 
ATOM     17  C   UNL     1     -16.497  59.233 -19.442  0.00  0.00    +0.000 A 
ATOM     18  C   UNL     1     -16.936  60.306 -20.209  0.00  0.00    +0.000 A 
ATOM     19  C   UNL     1     -15.786  52.864 -25.537  0.00  0.00    +0.000 A 
ATOM     20  H   UNL     1     -17.313  59.103 -24.227  0.00  0.00    +0.000 HD
ENDROOT
TORSDOF 0
ENDMDL
MODEL 3
REMARK VINA RESULT:      -6.3      1.958      5.834
REMARK  Name = Ellipticine.pdbqt.pdb
REMARK  0 active torsions:
REMARK  status: ('A' for Active; 'I' for Inactive)
REMARK                            x       y       z     vdW  Elec       q    Type
REMARK                         _______ _______ _______ _____ _____    ______ ____
ROOT
ATOM      1  N   UNL     1     -15.561  54.229 -22.301  0.00  0.00    +0.000 N 
ATOM      2  N   UNL     1     -16.409  52.288 -28.363  0.00  0.00    +0.000 NA
ATOM      3  C   UNL     1     -16.294  54.973 -24.283  0.00  0.00    +0.000 A 
ATOM      4  C   UNL     1     -15.764  53.864 -23.616  0.00  0.00    +0.000 A 
ATOM      5  C   UNL     1     -16.592  54.849 -25.664  0.00  0.00    +0.000 A 
ATOM      6  C   UNL     1     -16.402  56.026 -23.308  0.00  0.00    +0.000 A 
ATOM      7  C   UNL     1     -15.515  52.638 -24.252  0.00  0.00    +0.000 A 
ATOM      8  C   UNL     1     -15.812  52.517 -25.623  0.00  0.00    +0.000 A 
ATOM      9  C   UNL     1     -16.348  53.620 -26.321  0.00  0.00    +0.000 A 
ATOM     10  C   UNL     1     -15.940  55.530 -22.091  0.00  0.00    +0.000 A 
ATOM     11  C   UNL     1     -17.167  56.029 -26.417  0.00  0.00    +0.000 C 
ATOM     12  C   UNL     1     -16.855  57.360 -23.354  0.00  0.00    +0.000 A 
ATOM     13  C   UNL     1     -14.940  51.506 -23.434  0.00  0.00    +0.000 C 
ATOM     14  C   UNL     1     -15.903  56.292 -20.918  0.00  0.00    +0.000 A 
ATOM     15  C   UNL     1     -15.589  51.322 -26.324  0.00  0.00    +0.000 A 
ATOM     16  C   UNL     1     -16.618  53.432 -27.677  0.00  0.00    +0.000 A 
ATOM     17  C   UNL     1     -16.827  58.139 -22.194  0.00  0.00    +0.000 A 
ATOM     18  C   UNL     1     -16.358  57.609 -20.999  0.00  0.00    +0.000 A 
ATOM     19  C   UNL     1     -15.897  51.255 -27.670  0.00  0.00    +0.000 A 
ATOM     20  H   UNL     1     -15.183  53.610 -21.593  0.00  0.00    +0.000 HD
ENDROOT
TORSDOF 0
ENDMDL
MODEL 4
REMARK VINA RESULT:      -6.2     25.271     26.651
REMARK  Name = Ellipticine.pdbqt.pdb
REMARK  0 active torsions:
REMARK  status: ('A' for Active; 'I' for Inactive)
REMARK                            x       y       z     vdW  Elec       q    Type
REMARK                         _______ _______ _______ _____ _____    ______ ____
ROOT
ATOM      1  N   UNL     1     -35.770  46.489  -7.593  0.00  0.00    +0.000 N 
ATOM      2  N   UNL     1     -36.086  45.872 -13.977  0.00  0.00    +0.000 NA
ATOM      3  C   UNL     1     -34.652  45.592  -9.314  0.00  0.00    +0.000 A 
ATOM      4  C   UNL     1     -35.789  46.326  -8.963  0.00  0.00    +0.000 A 
ATOM      5  C   UNL     1     -34.442  45.291 -10.685  0.00  0.00    +0.000 A 
ATOM      6  C   UNL     1     -33.945  45.318  -8.091  0.00  0.00    +0.000 A 
ATOM      7  C   UNL     1     -36.728  46.777  -9.903  0.00  0.00    +0.000 A 
ATOM      8  C   UNL     1     -36.517  46.478 -11.263  0.00  0.00    +0.000 A 
ATOM      9  C   UNL     1     -35.378  45.738 -11.647  0.00  0.00    +0.000 A 
ATOM     10  C   UNL     1     -34.666  45.888  -7.045  0.00  0.00    +0.000 A 
ATOM     11  C   UNL     1     -33.222  44.498 -11.101  0.00  0.00    +0.000 C 
ATOM     12  C   UNL     1     -32.752  44.633  -7.782  0.00  0.00    +0.000 A 
ATOM     13  C   UNL     1     -37.920  47.564  -9.412  0.00  0.00    +0.000 C 
ATOM     14  C   UNL     1     -34.263  45.813  -5.707  0.00  0.00    +0.000 A 
ATOM     15  C   UNL     1     -37.413  46.895 -12.258  0.00  0.00    +0.000 A 
ATOM     16  C   UNL     1     -35.231  45.476 -13.009  0.00  0.00    +0.000 A 
ATOM     17  C   UNL     1     -32.331  44.546  -6.453  0.00  0.00    +0.000 A 
ATOM     18  C   UNL     1     -33.077  45.127  -5.436  0.00  0.00    +0.000 A 
ATOM     19  C   UNL     1     -37.161  46.575 -13.579  0.00  0.00    +0.000 A 
ATOM     20  H   UNL     1     -36.483  46.987  -7.072  0.00  0.00    +0.000 HD
ENDROOT
TORSDOF 0
ENDMDL
MODEL 5
REMARK VINA RESULT:      -6.2     28.566     31.769
REMARK  Name = Ellipticine.pdbqt.pdb
REMARK  0 active torsions:
REMARK  status: ('A' for Active; 'I' for Inactive)
REMARK                            x       y       z     vdW  Elec       q    Type
REMARK                         _______ _______ _______ _____ _____    ______ ____
ROOT
ATOM      1  N   UNL     1     -17.727  52.196   4.735  0.00  0.00    +0.000 N 
ATOM      2  N   UNL     1     -15.274  46.511   3.035  0.00  0.00    +0.000 NA
ATOM      3  C   UNL     1     -16.986  50.281   5.629  0.00  0.00    +0.000 A 
ATOM      4  C   UNL     1     -17.197  50.961   4.425  0.00  0.00    +0.000 A 
ATOM      5  C   UNL     1     -16.441  48.972   5.576  0.00  0.00    +0.000 A 
ATOM      6  C   UNL     1     -17.414  51.165   6.681  0.00  0.00    +0.000 A 
ATOM      7  C   UNL     1     -16.895  50.407   3.172  0.00  0.00    +0.000 A 
ATOM      8  C   UNL     1     -16.354  49.108   3.122  0.00  0.00    +0.000 A 
ATOM      9  C   UNL     1     -16.130  48.397   4.321  0.00  0.00    +0.000 A 
ATOM     10  C   UNL     1     -17.866  52.342   6.091  0.00  0.00    +0.000 A 
ATOM     11  C   UNL     1     -16.200  48.207   6.859  0.00  0.00    +0.000 C 
ATOM     12  C   UNL     1     -17.455  51.065   8.086  0.00  0.00    +0.000 A 
ATOM     13  C   UNL     1     -17.163  51.231   1.935  0.00  0.00    +0.000 C 
ATOM     14  C   UNL     1     -18.358  53.427   6.826  0.00  0.00    +0.000 A 
ATOM     15  C   UNL     1     -16.027  48.490   1.905  0.00  0.00    +0.000 A 
ATOM     16  C   UNL     1     -15.593  47.116   4.199  0.00  0.00    +0.000 A 
ATOM     17  C   UNL     1     -17.942  52.136   8.840  0.00  0.00    +0.000 A 
ATOM     18  C   UNL     1     -18.385  53.296   8.215  0.00  0.00    +0.000 A 
ATOM     19  C   UNL     1     -15.499  47.213   1.910  0.00  0.00    +0.000 A 
ATOM     20  H   UNL     1     -17.976  52.895   4.044  0.00  0.00    +0.000 HD
ENDROOT
TORSDOF 0
ENDMDL
MODEL 6
REMARK VINA RESULT:      -6.2      1.632      3.166
REMARK  Name = Ellipticine.pdbqt.pdb
REMARK  0 active torsions:
REMARK  status: ('A' for Active; 'I' for Inactive)
REMARK                            x       y       z     vdW  Elec       q    Type
REMARK                         _______ _______ _______ _____ _____    ______ ____
ROOT
ATOM      1  N   UNL     1     -16.020  52.461 -26.099  0.00  0.00    +0.000 N 
ATOM      2  N   UNL     1     -15.834  56.577 -21.174  0.00  0.00    +0.000 NA
ATOM      3  C   UNL     1     -16.538  54.577 -25.576  0.00  0.00    +0.000 A 
ATOM      4  C   UNL     1     -16.003  53.386 -25.075  0.00  0.00    +0.000 A 
ATOM      5  C   UNL     1     -16.629  55.692 -24.704  0.00  0.00    +0.000 A 
ATOM      6  C   UNL     1     -16.879  54.328 -26.952  0.00  0.00    +0.000 A 
ATOM      7  C   UNL     1     -15.554  53.246 -23.753  0.00  0.00    +0.000 A 
ATOM      8  C   UNL     1     -15.646  54.355 -22.890  0.00  0.00    +0.000 A 
ATOM      9  C   UNL     1     -16.182  55.570 -23.368  0.00  0.00    +0.000 A 
ATOM     10  C   UNL     1     -16.544  53.008 -27.242  0.00  0.00    +0.000 A 
ATOM     11  C   UNL     1     -17.203  56.997 -25.212  0.00  0.00    +0.000 C 
ATOM     12  C   UNL     1     -17.444  55.113 -27.977  0.00  0.00    +0.000 A 
ATOM     13  C   UNL     1     -14.994  51.912 -23.318  0.00  0.00    +0.000 C 
ATOM     14  C   UNL     1     -16.742  52.427 -28.499  0.00  0.00    +0.000 A 
ATOM     15  C   UNL     1     -15.217  54.289 -21.555  0.00  0.00    +0.000 A 
ATOM     16  C   UNL     1     -16.243  56.627 -22.460  0.00  0.00    +0.000 A 
ATOM     17  C   UNL     1     -17.650  54.553 -29.240  0.00  0.00    +0.000 A 
ATOM     18  C   UNL     1     -17.304  53.231 -29.493  0.00  0.00    +0.000 A 
ATOM     19  C   UNL     1     -15.329  55.406 -20.749  0.00  0.00    +0.000 A 
ATOM     20  H   UNL     1     -15.686  51.508 -26.008  0.00  0.00    +0.000 HD
ENDROOT
TORSDOF 0
ENDMDL
MODEL 7
REMARK VINA RESULT:      -6.1      2.021      3.422
REMARK  Name = Ellipticine.pdbqt.pdb
REMARK  0 active torsions:
REMARK  status: ('A' for Active; 'I' for Inactive)
REMARK                            x       y       z     vdW  Elec       q    Type
REMARK                         _______ _______ _______ _____ _____    ______ ____
ROOT
ATOM      1  N   UNL     1     -19.268  56.449 -30.445  0.00  0.00    +0.000 N 
ATOM      2  N   UNL     1     -16.210  54.960 -24.999  0.00  0.00    +0.000 NA
ATOM      3  C   UNL     1     -18.603  54.676 -29.249  0.00  0.00    +0.000 A 
ATOM      4  C   UNL     1     -18.618  56.074 -29.287  0.00  0.00    +0.000 A 
ATOM      5  C   UNL     1     -17.983  54.040 -28.142  0.00  0.00    +0.000 A 
ATOM      6  C   UNL     1     -19.275  54.224 -30.439  0.00  0.00    +0.000 A 
ATOM      7  C   UNL     1     -18.049  56.872 -28.283  0.00  0.00    +0.000 A 
ATOM      8  C   UNL     1     -17.435  56.238 -27.186  0.00  0.00    +0.000 A 
ATOM      9  C   UNL     1     -17.404  54.828 -27.120  0.00  0.00    +0.000 A 
ATOM     10  C   UNL     1     -19.673  55.350 -31.156  0.00  0.00    +0.000 A 
ATOM     11  C   UNL     1     -17.948  52.528 -28.068  0.00  0.00    +0.000 C 
ATOM     12  C   UNL     1     -19.579  52.954 -30.969  0.00  0.00    +0.000 A 
ATOM     13  C   UNL     1     -18.123  58.374 -28.427  0.00  0.00    +0.000 C 
ATOM     14  C   UNL     1     -20.359  55.277 -32.374  0.00  0.00    +0.000 A 
ATOM     15  C   UNL     1     -16.845  56.971 -26.145  0.00  0.00    +0.000 A 
ATOM     16  C   UNL     1     -16.780  54.266 -26.007  0.00  0.00    +0.000 A 
ATOM     17  C   UNL     1     -20.263  52.859 -32.183  0.00  0.00    +0.000 A 
ATOM     18  C   UNL     1     -20.644  54.004 -32.871  0.00  0.00    +0.000 A 
ATOM     19  C   UNL     1     -16.255  56.301 -25.090  0.00  0.00    +0.000 A 
ATOM     20  H   UNL     1     -19.420  57.412 -30.722  0.00  0.00    +0.000 HD
ENDROOT
TORSDOF 0
ENDMDL
MODEL 8
REMARK VINA RESULT:      -6.0     28.690     32.299
REMARK  Name = Ellipticine.pdbqt.pdb
REMARK  0 active torsions:
REMARK  status: ('A' for Active; 'I' for Inactive)
REMARK                            x       y       z     vdW  Elec       q    Type
REMARK                         _______ _______ _______ _____ _____    ______ ____
ROOT
ATOM      1  N   UNL     1     -16.370  48.884   5.631  0.00  0.00    +0.000 N 
ATOM      2  N   UNL     1     -18.809  53.993   8.662  0.00  0.00    +0.000 NA
ATOM      3  C   UNL     1     -17.194  50.926   5.218  0.00  0.00    +0.000 A 
ATOM      4  C   UNL     1     -16.900  50.008   6.231  0.00  0.00    +0.000 A 
ATOM      5  C   UNL     1     -17.756  52.176   5.585  0.00  0.00    +0.000 A 
ATOM      6  C   UNL     1     -16.816  50.304   3.977  0.00  0.00    +0.000 A 
ATOM      7  C   UNL     1     -17.136  50.268   7.590  0.00  0.00    +0.000 A 
ATOM      8  C   UNL     1     -17.694  51.509   7.951  0.00  0.00    +0.000 A 
ATOM      9  C   UNL     1     -18.001  52.455   6.950  0.00  0.00    +0.000 A 
ATOM     10  C   UNL     1     -16.310  49.040   4.270  0.00  0.00    +0.000 A 
ATOM     11  C   UNL     1     -18.086  53.194   4.515  0.00  0.00    +0.000 C 
ATOM     12  C   UNL     1     -16.861  50.706   2.627  0.00  0.00    +0.000 A 
ATOM     13  C   UNL     1     -16.780  49.203   8.600  0.00  0.00    +0.000 C 
ATOM     14  C   UNL     1     -15.845  48.155   3.291  0.00  0.00    +0.000 A 
ATOM     15  C   UNL     1     -17.957  51.838   9.290  0.00  0.00    +0.000 A 
ATOM     16  C   UNL     1     -18.551  53.664   7.378  0.00  0.00    +0.000 A 
ATOM     17  C   UNL     1     -16.402  49.839   1.633  0.00  0.00    +0.000 A 
ATOM     18  C   UNL     1     -15.904  48.585   1.964  0.00  0.00    +0.000 A 
ATOM     19  C   UNL     1     -18.506  53.071   9.592  0.00  0.00    +0.000 A 
ATOM     20  H   UNL     1     -16.069  48.060   6.138  0.00  0.00    +0.000 HD
ENDROOT
TORSDOF 0
ENDMDL
MODEL 9
REMARK VINA RESULT:      -6.0     28.827     31.128
REMARK  Name = Ellipticine.pdbqt.pdb
REMARK  0 active torsions:
REMARK  status: ('A' for Active; 'I' for Inactive)
REMARK                            x       y       z     vdW  Elec       q    Type
REMARK                         _______ _______ _______ _____ _____    ______ ____
ROOT
ATOM      1  N   UNL     1     -15.951  47.246   5.161  0.00  0.00    +0.000 N 
ATOM      2  N   UNL     1     -17.985  53.333   5.371  0.00  0.00    +0.000 NA
ATOM      3  C   UNL     1     -16.471  48.958   3.812  0.00  0.00    +0.000 A 
ATOM      4  C   UNL     1     -16.387  48.555   5.148  0.00  0.00    +0.000 A 
ATOM      5  C   UNL     1     -16.900  50.280   3.533  0.00  0.00    +0.000 A 
ATOM      6  C   UNL     1     -16.065  47.829   3.016  0.00  0.00    +0.000 A 
ATOM      7  C   UNL     1     -16.708  49.400   6.222  0.00  0.00    +0.000 A 
ATOM      8  C   UNL     1     -17.134  50.712   5.942  0.00  0.00    +0.000 A 
ATOM      9  C   UNL     1     -17.229  51.146   4.602  0.00  0.00    +0.000 A 
ATOM     10  C   UNL     1     -15.751  46.786   3.885  0.00  0.00    +0.000 A 
ATOM     11  C   UNL     1     -17.003  50.749   2.097  0.00  0.00    +0.000 C 
ATOM     12  C   UNL     1     -15.938  47.603   1.631  0.00  0.00    +0.000 A 
ATOM     13  C   UNL     1     -16.581  48.861   7.627  0.00  0.00    +0.000 C 
ATOM     14  C   UNL     1     -15.316  45.530   3.447  0.00  0.00    +0.000 A 
ATOM     15  C   UNL     1     -17.472  51.613   6.964  0.00  0.00    +0.000 A 
ATOM     16  C   UNL     1     -17.657  52.457   4.397  0.00  0.00    +0.000 A 
ATOM     17  C   UNL     1     -15.506  46.356   1.172  0.00  0.00    +0.000 A 
ATOM     18  C   UNL     1     -15.201  45.339   2.069  0.00  0.00    +0.000 A 
ATOM     19  C   UNL     1     -17.885  52.891   6.637  0.00  0.00    +0.000 A 
ATOM     20  H   UNL     1     -15.803  46.706   6.006  0.00  0.00    +0.000 HD
ENDROOT
TORSDOF 0
ENDMDL
