MODEL 1
REMARK VINA RESULT:      -6.6      0.000      0.000
REMARK  Name = Enterolactone.pdbqt.pdb
REMARK  2 active torsions:
REMARK  status: ('A' for Active; 'I' for Inactive)
REMARK    1  A    between atoms: C_10  and  O_14
REMARK    2  A    between atoms: C_19  and  O_23
REMARK                            x       y       z     vdW  Elec       q    Type
REMARK                         _______ _______ _______ _____ _____    ______ ____
ROOT
ATOM      1  O   UNL     1     -33.702  44.623 -12.701  0.00  0.00    +0.000 OA
ATOM      2  O   UNL     1     -35.692  45.550 -13.485  0.00  0.00    +0.000 OA
ATOM      3  C   UNL     1     -33.887  45.194 -10.407  0.00  0.00    +0.000 C 
ATOM      4  C   UNL     1     -35.047  45.671 -11.121  0.00  0.00    +0.000 C 
ATOM      5  C   UNL     1     -33.211  44.597 -11.472  0.00  0.00    +0.000 C 
ATOM      6  C   UNL     1     -34.907  45.306 -12.587  0.00  0.00    +0.000 C 
ATOM      7  C   UNL     1     -33.805  44.950  -9.024  0.00  0.00    +0.000 C 
ATOM      8  C   UNL     1     -33.736  44.716  -7.619  0.00  0.00    +0.000 C 
ATOM      9  C   UNL     1     -34.877  44.314  -6.928  0.00  0.00    +0.000 C 
ATOM     10  C   UNL     1     -34.800  44.099  -5.556  0.00  0.00    +0.000 C 
ATOM     11  C   UNL     1     -33.603  44.281  -4.870  0.00  0.00    +0.000 C 
ATOM     12  C   UNL     1     -32.466  44.683  -5.566  0.00  0.00    +0.000 C 
ATOM     13  C   UNL     1     -32.533  44.901  -6.942  0.00  0.00    +0.000 C 
ATOM     14  C   UNL     1     -36.173  46.299 -10.543  0.00  0.00    +0.000 C 
ATOM     15  C   UNL     1     -37.306  46.928  -9.951  0.00  0.00    +0.000 C 
ATOM     16  C   UNL     1     -37.131  47.831  -8.906  0.00  0.00    +0.000 C 
ATOM     17  C   UNL     1     -38.247  48.429  -8.329  0.00  0.00    +0.000 C 
ATOM     18  C   UNL     1     -39.529  48.137  -8.782  0.00  0.00    +0.000 C 
ATOM     19  C   UNL     1     -39.698  47.234  -9.828  0.00  0.00    +0.000 C 
ATOM     20  C   UNL     1     -38.587  46.628 -10.414  0.00  0.00    +0.000 C 
ENDROOT
BRANCH  10  21
ATOM     21  O   UNL     1     -35.898  43.705  -4.849  0.00  0.00    +0.000 OA
ATOM     22  H   UNL     1     -36.203  42.851  -5.201  0.00  0.00    +0.000 HD
ENDBRANCH  10  21
BRANCH  17  23
ATOM     23  O   UNL     1     -38.110  49.317  -7.302  0.00  0.00    +0.000 OA
ATOM     24  H   UNL     1     -37.212  49.230  -6.936  0.00  0.00    +0.000 HD
ENDBRANCH  17  23
TORSDOF 2
ENDMDL
MODEL 2
REMARK VINA RESULT:      -6.6      2.145      6.387
REMARK  Name = Enterolactone.pdbqt.pdb
REMARK  2 active torsions:
REMARK  status: ('A' for Active; 'I' for Inactive)
REMARK    1  A    between atoms: C_10  and  O_14
REMARK    2  A    between atoms: C_19  and  O_23
REMARK                            x       y       z     vdW  Elec       q    Type
REMARK                         _______ _______ _______ _____ _____    ______ ____
ROOT
ATOM      1  O   UNL     1     -39.771  47.060  -9.416  0.00  0.00    +0.000 OA
ATOM      2  O   UNL     1     -39.175  46.761  -7.182  0.00  0.00    +0.000 OA
ATOM      3  C   UNL     1     -37.614  47.027 -10.398  0.00  0.00    +0.000 C 
ATOM      4  C   UNL     1     -37.499  46.845  -8.971  0.00  0.00    +0.000 C 
ATOM      5  C   UNL     1     -39.002  47.124 -10.492  0.00  0.00    +0.000 C 
ATOM      6  C   UNL     1     -38.887  46.879  -8.359  0.00  0.00    +0.000 C 
ATOM      7  C   UNL     1     -36.659  46.654 -11.363  0.00  0.00    +0.000 C 
ATOM      8  C   UNL     1     -35.678  46.277 -12.326  0.00  0.00    +0.000 C 
ATOM      9  C   UNL     1     -34.859  45.176 -12.085  0.00  0.00    +0.000 C 
ATOM     10  C   UNL     1     -33.898  44.825 -13.027  0.00  0.00    +0.000 C 
ATOM     11  C   UNL     1     -33.746  45.556 -14.201  0.00  0.00    +0.000 C 
ATOM     12  C   UNL     1     -34.568  46.655 -14.436  0.00  0.00    +0.000 C 
ATOM     13  C   UNL     1     -35.535  47.016 -13.498  0.00  0.00    +0.000 C 
ATOM     14  C   UNL     1     -36.303  46.591  -8.264  0.00  0.00    +0.000 C 
ATOM     15  C   UNL     1     -35.093  46.329  -7.558  0.00  0.00    +0.000 C 
ATOM     16  C   UNL     1     -33.919  46.976  -7.933  0.00  0.00    +0.000 C 
ATOM     17  C   UNL     1     -32.742  46.704  -7.243  0.00  0.00    +0.000 C 
ATOM     18  C   UNL     1     -32.724  45.797  -6.189  0.00  0.00    +0.000 C 
ATOM     19  C   UNL     1     -33.902  45.153  -5.819  0.00  0.00    +0.000 C 
ATOM     20  C   UNL     1     -35.088  45.418  -6.503  0.00  0.00    +0.000 C 
ENDROOT
BRANCH  10  21
ATOM     21  O   UNL     1     -33.079  43.752 -12.822  0.00  0.00    +0.000 OA
ATOM     22  H   UNL     1     -33.532  43.126 -12.231  0.00  0.00    +0.000 HD
ENDBRANCH  10  21
BRANCH  17  23
ATOM     23  O   UNL     1     -31.574  47.319  -7.586  0.00  0.00    +0.000 OA
ATOM     24  H   UNL     1     -30.849  46.673  -7.511  0.00  0.00    +0.000 HD
ENDBRANCH  17  23
TORSDOF 2
ENDMDL
MODEL 3
REMARK VINA RESULT:      -6.4      5.309      8.500
REMARK  Name = Enterolactone.pdbqt.pdb
REMARK  2 active torsions:
REMARK  status: ('A' for Active; 'I' for Inactive)
REMARK    1  A    between atoms: C_10  and  O_14
REMARK    2  A    between atoms: C_19  and  O_23
REMARK                            x       y       z     vdW  Elec       q    Type
REMARK                         _______ _______ _______ _____ _____    ______ ____
ROOT
ATOM      1  O   UNL     1     -30.977  44.036 -16.305  0.00  0.00    +0.000 OA
ATOM      2  O   UNL     1     -30.782  44.913 -18.457  0.00  0.00    +0.000 OA
ATOM      3  C   UNL     1     -32.713  45.424 -15.479  0.00  0.00    +0.000 C 
ATOM      4  C   UNL     1     -32.413  45.783 -16.844  0.00  0.00    +0.000 C 
ATOM      5  C   UNL     1     -31.796  44.383 -15.325  0.00  0.00    +0.000 C 
ATOM      6  C   UNL     1     -31.294  44.893 -17.353  0.00  0.00    +0.000 C 
ATOM      7  C   UNL     1     -33.913  45.690 -14.794  0.00  0.00    +0.000 C 
ATOM      8  C   UNL     1     -35.132  45.976 -14.113  0.00  0.00    +0.000 C 
ATOM      9  C   UNL     1     -36.326  46.036 -14.827  0.00  0.00    +0.000 C 
ATOM     10  C   UNL     1     -37.508  46.326 -14.152  0.00  0.00    +0.000 C 
ATOM     11  C   UNL     1     -37.509  46.556 -12.780  0.00  0.00    +0.000 C 
ATOM     12  C   UNL     1     -36.312  46.494 -12.072  0.00  0.00    +0.000 C 
ATOM     13  C   UNL     1     -35.122  46.204 -12.738  0.00  0.00    +0.000 C 
ATOM     14  C   UNL     1     -33.101  46.747 -17.616  0.00  0.00    +0.000 C 
ATOM     15  C   UNL     1     -33.804  47.716 -18.388  0.00  0.00    +0.000 C 
ATOM     16  C   UNL     1     -34.234  48.898 -17.791  0.00  0.00    +0.000 C 
ATOM     17  C   UNL     1     -34.929  49.832 -18.554  0.00  0.00    +0.000 C 
ATOM     18  C   UNL     1     -35.197  49.599 -19.899  0.00  0.00    +0.000 C 
ATOM     19  C   UNL     1     -34.763  48.415 -20.490  0.00  0.00    +0.000 C 
ATOM     20  C   UNL     1     -34.066  47.472 -19.736  0.00  0.00    +0.000 C 
ENDROOT
BRANCH  10  21
ATOM     21  O   UNL     1     -38.695  46.392 -14.821  0.00  0.00    +0.000 OA
ATOM     22  H   UNL     1     -38.510  46.455 -15.774  0.00  0.00    +0.000 HD
ENDBRANCH  10  21
BRANCH  17  23
ATOM     23  O   UNL     1     -35.366  50.999 -18.000  0.00  0.00    +0.000 OA
ATOM     24  H   UNL     1     -35.007  51.066 -17.097  0.00  0.00    +0.000 HD
ENDBRANCH  17  23
TORSDOF 2
ENDMDL
MODEL 4
REMARK VINA RESULT:      -6.4      1.420      5.829
REMARK  Name = Enterolactone.pdbqt.pdb
REMARK  2 active torsions:
REMARK  status: ('A' for Active; 'I' for Inactive)
REMARK    1  A    between atoms: C_10  and  O_14
REMARK    2  A    between atoms: C_19  and  O_23
REMARK                            x       y       z     vdW  Elec       q    Type
REMARK                         _______ _______ _______ _____ _____    ______ ____
ROOT
ATOM      1  O   UNL     1     -36.354  46.456 -13.318  0.00  0.00    +0.000 OA
ATOM      2  O   UNL     1     -34.316  45.641 -12.531  0.00  0.00    +0.000 OA
ATOM      3  C   UNL     1     -37.460  46.792 -11.249  0.00  0.00    +0.000 C 
ATOM      4  C   UNL     1     -36.131  46.282 -11.011  0.00  0.00    +0.000 C 
ATOM      5  C   UNL     1     -37.423  46.846 -12.643  0.00  0.00    +0.000 C 
ATOM      6  C   UNL     1     -35.442  46.064 -12.345  0.00  0.00    +0.000 C 
ATOM      7  C   UNL     1     -38.254  47.504 -10.330  0.00  0.00    +0.000 C 
ATOM      8  C   UNL     1     -39.048  48.217  -9.385  0.00  0.00    +0.000 C 
ATOM      9  C   UNL     1     -38.431  49.020  -8.428  0.00  0.00    +0.000 C 
ATOM     10  C   UNL     1     -39.216  49.701  -7.504  0.00  0.00    +0.000 C 
ATOM     11  C   UNL     1     -40.603  49.591  -7.524  0.00  0.00    +0.000 C 
ATOM     12  C   UNL     1     -41.214  48.786  -8.483  0.00  0.00    +0.000 C 
ATOM     13  C   UNL     1     -40.436  48.099  -9.414  0.00  0.00    +0.000 C 
ATOM     14  C   UNL     1     -35.532  46.095  -9.745  0.00  0.00    +0.000 C 
ATOM     15  C   UNL     1     -34.934  45.915  -8.464  0.00  0.00    +0.000 C 
ATOM     16  C   UNL     1     -35.698  45.437  -7.404  0.00  0.00    +0.000 C 
ATOM     17  C   UNL     1     -35.104  45.275  -6.156  0.00  0.00    +0.000 C 
ATOM     18  C   UNL     1     -33.763  45.585  -5.956  0.00  0.00    +0.000 C 
ATOM     19  C   UNL     1     -33.003  46.063  -7.022  0.00  0.00    +0.000 C 
ATOM     20  C   UNL     1     -33.588  46.229  -8.277  0.00  0.00    +0.000 C 
ENDROOT
BRANCH  10  21
ATOM     21  O   UNL     1     -38.644  50.496  -6.554  0.00  0.00    +0.000 OA
ATOM     22  H   UNL     1     -38.838  50.121  -5.678  0.00  0.00    +0.000 HD
ENDBRANCH  10  21
BRANCH  17  23
ATOM     23  O   UNL     1     -35.824  44.810  -5.095  0.00  0.00    +0.000 OA
ATOM     24  H   UNL     1     -36.703  44.536  -5.414  0.00  0.00    +0.000 HD
ENDBRANCH  17  23
TORSDOF 2
ENDMDL
MODEL 5
REMARK VINA RESULT:      -6.3      2.531      6.158
REMARK  Name = Enterolactone.pdbqt.pdb
REMARK  2 active torsions:
REMARK  status: ('A' for Active; 'I' for Inactive)
REMARK    1  A    between atoms: C_10  and  O_14
REMARK    2  A    between atoms: C_19  and  O_23
REMARK                            x       y       z     vdW  Elec       q    Type
REMARK                         _______ _______ _______ _____ _____    ______ ____
ROOT
ATOM      1  O   UNL     1     -38.613  48.431  -9.860  0.00  0.00    +0.000 OA
ATOM      2  O   UNL     1     -37.639  48.900  -7.795  0.00  0.00    +0.000 OA
ATOM      3  C   UNL     1     -37.235  46.625 -10.536  0.00  0.00    +0.000 C 
ATOM      4  C   UNL     1     -36.816  47.095  -9.237  0.00  0.00    +0.000 C 
ATOM      5  C   UNL     1     -38.299  47.502 -10.749  0.00  0.00    +0.000 C 
ATOM      6  C   UNL     1     -37.702  48.256  -8.825  0.00  0.00    +0.000 C 
ATOM      7  C   UNL     1     -36.979  45.353 -11.082  0.00  0.00    +0.000 C 
ATOM      8  C   UNL     1     -36.703  44.064 -11.623  0.00  0.00    +0.000 C 
ATOM      9  C   UNL     1     -36.587  42.967 -10.772  0.00  0.00    +0.000 C 
ATOM     10  C   UNL     1     -36.307  41.715 -11.311  0.00  0.00    +0.000 C 
ATOM     11  C   UNL     1     -36.143  41.548 -12.682  0.00  0.00    +0.000 C 
ATOM     12  C   UNL     1     -36.260  42.648 -13.528  0.00  0.00    +0.000 C 
ATOM     13  C   UNL     1     -36.540  43.907 -12.998  0.00  0.00    +0.000 C 
ATOM     14  C   UNL     1     -35.805  46.519  -8.436  0.00  0.00    +0.000 C 
ATOM     15  C   UNL     1     -34.787  45.928  -7.632  0.00  0.00    +0.000 C 
ATOM     16  C   UNL     1     -33.627  45.443  -8.230  0.00  0.00    +0.000 C 
ATOM     17  C   UNL     1     -32.645  44.859  -7.435  0.00  0.00    +0.000 C 
ATOM     18  C   UNL     1     -32.809  44.755  -6.058  0.00  0.00    +0.000 C 
ATOM     19  C   UNL     1     -33.971  45.243  -5.466  0.00  0.00    +0.000 C 
ATOM     20  C   UNL     1     -34.962  45.830  -6.253  0.00  0.00    +0.000 C 
ENDROOT
BRANCH  10  21
ATOM     21  O   UNL     1     -36.187  40.620 -10.506  0.00  0.00    +0.000 OA
ATOM     22  H   UNL     1     -36.489  39.837 -11.000  0.00  0.00    +0.000 HD
ENDBRANCH  10  21
BRANCH  17  23
ATOM     23  O   UNL     1     -31.498  44.372  -7.989  0.00  0.00    +0.000 OA
ATOM     24  H   UNL     1     -30.775  44.475  -7.344  0.00  0.00    +0.000 HD
ENDBRANCH  17  23
TORSDOF 2
ENDMDL
MODEL 6
REMARK VINA RESULT:      -6.2      6.076     11.141
REMARK  Name = Enterolactone.pdbqt.pdb
REMARK  2 active torsions:
REMARK  status: ('A' for Active; 'I' for Inactive)
REMARK    1  A    between atoms: C_10  and  O_14
REMARK    2  A    between atoms: C_19  and  O_23
REMARK                            x       y       z     vdW  Elec       q    Type
REMARK                         _______ _______ _______ _____ _____    ______ ____
ROOT
ATOM      1  O   UNL     1     -35.471  47.688 -13.838  0.00  0.00    +0.000 OA
ATOM      2  O   UNL     1     -34.237  46.009 -12.792  0.00  0.00    +0.000 OA
ATOM      3  C   UNL     1     -34.512  47.580 -16.003  0.00  0.00    +0.000 C 
ATOM      4  C   UNL     1     -33.895  46.593 -15.150  0.00  0.00    +0.000 C 
ATOM      5  C   UNL     1     -35.415  48.121 -15.087  0.00  0.00    +0.000 C 
ATOM      6  C   UNL     1     -34.513  46.683 -13.767  0.00  0.00    +0.000 C 
ATOM      7  C   UNL     1     -34.544  47.559 -17.410  0.00  0.00    +0.000 C 
ATOM      8  C   UNL     1     -34.558  47.527 -18.835  0.00  0.00    +0.000 C 
ATOM      9  C   UNL     1     -34.563  46.303 -19.499  0.00  0.00    +0.000 C 
ATOM     10  C   UNL     1     -34.567  46.284 -20.891  0.00  0.00    +0.000 C 
ATOM     11  C   UNL     1     -34.566  47.468 -21.621  0.00  0.00    +0.000 C 
ATOM     12  C   UNL     1     -34.561  48.689 -20.951  0.00  0.00    +0.000 C 
ATOM     13  C   UNL     1     -34.558  48.719 -19.558  0.00  0.00    +0.000 C 
ATOM     14  C   UNL     1     -32.933  45.639 -15.551  0.00  0.00    +0.000 C 
ATOM     15  C   UNL     1     -31.967  44.677 -15.965  0.00  0.00    +0.000 C 
ATOM     16  C   UNL     1     -30.976  45.037 -16.874  0.00  0.00    +0.000 C 
ATOM     17  C   UNL     1     -30.046  44.085 -17.279  0.00  0.00    +0.000 C 
ATOM     18  C   UNL     1     -30.094  42.784 -16.789  0.00  0.00    +0.000 C 
ATOM     19  C   UNL     1     -31.088  42.431 -15.879  0.00  0.00    +0.000 C 
ATOM     20  C   UNL     1     -32.026  43.376 -15.466  0.00  0.00    +0.000 C 
ENDROOT
BRANCH  10  21
ATOM     21  O   UNL     1     -34.571  45.102 -21.573  0.00  0.00    +0.000 OA
ATOM     22  H   UNL     1     -33.752  45.042 -22.095  0.00  0.00    +0.000 HD
ENDBRANCH  10  21
BRANCH  17  23
ATOM     23  O   UNL     1     -29.063  44.404 -18.169  0.00  0.00    +0.000 OA
ATOM     24  H   UNL     1     -28.800  43.594 -18.643  0.00  0.00    +0.000 HD
ENDBRANCH  17  23
TORSDOF 2
ENDMDL
MODEL 7
REMARK VINA RESULT:      -6.1      7.456     11.099
REMARK  Name = Enterolactone.pdbqt.pdb
REMARK  2 active torsions:
REMARK  status: ('A' for Active; 'I' for Inactive)
REMARK    1  A    between atoms: C_10  and  O_14
REMARK    2  A    between atoms: C_19  and  O_23
REMARK                            x       y       z     vdW  Elec       q    Type
REMARK                         _______ _______ _______ _____ _____    ______ ____
ROOT
ATOM      1  O   UNL     1     -34.282  47.920 -14.898  0.00  0.00    +0.000 OA
ATOM      2  O   UNL     1     -35.451  49.185 -16.470  0.00  0.00    +0.000 OA
ATOM      3  C   UNL     1     -33.415  46.237 -16.325  0.00  0.00    +0.000 C 
ATOM      4  C   UNL     1     -34.194  47.175 -17.098  0.00  0.00    +0.000 C 
ATOM      5  C   UNL     1     -33.559  46.824 -15.067  0.00  0.00    +0.000 C 
ATOM      6  C   UNL     1     -34.748  48.238 -16.169  0.00  0.00    +0.000 C 
ATOM      7  C   UNL     1     -32.416  45.378 -16.820  0.00  0.00    +0.000 C 
ATOM      8  C   UNL     1     -31.414  44.509 -17.340  0.00  0.00    +0.000 C 
ATOM      9  C   UNL     1     -30.662  44.902 -18.445  0.00  0.00    +0.000 C 
ATOM     10  C   UNL     1     -29.694  44.039 -18.950  0.00  0.00    +0.000 C 
ATOM     11  C   UNL     1     -29.469  42.797 -18.367  0.00  0.00    +0.000 C 
ATOM     12  C   UNL     1     -30.224  42.409 -17.263  0.00  0.00    +0.000 C 
ATOM     13  C   UNL     1     -31.197  43.265 -16.749  0.00  0.00    +0.000 C 
ATOM     14  C   UNL     1     -34.348  47.160 -18.503  0.00  0.00    +0.000 C 
ATOM     15  C   UNL     1     -34.494  47.142 -19.920  0.00  0.00    +0.000 C 
ATOM     16  C   UNL     1     -34.627  45.927 -20.587  0.00  0.00    +0.000 C 
ATOM     17  C   UNL     1     -34.758  45.923 -21.972  0.00  0.00    +0.000 C 
ATOM     18  C   UNL     1     -34.756  47.111 -22.695  0.00  0.00    +0.000 C 
ATOM     19  C   UNL     1     -34.623  48.323 -22.021  0.00  0.00    +0.000 C 
ATOM     20  C   UNL     1     -34.491  48.340 -20.634  0.00  0.00    +0.000 C 
ENDROOT
BRANCH  10  21
ATOM     21  O   UNL     1     -28.940  44.394 -20.031  0.00  0.00    +0.000 OA
ATOM     22  H   UNL     1     -29.536  44.577 -20.778  0.00  0.00    +0.000 HD
ENDBRANCH  10  21
BRANCH  17  23
ATOM     23  O   UNL     1     -34.889  44.750 -22.657  0.00  0.00    +0.000 OA
ATOM     24  H   UNL     1     -34.415  44.831 -23.503  0.00  0.00    +0.000 HD
ENDBRANCH  17  23
TORSDOF 2
ENDMDL
MODEL 8
REMARK VINA RESULT:      -6.1     25.664     27.637
REMARK  Name = Enterolactone.pdbqt.pdb
REMARK  2 active torsions:
REMARK  status: ('A' for Active; 'I' for Inactive)
REMARK    1  A    between atoms: C_10  and  O_14
REMARK    2  A    between atoms: C_19  and  O_23
REMARK                            x       y       z     vdW  Elec       q    Type
REMARK                         _______ _______ _______ _____ _____    ______ ____
ROOT
ATOM      1  O   UNL     1     -16.649  56.501 -22.260  0.00  0.00    +0.000 OA
ATOM      2  O   UNL     1     -15.601  54.677 -21.256  0.00  0.00    +0.000 OA
ATOM      3  C   UNL     1     -16.566  55.798 -24.522  0.00  0.00    +0.000 C 
ATOM      4  C   UNL     1     -15.964  54.792 -23.679  0.00  0.00    +0.000 C 
ATOM      5  C   UNL     1     -16.923  56.719 -23.536  0.00  0.00    +0.000 C 
ATOM      6  C   UNL     1     -16.017  55.264 -22.238  0.00  0.00    +0.000 C 
ATOM      7  C   UNL     1     -17.089  55.595 -25.813  0.00  0.00    +0.000 C 
ATOM      8  C   UNL     1     -17.607  55.374 -27.122  0.00  0.00    +0.000 C 
ATOM      9  C   UNL     1     -18.156  54.136 -27.449  0.00  0.00    +0.000 C 
ATOM     10  C   UNL     1     -18.648  53.930 -28.734  0.00  0.00    +0.000 C 
ATOM     11  C   UNL     1     -18.599  54.939 -29.690  0.00  0.00    +0.000 C 
ATOM     12  C   UNL     1     -18.049  56.175 -29.356  0.00  0.00    +0.000 C 
ATOM     13  C   UNL     1     -17.553  56.393 -28.072  0.00  0.00    +0.000 C 
ATOM     14  C   UNL     1     -15.480  53.536 -24.107  0.00  0.00    +0.000 C 
ATOM     15  C   UNL     1     -15.000  52.268 -24.547  0.00  0.00    +0.000 C 
ATOM     16  C   UNL     1     -14.331  52.165 -25.763  0.00  0.00    +0.000 C 
ATOM     17  C   UNL     1     -13.876  50.920 -26.186  0.00  0.00    +0.000 C 
ATOM     18  C   UNL     1     -14.082  49.783 -25.412  0.00  0.00    +0.000 C 
ATOM     19  C   UNL     1     -14.752  49.893 -24.196  0.00  0.00    +0.000 C 
ATOM     20  C   UNL     1     -15.212  51.136 -23.762  0.00  0.00    +0.000 C 
ENDROOT
BRANCH  10  21
ATOM     21  O   UNL     1     -19.192  52.729 -29.087  0.00  0.00    +0.000 OA
ATOM     22  H   UNL     1     -19.109  52.622 -30.051  0.00  0.00    +0.000 HD
ENDBRANCH  10  21
BRANCH  17  23
ATOM     23  O   UNL     1     -13.218  50.783 -27.373  0.00  0.00    +0.000 OA
ATOM     24  H   UNL     1     -13.230  51.642 -27.834  0.00  0.00    +0.000 HD
ENDBRANCH  17  23
TORSDOF 2
ENDMDL
MODEL 9
REMARK VINA RESULT:      -6.0      2.505      4.970
REMARK  Name = Enterolactone.pdbqt.pdb
REMARK  2 active torsions:
REMARK  status: ('A' for Active; 'I' for Inactive)
REMARK    1  A    between atoms: C_10  and  O_14
REMARK    2  A    between atoms: C_19  and  O_23
REMARK                            x       y       z     vdW  Elec       q    Type
REMARK                         _______ _______ _______ _____ _____    ______ ____
ROOT
ATOM      1  O   UNL     1     -39.671  45.824  -8.757  0.00  0.00    +0.000 OA
ATOM      2  O   UNL     1     -39.953  46.319 -11.017  0.00  0.00    +0.000 OA
ATOM      3  C   UNL     1     -37.319  45.533  -8.715  0.00  0.00    +0.000 C 
ATOM      4  C   UNL     1     -37.743  45.866 -10.054  0.00  0.00    +0.000 C 
ATOM      5  C   UNL     1     -38.563  45.561  -8.083  0.00  0.00    +0.000 C 
ATOM      6  C   UNL     1     -39.250  46.039 -10.064  0.00  0.00    +0.000 C 
ATOM      7  C   UNL     1     -36.025  45.698  -8.188  0.00  0.00    +0.000 C 
ATOM      8  C   UNL     1     -34.706  45.864  -7.673  0.00  0.00    +0.000 C 
ATOM      9  C   UNL     1     -33.904  46.900  -8.145  0.00  0.00    +0.000 C 
ATOM     10  C   UNL     1     -32.615  47.045  -7.642  0.00  0.00    +0.000 C 
ATOM     11  C   UNL     1     -32.121  46.172  -6.678  0.00  0.00    +0.000 C 
ATOM     12  C   UNL     1     -32.928  45.139  -6.209  0.00  0.00    +0.000 C 
ATOM     13  C   UNL     1     -34.221  44.984  -6.707  0.00  0.00    +0.000 C 
ATOM     14  C   UNL     1     -36.891  46.083 -11.160  0.00  0.00    +0.000 C 
ATOM     15  C   UNL     1     -36.025  46.305 -12.270  0.00  0.00    +0.000 C 
ATOM     16  C   UNL     1     -34.897  45.507 -12.438  0.00  0.00    +0.000 C 
ATOM     17  C   UNL     1     -34.054  45.741 -13.520  0.00  0.00    +0.000 C 
ATOM     18  C   UNL     1     -34.323  46.758 -14.430  0.00  0.00    +0.000 C 
ATOM     19  C   UNL     1     -35.454  47.552 -14.257  0.00  0.00    +0.000 C 
ATOM     20  C   UNL     1     -36.307  47.327 -13.176  0.00  0.00    +0.000 C 
ENDROOT
BRANCH  10  21
ATOM     21  O   UNL     1     -31.803  48.049  -8.083  0.00  0.00    +0.000 OA
ATOM     22  H   UNL     1     -32.359  48.793  -8.373  0.00  0.00    +0.000 HD
ENDBRANCH  10  21
BRANCH  17  23
ATOM     23  O   UNL     1     -32.939  44.979 -13.713  0.00  0.00    +0.000 OA
ATOM     24  H   UNL     1     -32.846  44.370 -12.959  0.00  0.00    +0.000 HD
ENDBRANCH  17  23
TORSDOF 2
ENDMDL
