MODEL 1
REMARK VINA RESULT:      -6.3      0.000      0.000
REMARK  Name = 
REMARK  12 active torsions:
REMARK  status: ('A' for Active; 'I' for Inactive)
REMARK    1  A    between atoms: O_2  and  C_12
REMARK    2  A    between atoms: O_2  and  C_24
REMARK    3  A    between atoms: O_3  and  C_18
REMARK    4  A    between atoms: O_4  and  C_23
REMARK    5  A    between atoms: O_5  and  C_25
REMARK    6  A    between atoms: O_6  and  C_26
REMARK    7  A    between atoms: O_8  and  C_27
REMARK    8  A    between atoms: O_9  and  C_31
REMARK    9  A    between atoms: O_10  and  C_32
REMARK   10  A    between atoms: O_11  and  C_33
REMARK   11  A    between atoms: C_13  and  C_16
REMARK   12  A    between atoms: C_24  and  C_28
REMARK                            x       y       z     vdW  Elec       q    Type
REMARK                         _______ _______ _______ _____ _____    ______ ____
ROOT
ATOM      1  O   UNL     1     -37.073  45.739 -10.547  0.00  0.00    +0.000 OA
ATOM      2  C   UNL     1     -36.399  46.771  -8.406  0.00  0.00    +0.000 C 
ATOM      3  C   UNL     1     -35.956  46.172  -9.752  0.00  0.00    +0.000 C 
ATOM      4  C   UNL     1     -37.250  48.009  -8.686  0.00  0.00    +0.000 C 
ATOM      5  C   UNL     1     -38.228  47.761  -9.807  0.00  0.00    +0.000 A 
ATOM      6  C   UNL     1     -38.080  46.661 -10.661  0.00  0.00    +0.000 A 
ATOM      7  C   UNL     1     -39.292  48.642 -10.032  0.00  0.00    +0.000 A 
ATOM      8  C   UNL     1     -39.000  46.423 -11.685  0.00  0.00    +0.000 A 
ATOM      9  C   UNL     1     -40.209  48.420 -11.057  0.00  0.00    +0.000 A 
ATOM     10  C   UNL     1     -40.057  47.307 -11.874  0.00  0.00    +0.000 A 
ENDROOT
BRANCH   3  11
ATOM     11  C   UNL     1     -35.004  44.999  -9.559  0.00  0.00    +0.000 A 
ATOM     12  C   UNL     1     -33.757  45.206  -8.938  0.00  0.00    +0.000 A 
ATOM     13  C   UNL     1     -35.361  43.697  -9.957  0.00  0.00    +0.000 A 
ATOM     14  C   UNL     1     -34.484  42.640  -9.741  0.00  0.00    +0.000 A 
ATOM     15  C   UNL     1     -32.885  44.135  -8.730  0.00  0.00    +0.000 A 
ATOM     16  C   UNL     1     -33.250  42.855  -9.131  0.00  0.00    +0.000 A 
BRANCH  14  17
ATOM     17  O   UNL     1     -34.797  41.359 -10.109  0.00  0.00    +0.000 OA
ATOM     18  H   UNL     1     -34.715  41.290 -11.076  0.00  0.00    +0.000 HD
ENDBRANCH  14  17
BRANCH  15  19
ATOM     19  O   UNL     1     -31.674  44.333  -8.131  0.00  0.00    +0.000 OA
ATOM     20  H   UNL     1     -31.213  45.068  -8.562  0.00  0.00    +0.000 HD
ENDBRANCH  15  19
BRANCH  16  21
ATOM     21  O   UNL     1     -32.412  41.791  -8.933  0.00  0.00    +0.000 OA
ATOM     22  H   UNL     1     -32.718  41.114  -9.566  0.00  0.00    +0.000 HD
ENDBRANCH  16  21
ENDBRANCH   3  11
BRANCH   7  23
ATOM     23  O   UNL     1     -39.421  49.733  -9.220  0.00  0.00    +0.000 OA
ATOM     24  H   UNL     1     -39.727  50.486  -9.753  0.00  0.00    +0.000 HD
ENDBRANCH   7  23
BRANCH  10  25
ATOM     25  O   UNL     1     -40.973  47.118 -12.865  0.00  0.00    +0.000 OA
ATOM     26  H   UNL     1     -41.587  46.414 -12.595  0.00  0.00    +0.000 HD
ENDBRANCH  10  25
BRANCH   2  27
ATOM     27  O   UNL     1     -37.200  45.803  -7.682  0.00  0.00    +0.000 OA
BRANCH  27  29
ATOM     28  O   UNL     1     -37.707  46.382  -5.519  0.00  0.00    +0.000 OA
ATOM     29  C   UNL     1     -37.042  45.773  -6.340  0.00  0.00    +0.000 C 
BRANCH  29  30
ATOM     30  C   UNL     1     -35.890  44.903  -5.990  0.00  0.00    +0.000 A 
ATOM     31  C   UNL     1     -36.002  43.528  -6.249  0.00  0.00    +0.000 A 
ATOM     32  C   UNL     1     -34.714  45.425  -5.426  0.00  0.00    +0.000 A 
ATOM     33  C   UNL     1     -33.661  44.568  -5.109  0.00  0.00    +0.000 A 
ATOM     34  C   UNL     1     -34.944  42.689  -5.923  0.00  0.00    +0.000 A 
ATOM     35  C   UNL     1     -33.780  43.203  -5.352  0.00  0.00    +0.000 A 
BRANCH  33  36
ATOM     36  O   UNL     1     -32.511  45.058  -4.558  0.00  0.00    +0.000 OA
ATOM     37  H   UNL     1     -32.115  44.388  -3.981  0.00  0.00    +0.000 HD
ENDBRANCH  33  36
BRANCH  34  38
ATOM     38  O   UNL     1     -35.000  41.340  -6.147  0.00  0.00    +0.000 OA
ATOM     39  H   UNL     1     -35.459  40.919  -5.398  0.00  0.00    +0.000 HD
ENDBRANCH  34  38
BRANCH  35  40
ATOM     40  O   UNL     1     -32.758  42.347  -5.044  0.00  0.00    +0.000 OA
ATOM     41  H   UNL     1     -31.942  42.862  -5.194  0.00  0.00    +0.000 HD
ENDBRANCH  35  40
ENDBRANCH  29  30
ENDBRANCH  27  29
ENDBRANCH   2  27
TORSDOF 12
ENDMDL
MODEL 2
REMARK VINA RESULT:      -6.1      2.604      5.816
REMARK  Name = 
REMARK  12 active torsions:
REMARK  status: ('A' for Active; 'I' for Inactive)
REMARK    1  A    between atoms: O_2  and  C_12
REMARK    2  A    between atoms: O_2  and  C_24
REMARK    3  A    between atoms: O_3  and  C_18
REMARK    4  A    between atoms: O_4  and  C_23
REMARK    5  A    between atoms: O_5  and  C_25
REMARK    6  A    between atoms: O_6  and  C_26
REMARK    7  A    between atoms: O_8  and  C_27
REMARK    8  A    between atoms: O_9  and  C_31
REMARK    9  A    between atoms: O_10  and  C_32
REMARK   10  A    between atoms: O_11  and  C_33
REMARK   11  A    between atoms: C_13  and  C_16
REMARK   12  A    between atoms: C_24  and  C_28
REMARK                            x       y       z     vdW  Elec       q    Type
REMARK                         _______ _______ _______ _____ _____    ______ ____
ROOT
ATOM      1  O   UNL     1     -35.667  44.467 -12.016  0.00  0.00    +0.000 OA
ATOM      2  C   UNL     1     -36.993  45.772 -10.390  0.00  0.00    +0.000 C 
ATOM      3  C   UNL     1     -36.806  45.329 -11.852  0.00  0.00    +0.000 C 
ATOM      4  C   UNL     1     -37.253  44.530  -9.540  0.00  0.00    +0.000 C 
ATOM      5  C   UNL     1     -36.325  43.402  -9.917  0.00  0.00    +0.000 A 
ATOM      6  C   UNL     1     -35.603  43.435 -11.117  0.00  0.00    +0.000 A 
ATOM      7  C   UNL     1     -36.185  42.286  -9.084  0.00  0.00    +0.000 A 
ATOM      8  C   UNL     1     -34.728  42.399 -11.453  0.00  0.00    +0.000 A 
ATOM      9  C   UNL     1     -35.324  41.241  -9.415  0.00  0.00    +0.000 A 
ATOM     10  C   UNL     1     -34.598  41.310 -10.597  0.00  0.00    +0.000 A 
ENDROOT
BRANCH   3  11
ATOM     11  C   UNL     1     -36.658  46.523 -12.786  0.00  0.00    +0.000 A 
ATOM     12  C   UNL     1     -35.458  46.710 -13.499  0.00  0.00    +0.000 A 
ATOM     13  C   UNL     1     -37.716  47.431 -12.979  0.00  0.00    +0.000 A 
ATOM     14  C   UNL     1     -37.564  48.496 -13.862  0.00  0.00    +0.000 A 
ATOM     15  C   UNL     1     -35.319  47.785 -14.379  0.00  0.00    +0.000 A 
ATOM     16  C   UNL     1     -36.371  48.676 -14.559  0.00  0.00    +0.000 A 
BRANCH  14  17
ATOM     17  O   UNL     1     -38.571  49.397 -14.081  0.00  0.00    +0.000 OA
ATOM     18  H   UNL     1     -38.584  50.028 -13.341  0.00  0.00    +0.000 HD
ENDBRANCH  14  17
BRANCH  15  19
ATOM     19  O   UNL     1     -34.155  47.970 -15.070  0.00  0.00    +0.000 OA
ATOM     20  H   UNL     1     -33.799  48.850 -14.878  0.00  0.00    +0.000 HD
ENDBRANCH  15  19
BRANCH  16  21
ATOM     21  O   UNL     1     -36.257  49.733 -15.419  0.00  0.00    +0.000 OA
ATOM     22  H   UNL     1     -37.151  49.844 -15.795  0.00  0.00    +0.000 HD
ENDBRANCH  16  21
ENDBRANCH   3  11
BRANCH   7  23
ATOM     23  O   UNL     1     -36.912  42.236  -7.929  0.00  0.00    +0.000 OA
ATOM     24  H   UNL     1     -36.485  42.804  -7.265  0.00  0.00    +0.000 HD
ENDBRANCH   7  23
BRANCH  10  25
ATOM     25  O   UNL     1     -33.762  40.273 -10.889  0.00  0.00    +0.000 OA
ATOM     26  H   UNL     1     -32.844  40.560 -10.745  0.00  0.00    +0.000 HD
ENDBRANCH  10  25
BRANCH   2  27
ATOM     27  O   UNL     1     -35.786  46.421  -9.919  0.00  0.00    +0.000 OA
BRANCH  27  29
ATOM     28  O   UNL     1     -36.495  47.707  -8.155  0.00  0.00    +0.000 OA
ATOM     29  C   UNL     1     -35.787  46.836  -8.633  0.00  0.00    +0.000 C 
BRANCH  29  30
ATOM     30  C   UNL     1     -34.756  46.094  -7.864  0.00  0.00    +0.000 A 
ATOM     31  C   UNL     1     -34.839  46.113  -6.463  0.00  0.00    +0.000 A 
ATOM     32  C   UNL     1     -33.727  45.381  -8.504  0.00  0.00    +0.000 A 
ATOM     33  C   UNL     1     -32.779  44.703  -7.740  0.00  0.00    +0.000 A 
ATOM     34  C   UNL     1     -33.883  45.434  -5.718  0.00  0.00    +0.000 A 
ATOM     35  C   UNL     1     -32.854  44.736  -6.351  0.00  0.00    +0.000 A 
BRANCH  33  36
ATOM     36  O   UNL     1     -31.771  44.008  -8.345  0.00  0.00    +0.000 OA
ATOM     37  H   UNL     1     -31.526  44.443  -9.175  0.00  0.00    +0.000 HD
ENDBRANCH  33  36
BRANCH  34  38
ATOM     38  O   UNL     1     -33.911  45.424  -4.350  0.00  0.00    +0.000 OA
ATOM     39  H   UNL     1     -33.223  46.029  -4.020  0.00  0.00    +0.000 HD
ENDBRANCH  34  38
BRANCH  35  40
ATOM     40  O   UNL     1     -31.930  44.080  -5.585  0.00  0.00    +0.000 OA
ATOM     41  H   UNL     1     -32.218  43.147  -5.584  0.00  0.00    +0.000 HD
ENDBRANCH  35  40
ENDBRANCH  29  30
ENDBRANCH  27  29
ENDBRANCH   2  27
TORSDOF 12
ENDMDL
MODEL 3
REMARK VINA RESULT:      -5.9      1.498      6.493
REMARK  Name = 
REMARK  12 active torsions:
REMARK  status: ('A' for Active; 'I' for Inactive)
REMARK    1  A    between atoms: O_2  and  C_12
REMARK    2  A    between atoms: O_2  and  C_24
REMARK    3  A    between atoms: O_3  and  C_18
REMARK    4  A    between atoms: O_4  and  C_23
REMARK    5  A    between atoms: O_5  and  C_25
REMARK    6  A    between atoms: O_6  and  C_26
REMARK    7  A    between atoms: O_8  and  C_27
REMARK    8  A    between atoms: O_9  and  C_31
REMARK    9  A    between atoms: O_10  and  C_32
REMARK   10  A    between atoms: O_11  and  C_33
REMARK   11  A    between atoms: C_13  and  C_16
REMARK   12  A    between atoms: C_24  and  C_28
REMARK                            x       y       z     vdW  Elec       q    Type
REMARK                         _______ _______ _______ _____ _____    ______ ____
ROOT
ATOM      1  O   UNL     1     -35.906  46.473  -7.333  0.00  0.00    +0.000 OA
ATOM      2  C   UNL     1     -35.438  45.802  -9.665  0.00  0.00    +0.000 C 
ATOM      3  C   UNL     1     -35.904  46.909  -8.703  0.00  0.00    +0.000 C 
ATOM      4  C   UNL     1     -33.996  45.436  -9.315  0.00  0.00    +0.000 C 
ATOM      5  C   UNL     1     -33.803  45.328  -7.823  0.00  0.00    +0.000 A 
ATOM      6  C   UNL     1     -34.752  45.850  -6.935  0.00  0.00    +0.000 A 
ATOM      7  C   UNL     1     -32.657  44.722  -7.295  0.00  0.00    +0.000 A 
ATOM      8  C   UNL     1     -34.581  45.728  -5.554  0.00  0.00    +0.000 A 
ATOM      9  C   UNL     1     -32.470  44.606  -5.919  0.00  0.00    +0.000 A 
ATOM     10  C   UNL     1     -33.439  45.107  -5.059  0.00  0.00    +0.000 A 
ENDROOT
BRANCH   3  11
ATOM     11  C   UNL     1     -37.296  47.414  -9.061  0.00  0.00    +0.000 A 
ATOM     12  C   UNL     1     -38.138  47.919  -8.051  0.00  0.00    +0.000 A 
ATOM     13  C   UNL     1     -37.748  47.420 -10.394  0.00  0.00    +0.000 A 
ATOM     14  C   UNL     1     -39.012  47.916 -10.696  0.00  0.00    +0.000 A 
ATOM     15  C   UNL     1     -39.406  48.411  -8.369  0.00  0.00    +0.000 A 
ATOM     16  C   UNL     1     -39.840  48.409  -9.690  0.00  0.00    +0.000 A 
BRANCH  14  17
ATOM     17  O   UNL     1     -39.485  47.943 -11.980  0.00  0.00    +0.000 OA
ATOM     18  H   UNL     1     -38.743  48.142 -12.576  0.00  0.00    +0.000 HD
ENDBRANCH  14  17
BRANCH  15  19
ATOM     19  O   UNL     1     -40.226  48.898  -7.392  0.00  0.00    +0.000 OA
ATOM     20  H   UNL     1     -40.083  48.405  -6.570  0.00  0.00    +0.000 HD
ENDBRANCH  15  19
BRANCH  16  21
ATOM     21  O   UNL     1     -41.077  48.889 -10.023  0.00  0.00    +0.000 OA
ATOM     22  H   UNL     1     -41.025  49.063 -10.982  0.00  0.00    +0.000 HD
ENDBRANCH  16  21
ENDBRANCH   3  11
BRANCH   7  23
ATOM     23  O   UNL     1     -31.714  44.241  -8.159  0.00  0.00    +0.000 OA
ATOM     24  H   UNL     1     -31.213  43.536  -7.715  0.00  0.00    +0.000 HD
ENDBRANCH   7  23
BRANCH  10  25
ATOM     25  O   UNL     1     -33.227  44.974  -3.719  0.00  0.00    +0.000 OA
ATOM     26  H   UNL     1     -34.087  44.899  -3.271  0.00  0.00    +0.000 HD
ENDBRANCH  10  25
BRANCH   2  27
ATOM     27  O   UNL     1     -36.274  44.629  -9.500  0.00  0.00    +0.000 OA
BRANCH  27  29
ATOM     28  O   UNL     1     -36.033  43.239 -11.311  0.00  0.00    +0.000 OA
ATOM     29  C   UNL     1     -35.868  43.506 -10.132  0.00  0.00    +0.000 C 
BRANCH  29  30
ATOM     30  C   UNL     1     -35.207  42.596  -9.162  0.00  0.00    +0.000 A 
ATOM     31  C   UNL     1     -34.032  41.944  -9.568  0.00  0.00    +0.000 A 
ATOM     32  C   UNL     1     -35.724  42.389  -7.871  0.00  0.00    +0.000 A 
ATOM     33  C   UNL     1     -35.071  41.521  -6.998  0.00  0.00    +0.000 A 
ATOM     34  C   UNL     1     -33.397  41.079  -8.684  0.00  0.00    +0.000 A 
ATOM     35  C   UNL     1     -33.915  40.864  -7.407  0.00  0.00    +0.000 A 
BRANCH  33  36
ATOM     36  O   UNL     1     -35.560  41.307  -5.740  0.00  0.00    +0.000 OA
ATOM     37  H   UNL     1     -34.957  41.691  -5.087  0.00  0.00    +0.000 HD
ENDBRANCH  33  36
BRANCH  34  38
ATOM     38  O   UNL     1     -32.253  40.413  -9.028  0.00  0.00    +0.000 OA
ATOM     39  H   UNL     1     -32.480  39.488  -9.230  0.00  0.00    +0.000 HD
ENDBRANCH  34  38
BRANCH  35  40
ATOM     40  O   UNL     1     -33.263  40.006  -6.563  0.00  0.00    +0.000 OA
ATOM     41  H   UNL     1     -32.905  39.305  -7.142  0.00  0.00    +0.000 HD
ENDBRANCH  35  40
ENDBRANCH  29  30
ENDBRANCH  27  29
ENDBRANCH   2  27
TORSDOF 12
ENDMDL
MODEL 4
REMARK VINA RESULT:      -5.8     22.944     25.548
REMARK  Name = 
REMARK  12 active torsions:
REMARK  status: ('A' for Active; 'I' for Inactive)
REMARK    1  A    between atoms: O_2  and  C_12
REMARK    2  A    between atoms: O_2  and  C_24
REMARK    3  A    between atoms: O_3  and  C_18
REMARK    4  A    between atoms: O_4  and  C_23
REMARK    5  A    between atoms: O_5  and  C_25
REMARK    6  A    between atoms: O_6  and  C_26
REMARK    7  A    between atoms: O_8  and  C_27
REMARK    8  A    between atoms: O_9  and  C_31
REMARK    9  A    between atoms: O_10  and  C_32
REMARK   10  A    between atoms: O_11  and  C_33
REMARK   11  A    between atoms: C_13  and  C_16
REMARK   12  A    between atoms: C_24  and  C_28
REMARK                            x       y       z     vdW  Elec       q    Type
REMARK                         _______ _______ _______ _____ _____    ______ ____
ROOT
ATOM      1  O   UNL     1     -30.962  61.364 -27.499  0.00  0.00    +0.000 OA
ATOM      2  C   UNL     1     -29.414  61.717 -25.605  0.00  0.00    +0.000 C 
ATOM      3  C   UNL     1     -30.762  61.156 -26.090  0.00  0.00    +0.000 C 
ATOM      4  C   UNL     1     -28.293  60.969 -26.326  0.00  0.00    +0.000 C 
ATOM      5  C   UNL     1     -28.603  60.796 -27.792  0.00  0.00    +0.000 A 
ATOM      6  C   UNL     1     -29.900  60.995 -28.282  0.00  0.00    +0.000 A 
ATOM      7  C   UNL     1     -27.602  60.409 -28.691  0.00  0.00    +0.000 A 
ATOM      8  C   UNL     1     -30.178  60.856 -29.644  0.00  0.00    +0.000 A 
ATOM      9  C   UNL     1     -27.871  60.256 -30.049  0.00  0.00    +0.000 A 
ATOM     10  C   UNL     1     -29.159  60.485 -30.515  0.00  0.00    +0.000 A 
ENDROOT
BRANCH   3  11
ATOM     11  C   UNL     1     -31.931  61.769 -25.330  0.00  0.00    +0.000 A 
ATOM     12  C   UNL     1     -33.034  62.282 -26.040  0.00  0.00    +0.000 A 
ATOM     13  C   UNL     1     -31.948  61.803 -23.923  0.00  0.00    +0.000 A 
ATOM     14  C   UNL     1     -33.043  62.342 -23.255  0.00  0.00    +0.000 A 
ATOM     15  C   UNL     1     -34.125  62.823 -25.356  0.00  0.00    +0.000 A 
ATOM     16  C   UNL     1     -34.127  62.852 -23.965  0.00  0.00    +0.000 A 
BRANCH  14  17
ATOM     17  O   UNL     1     -33.099  62.389 -21.888  0.00  0.00    +0.000 OA
ATOM     18  H   UNL     1     -32.193  62.318 -21.542  0.00  0.00    +0.000 HD
ENDBRANCH  14  17
BRANCH  15  19
ATOM     19  O   UNL     1     -35.195  63.323 -26.041  0.00  0.00    +0.000 OA
ATOM     20  H   UNL     1     -35.106  64.283 -26.128  0.00  0.00    +0.000 HD
ENDBRANCH  15  19
BRANCH  16  21
ATOM     21  O   UNL     1     -35.187  63.373 -23.276  0.00  0.00    +0.000 OA
ATOM     22  H   UNL     1     -35.870  63.533 -23.955  0.00  0.00    +0.000 HD
ENDBRANCH  16  21
ENDBRANCH   3  11
BRANCH   7  23
ATOM     23  O   UNL     1     -26.343  60.184 -28.211  0.00  0.00    +0.000 OA
ATOM     24  H   UNL     1     -25.705  60.306 -28.934  0.00  0.00    +0.000 HD
ENDBRANCH   7  23
BRANCH  10  25
ATOM     25  O   UNL     1     -29.388  60.330 -31.850  0.00  0.00    +0.000 OA
ATOM     26  H   UNL     1     -29.409  61.207 -32.269  0.00  0.00    +0.000 HD
ENDBRANCH  10  25
BRANCH   2  27
ATOM     27  O   UNL     1     -29.326  63.126 -25.934  0.00  0.00    +0.000 OA
BRANCH  27  29
ATOM     28  O   UNL     1     -27.416  64.264 -25.360  0.00  0.00    +0.000 OA
ATOM     29  C   UNL     1     -28.553  63.886 -25.127  0.00  0.00    +0.000 C 
BRANCH  29  30
ATOM     30  C   UNL     1     -29.277  64.177 -23.864  0.00  0.00    +0.000 A 
ATOM     31  C   UNL     1     -28.830  63.552 -22.690  0.00  0.00    +0.000 A 
ATOM     32  C   UNL     1     -30.374  65.056 -23.826  0.00  0.00    +0.000 A 
ATOM     33  C   UNL     1     -31.026  65.294 -22.618  0.00  0.00    +0.000 A 
ATOM     34  C   UNL     1     -29.494  63.799 -21.495  0.00  0.00    +0.000 A 
ATOM     35  C   UNL     1     -30.590  64.662 -21.457  0.00  0.00    +0.000 A 
BRANCH  33  36
ATOM     36  O   UNL     1     -32.095  66.143 -22.563  0.00  0.00    +0.000 OA
ATOM     37  H   UNL     1     -31.887  66.959 -23.043  0.00  0.00    +0.000 HD
ENDBRANCH  33  36
BRANCH  34  38
ATOM     38  O   UNL     1     -29.105  63.213 -20.321  0.00  0.00    +0.000 OA
ATOM     39  H   UNL     1     -29.901  62.944 -19.828  0.00  0.00    +0.000 HD
ENDBRANCH  34  38
BRANCH  35  40
ATOM     40  O   UNL     1     -31.220  64.881 -20.263  0.00  0.00    +0.000 OA
ATOM     41  H   UNL     1     -32.148  64.614 -20.413  0.00  0.00    +0.000 HD
ENDBRANCH  35  40
ENDBRANCH  29  30
ENDBRANCH  27  29
ENDBRANCH   2  27
TORSDOF 12
ENDMDL
MODEL 5
REMARK VINA RESULT:      -5.6     23.373     25.779
REMARK  Name = 
REMARK  12 active torsions:
REMARK  status: ('A' for Active; 'I' for Inactive)
REMARK    1  A    between atoms: O_2  and  C_12
REMARK    2  A    between atoms: O_2  and  C_24
REMARK    3  A    between atoms: O_3  and  C_18
REMARK    4  A    between atoms: O_4  and  C_23
REMARK    5  A    between atoms: O_5  and  C_25
REMARK    6  A    between atoms: O_6  and  C_26
REMARK    7  A    between atoms: O_8  and  C_27
REMARK    8  A    between atoms: O_9  and  C_31
REMARK    9  A    between atoms: O_10  and  C_32
REMARK   10  A    between atoms: O_11  and  C_33
REMARK   11  A    between atoms: C_13  and  C_16
REMARK   12  A    between atoms: C_24  and  C_28
REMARK                            x       y       z     vdW  Elec       q    Type
REMARK                         _______ _______ _______ _____ _____    ______ ____
ROOT
ATOM      1  O   UNL     1     -30.795  60.922 -27.786  0.00  0.00    +0.000 OA
ATOM      2  C   UNL     1     -28.977  61.480 -26.209  0.00  0.00    +0.000 C 
ATOM      3  C   UNL     1     -30.351  60.822 -26.422  0.00  0.00    +0.000 C 
ATOM      4  C   UNL     1     -27.950  60.740 -27.065  0.00  0.00    +0.000 C 
ATOM      5  C   UNL     1     -28.489  60.452 -28.443  0.00  0.00    +0.000 A 
ATOM      6  C   UNL     1     -29.860  60.553 -28.716  0.00  0.00    +0.000 A 
ATOM      7  C   UNL     1     -27.631  60.053 -29.475  0.00  0.00    +0.000 A 
ATOM      8  C   UNL     1     -30.352  60.306 -29.999  0.00  0.00    +0.000 A 
ATOM      9  C   UNL     1     -28.114  59.793 -30.756  0.00  0.00    +0.000 A 
ATOM     10  C   UNL     1     -29.473  59.927 -31.008  0.00  0.00    +0.000 A 
ENDROOT
BRANCH   3  11
ATOM     11  C   UNL     1     -31.411  61.428 -25.512  0.00  0.00    +0.000 A 
ATOM     12  C   UNL     1     -32.752  61.483 -25.940  0.00  0.00    +0.000 A 
ATOM     13  C   UNL     1     -31.083  61.907 -24.230  0.00  0.00    +0.000 A 
ATOM     14  C   UNL     1     -32.078  62.428 -23.408  0.00  0.00    +0.000 A 
ATOM     15  C   UNL     1     -33.739  62.011 -25.105  0.00  0.00    +0.000 A 
ATOM     16  C   UNL     1     -33.400  62.482 -23.842  0.00  0.00    +0.000 A 
BRANCH  14  17
ATOM     17  O   UNL     1     -31.799  62.898 -22.153  0.00  0.00    +0.000 OA
ATOM     18  H   UNL     1     -32.358  62.420 -21.516  0.00  0.00    +0.000 HD
ENDBRANCH  14  17
BRANCH  15  19
ATOM     19  O   UNL     1     -35.039  62.068 -25.518  0.00  0.00    +0.000 OA
ATOM     20  H   UNL     1     -35.142  61.568 -26.342  0.00  0.00    +0.000 HD
ENDBRANCH  15  19
BRANCH  16  21
ATOM     21  O   UNL     1     -34.352  63.000 -23.007  0.00  0.00    +0.000 OA
ATOM     22  H   UNL     1     -34.996  62.277 -22.887  0.00  0.00    +0.000 HD
ENDBRANCH  16  21
ENDBRANCH   3  11
BRANCH   7  23
ATOM     23  O   UNL     1     -26.298  59.923 -29.204  0.00  0.00    +0.000 OA
ATOM     24  H   UNL     1     -26.103  58.986 -29.035  0.00  0.00    +0.000 HD
ENDBRANCH   7  23
BRANCH  10  25
ATOM     25  O   UNL     1     -29.912  59.669 -32.273  0.00  0.00    +0.000 OA
ATOM     26  H   UNL     1     -30.045  58.711 -32.370  0.00  0.00    +0.000 HD
ENDBRANCH  10  25
BRANCH   2  27
ATOM     27  O   UNL     1     -29.029  62.866 -26.631  0.00  0.00    +0.000 OA
BRANCH  27  29
ATOM     28  O   UNL     1     -27.235  64.157 -27.251  0.00  0.00    +0.000 OA
ATOM     29  C   UNL     1     -27.923  63.607 -26.405  0.00  0.00    +0.000 C 
BRANCH  29  30
ATOM     30  C   UNL     1     -27.623  63.633 -24.951  0.00  0.00    +0.000 A 
ATOM     31  C   UNL     1     -26.325  63.290 -24.540  0.00  0.00    +0.000 A 
ATOM     32  C   UNL     1     -28.594  63.997 -24.003  0.00  0.00    +0.000 A 
ATOM     33  C   UNL     1     -28.268  64.002 -22.648  0.00  0.00    +0.000 A 
ATOM     34  C   UNL     1     -26.019  63.298 -23.185  0.00  0.00    +0.000 A 
ATOM     35  C   UNL     1     -26.985  63.647 -22.241  0.00  0.00    +0.000 A 
BRANCH  33  36
ATOM     36  O   UNL     1     -29.200  64.352 -21.712  0.00  0.00    +0.000 OA
ATOM     37  H   UNL     1     -29.248  65.317 -21.645  0.00  0.00    +0.000 HD
ENDBRANCH  33  36
BRANCH  34  38
ATOM     38  O   UNL     1     -24.773  62.966 -22.728  0.00  0.00    +0.000 OA
ATOM     39  H   UNL     1     -24.511  62.117 -23.127  0.00  0.00    +0.000 HD
ENDBRANCH  34  38
BRANCH  35  40
ATOM     40  O   UNL     1     -26.648  63.643 -20.915  0.00  0.00    +0.000 OA
ATOM     41  H   UNL     1     -25.757  63.246 -20.882  0.00  0.00    +0.000 HD
ENDBRANCH  35  40
ENDBRANCH  29  30
ENDBRANCH  27  29
ENDBRANCH   2  27
TORSDOF 12
ENDMDL
MODEL 6
REMARK VINA RESULT:      -5.6      7.912     12.091
REMARK  Name = 
REMARK  12 active torsions:
REMARK  status: ('A' for Active; 'I' for Inactive)
REMARK    1  A    between atoms: O_2  and  C_12
REMARK    2  A    between atoms: O_2  and  C_24
REMARK    3  A    between atoms: O_3  and  C_18
REMARK    4  A    between atoms: O_4  and  C_23
REMARK    5  A    between atoms: O_5  and  C_25
REMARK    6  A    between atoms: O_6  and  C_26
REMARK    7  A    between atoms: O_8  and  C_27
REMARK    8  A    between atoms: O_9  and  C_31
REMARK    9  A    between atoms: O_10  and  C_32
REMARK   10  A    between atoms: O_11  and  C_33
REMARK   11  A    between atoms: C_13  and  C_16
REMARK   12  A    between atoms: C_24  and  C_28
REMARK                            x       y       z     vdW  Elec       q    Type
REMARK                         _______ _______ _______ _____ _____    ______ ____
ROOT
ATOM      1  O   UNL     1     -32.818  45.886 -18.630  0.00  0.00    +0.000 OA
ATOM      2  C   UNL     1     -34.689  46.031 -17.021  0.00  0.00    +0.000 C 
ATOM      3  C   UNL     1     -34.248  45.841 -18.483  0.00  0.00    +0.000 C 
ATOM      4  C   UNL     1     -34.121  44.879 -16.193  0.00  0.00    +0.000 C 
ATOM      5  C   UNL     1     -32.687  44.592 -16.561  0.00  0.00    +0.000 A 
ATOM      6  C   UNL     1     -32.132  45.100 -17.742  0.00  0.00    +0.000 A 
ATOM      7  C   UNL     1     -31.888  43.790 -15.739  0.00  0.00    +0.000 A 
ATOM      8  C   UNL     1     -30.797  44.851 -18.069  0.00  0.00    +0.000 A 
ATOM      9  C   UNL     1     -30.558  43.524 -16.061  0.00  0.00    +0.000 A 
ATOM     10  C   UNL     1     -30.023  44.062 -17.224  0.00  0.00    +0.000 A 
ENDROOT
BRANCH   3  11
ATOM     11  C   UNL     1     -34.872  46.886 -19.398  0.00  0.00    +0.000 A 
ATOM     12  C   UNL     1     -36.267  46.907 -19.588  0.00  0.00    +0.000 A 
ATOM     13  C   UNL     1     -34.081  47.861 -20.035  0.00  0.00    +0.000 A 
ATOM     14  C   UNL     1     -34.682  48.822 -20.842  0.00  0.00    +0.000 A 
ATOM     15  C   UNL     1     -36.856  47.876 -20.402  0.00  0.00    +0.000 A 
ATOM     16  C   UNL     1     -36.062  48.832 -21.027  0.00  0.00    +0.000 A 
BRANCH  14  17
ATOM     17  O   UNL     1     -33.948  49.790 -21.474  0.00  0.00    +0.000 OA
ATOM     18  H   UNL     1     -33.401  50.243 -20.809  0.00  0.00    +0.000 HD
ENDBRANCH  14  17
BRANCH  15  19
ATOM     19  O   UNL     1     -38.208  47.897 -20.590  0.00  0.00    +0.000 OA
ATOM     20  H   UNL     1     -38.646  48.180 -19.774  0.00  0.00    +0.000 HD
ENDBRANCH  15  19
BRANCH  16  21
ATOM     21  O   UNL     1     -36.618  49.793 -21.826  0.00  0.00    +0.000 OA
ATOM     22  H   UNL     1     -37.324  50.190 -21.281  0.00  0.00    +0.000 HD
ENDBRANCH  16  21
ENDBRANCH   3  11
BRANCH   7  23
ATOM     23  O   UNL     1     -32.436  43.266 -14.602  0.00  0.00    +0.000 OA
ATOM     24  H   UNL     1     -32.743  43.996 -14.038  0.00  0.00    +0.000 HD
ENDBRANCH   7  23
BRANCH  10  25
ATOM     25  O   UNL     1     -28.718  43.786 -17.508  0.00  0.00    +0.000 OA
ATOM     26  H   UNL     1     -28.273  44.610 -17.773  0.00  0.00    +0.000 HD
ENDBRANCH  10  25
BRANCH   2  27
ATOM     27  O   UNL     1     -34.160  47.281 -16.512  0.00  0.00    +0.000 OA
BRANCH  27  29
ATOM     28  O   UNL     1     -34.729  47.911 -14.379  0.00  0.00    +0.000 OA
ATOM     29  C   UNL     1     -34.909  47.919 -15.586  0.00  0.00    +0.000 C 
BRANCH  29  30
ATOM     30  C   UNL     1     -36.038  48.621 -16.248  0.00  0.00    +0.000 A 
ATOM     31  C   UNL     1     -35.732  49.659 -17.143  0.00  0.00    +0.000 A 
ATOM     32  C   UNL     1     -37.375  48.264 -16.006  0.00  0.00    +0.000 A 
ATOM     33  C   UNL     1     -38.401  48.956 -16.648  0.00  0.00    +0.000 A 
ATOM     34  C   UNL     1     -36.769  50.339 -17.771  0.00  0.00    +0.000 A 
ATOM     35  C   UNL     1     -38.097  49.994 -17.523  0.00  0.00    +0.000 A 
BRANCH  33  36
ATOM     36  O   UNL     1     -39.707  48.624 -16.422  0.00  0.00    +0.000 OA
ATOM     37  H   UNL     1     -40.066  48.167 -17.197  0.00  0.00    +0.000 HD
ENDBRANCH  33  36
BRANCH  34  38
ATOM     38  O   UNL     1     -36.530  51.362 -18.648  0.00  0.00    +0.000 OA
ATOM     39  H   UNL     1     -37.109  51.250 -19.423  0.00  0.00    +0.000 HD
ENDBRANCH  34  38
BRANCH  35  40
ATOM     40  O   UNL     1     -39.092  50.686 -18.159  0.00  0.00    +0.000 OA
ATOM     41  H   UNL     1     -39.308  50.150 -18.947  0.00  0.00    +0.000 HD
ENDBRANCH  35  40
ENDBRANCH  29  30
ENDBRANCH  27  29
ENDBRANCH   2  27
TORSDOF 12
ENDMDL
MODEL 7
REMARK VINA RESULT:      -5.6      8.599     12.420
REMARK  Name = 
REMARK  12 active torsions:
REMARK  status: ('A' for Active; 'I' for Inactive)
REMARK    1  A    between atoms: O_2  and  C_12
REMARK    2  A    between atoms: O_2  and  C_24
REMARK    3  A    between atoms: O_3  and  C_18
REMARK    4  A    between atoms: O_4  and  C_23
REMARK    5  A    between atoms: O_5  and  C_25
REMARK    6  A    between atoms: O_6  and  C_26
REMARK    7  A    between atoms: O_8  and  C_27
REMARK    8  A    between atoms: O_9  and  C_31
REMARK    9  A    between atoms: O_10  and  C_32
REMARK   10  A    between atoms: O_11  and  C_33
REMARK   11  A    between atoms: C_13  and  C_16
REMARK   12  A    between atoms: C_24  and  C_28
REMARK                            x       y       z     vdW  Elec       q    Type
REMARK                         _______ _______ _______ _____ _____    ______ ____
ROOT
ATOM      1  O   UNL     1     -32.707  45.092 -19.461  0.00  0.00    +0.000 OA
ATOM      2  C   UNL     1     -33.681  45.212 -17.193  0.00  0.00    +0.000 C 
ATOM      3  C   UNL     1     -33.912  44.943 -18.691  0.00  0.00    +0.000 C 
ATOM      4  C   UNL     1     -32.687  44.178 -16.665  0.00  0.00    +0.000 C 
ATOM      5  C   UNL     1     -31.541  43.979 -17.625  0.00  0.00    +0.000 A 
ATOM      6  C   UNL     1     -31.620  44.436 -18.947  0.00  0.00    +0.000 A 
ATOM      7  C   UNL     1     -30.379  43.310 -17.218  0.00  0.00    +0.000 A 
ATOM      8  C   UNL     1     -30.547  44.269 -19.825  0.00  0.00    +0.000 A 
ATOM      9  C   UNL     1     -29.308  43.128 -18.090  0.00  0.00    +0.000 A 
ATOM     10  C   UNL     1     -29.400  43.615 -19.388  0.00  0.00    +0.000 A 
ENDROOT
BRANCH   3  11
ATOM     11  C   UNL     1     -34.982  45.860 -19.267  0.00  0.00    +0.000 A 
ATOM     12  C   UNL     1     -34.732  46.563 -20.462  0.00  0.00    +0.000 A 
ATOM     13  C   UNL     1     -36.239  45.993 -18.647  0.00  0.00    +0.000 A 
ATOM     14  C   UNL     1     -37.208  46.814 -19.213  0.00  0.00    +0.000 A 
ATOM     15  C   UNL     1     -35.714  47.387 -21.016  0.00  0.00    +0.000 A 
ATOM     16  C   UNL     1     -36.950  47.510 -20.391  0.00  0.00    +0.000 A 
BRANCH  14  17
ATOM     17  O   UNL     1     -38.444  46.965 -18.642  0.00  0.00    +0.000 OA
ATOM     18  H   UNL     1     -38.330  47.029 -17.678  0.00  0.00    +0.000 HD
ENDBRANCH  14  17
BRANCH  15  19
ATOM     19  O   UNL     1     -35.473  48.072 -22.172  0.00  0.00    +0.000 OA
ATOM     20  H   UNL     1     -35.364  47.448 -22.905  0.00  0.00    +0.000 HD
ENDBRANCH  15  19
BRANCH  16  21
ATOM     21  O   UNL     1     -37.927  48.308 -20.919  0.00  0.00    +0.000 OA
ATOM     22  H   UNL     1     -38.341  47.765 -21.617  0.00  0.00    +0.000 HD
ENDBRANCH  16  21
ENDBRANCH   3  11
BRANCH   7  23
ATOM     23  O   UNL     1     -30.312  42.836 -15.939  0.00  0.00    +0.000 OA
ATOM     24  H   UNL     1     -31.158  43.011 -15.494  0.00  0.00    +0.000 HD
ENDBRANCH   7  23
BRANCH  10  25
ATOM     25  O   UNL     1     -28.333  43.423 -20.214  0.00  0.00    +0.000 OA
ATOM     26  H   UNL     1     -27.679  42.867 -19.758  0.00  0.00    +0.000 HD
ENDBRANCH  10  25
BRANCH   2  27
ATOM     27  O   UNL     1     -33.120  46.537 -17.017  0.00  0.00    +0.000 OA
BRANCH  27  29
ATOM     28  O   UNL     1     -33.589  47.174 -14.862  0.00  0.00    +0.000 OA
ATOM     29  C   UNL     1     -33.692  47.312 -16.070  0.00  0.00    +0.000 C 
BRANCH  29  30
ATOM     30  C   UNL     1     -34.520  48.363 -16.715  0.00  0.00    +0.000 A 
ATOM     31  C   UNL     1     -34.035  48.952 -17.894  0.00  0.00    +0.000 A 
ATOM     32  C   UNL     1     -35.757  48.762 -16.181  0.00  0.00    +0.000 A 
ATOM     33  C   UNL     1     -36.496  49.757 -16.818  0.00  0.00    +0.000 A 
ATOM     34  C   UNL     1     -34.784  49.944 -18.514  0.00  0.00    +0.000 A 
ATOM     35  C   UNL     1     -36.006  50.349 -17.979  0.00  0.00    +0.000 A 
BRANCH  33  36
ATOM     36  O   UNL     1     -37.700  50.158 -16.312  0.00  0.00    +0.000 OA
ATOM     37  H   UNL     1     -38.245  49.382 -16.115  0.00  0.00    +0.000 HD
ENDBRANCH  33  36
BRANCH  34  38
ATOM     38  O   UNL     1     -34.357  50.556 -19.661  0.00  0.00    +0.000 OA
ATOM     39  H   UNL     1     -34.652  51.484 -19.647  0.00  0.00    +0.000 HD
ENDBRANCH  34  38
BRANCH  35  40
ATOM     40  O   UNL     1     -36.717  51.330 -18.616  0.00  0.00    +0.000 OA
ATOM     41  H   UNL     1     -36.085  51.735 -19.241  0.00  0.00    +0.000 HD
ENDBRANCH  35  40
ENDBRANCH  29  30
ENDBRANCH  27  29
ENDBRANCH   2  27
TORSDOF 12
ENDMDL
MODEL 8
REMARK VINA RESULT:      -5.6     23.298     25.279
REMARK  Name = 
REMARK  12 active torsions:
REMARK  status: ('A' for Active; 'I' for Inactive)
REMARK    1  A    between atoms: O_2  and  C_12
REMARK    2  A    between atoms: O_2  and  C_24
REMARK    3  A    between atoms: O_3  and  C_18
REMARK    4  A    between atoms: O_4  and  C_23
REMARK    5  A    between atoms: O_5  and  C_25
REMARK    6  A    between atoms: O_6  and  C_26
REMARK    7  A    between atoms: O_8  and  C_27
REMARK    8  A    between atoms: O_9  and  C_31
REMARK    9  A    between atoms: O_10  and  C_32
REMARK   10  A    between atoms: O_11  and  C_33
REMARK   11  A    between atoms: C_13  and  C_16
REMARK   12  A    between atoms: C_24  and  C_28
REMARK                            x       y       z     vdW  Elec       q    Type
REMARK                         _______ _______ _______ _____ _____    ______ ____
ROOT
ATOM      1  O   UNL     1     -31.109  61.183 -27.400  0.00  0.00    +0.000 OA
ATOM      2  C   UNL     1     -30.406  61.865 -25.132  0.00  0.00    +0.000 C 
ATOM      3  C   UNL     1     -31.423  61.104 -25.999  0.00  0.00    +0.000 C 
ATOM      4  C   UNL     1     -29.034  61.216 -25.316  0.00  0.00    +0.000 C 
ATOM      5  C   UNL     1     -28.766  60.901 -26.766  0.00  0.00    +0.000 A 
ATOM      6  C   UNL     1     -29.805  60.897 -27.706  0.00  0.00    +0.000 A 
ATOM      7  C   UNL     1     -27.474  60.581 -27.198  0.00  0.00    +0.000 A 
ATOM      8  C   UNL     1     -29.549  60.627 -29.052  0.00  0.00    +0.000 A 
ATOM      9  C   UNL     1     -27.209  60.297 -28.537  0.00  0.00    +0.000 A 
ATOM     10  C   UNL     1     -28.251  60.327 -29.454  0.00  0.00    +0.000 A 
ENDROOT
BRANCH   3  11
ATOM     11  C   UNL     1     -32.841  61.616 -25.782  0.00  0.00    +0.000 A 
ATOM     12  C   UNL     1     -33.810  61.441 -26.788  0.00  0.00    +0.000 A 
ATOM     13  C   UNL     1     -33.214  62.235 -24.574  0.00  0.00    +0.000 A 
ATOM     14  C   UNL     1     -34.524  62.666 -24.391  0.00  0.00    +0.000 A 
ATOM     15  C   UNL     1     -35.121  61.882 -26.592  0.00  0.00    +0.000 A 
ATOM     16  C   UNL     1     -35.475  62.493 -25.394  0.00  0.00    +0.000 A 
BRANCH  14  17
ATOM     17  O   UNL     1     -34.928  63.266 -23.229  0.00  0.00    +0.000 OA
ATOM     18  H   UNL     1     -35.733  62.819 -22.917  0.00  0.00    +0.000 HD
ENDBRANCH  14  17
BRANCH  15  19
ATOM     19  O   UNL     1     -36.062  61.715 -27.567  0.00  0.00    +0.000 OA
ATOM     20  H   UNL     1     -36.946  61.849 -27.193  0.00  0.00    +0.000 HD
ENDBRANCH  15  19
BRANCH  16  21
ATOM     21  O   UNL     1     -36.754  62.928 -25.180  0.00  0.00    +0.000 OA
ATOM     22  H   UNL     1     -36.713  63.410 -24.332  0.00  0.00    +0.000 HD
ENDBRANCH  16  21
ENDBRANCH   3  11
BRANCH   7  23
ATOM     23  O   UNL     1     -26.464  60.552 -26.278  0.00  0.00    +0.000 OA
ATOM     24  H   UNL     1     -26.775  60.974 -25.459  0.00  0.00    +0.000 HD
ENDBRANCH   7  23
BRANCH  10  25
ATOM     25  O   UNL     1     -27.957  60.049 -30.756  0.00  0.00    +0.000 OA
ATOM     26  H   UNL     1     -28.702  59.561 -31.149  0.00  0.00    +0.000 HD
ENDBRANCH  10  25
BRANCH   2  27
ATOM     27  O   UNL     1     -30.334  63.247 -25.565  0.00  0.00    +0.000 OA
BRANCH  27  29
ATOM     28  O   UNL     1     -28.503  64.611 -25.320  0.00  0.00    +0.000 OA
ATOM     29  C   UNL     1     -29.493  64.051 -24.877  0.00  0.00    +0.000 C 
BRANCH  29  30
ATOM     30  C   UNL     1     -29.925  64.134 -23.459  0.00  0.00    +0.000 A 
ATOM     31  C   UNL     1     -31.159  64.743 -23.181  0.00  0.00    +0.000 A 
ATOM     32  C   UNL     1     -29.139  63.616 -22.415  0.00  0.00    +0.000 A 
ATOM     33  C   UNL     1     -29.584  63.722 -21.098  0.00  0.00    +0.000 A 
ATOM     34  C   UNL     1     -31.585  64.842 -21.862  0.00  0.00    +0.000 A 
ATOM     35  C   UNL     1     -30.801  64.339 -20.824  0.00  0.00    +0.000 A 
BRANCH  33  36
ATOM     36  O   UNL     1     -28.832  63.226 -20.071  0.00  0.00    +0.000 OA
ATOM     37  H   UNL     1     -27.990  63.702 -20.024  0.00  0.00    +0.000 HD
ENDBRANCH  33  36
BRANCH  34  38
ATOM     38  O   UNL     1     -32.775  65.430 -21.534  0.00  0.00    +0.000 OA
ATOM     39  H   UNL     1     -33.363  64.752 -21.154  0.00  0.00    +0.000 HD
ENDBRANCH  34  38
BRANCH  35  40
ATOM     40  O   UNL     1     -31.252  64.454 -19.537  0.00  0.00    +0.000 OA
ATOM     41  H   UNL     1     -31.858  65.220 -19.549  0.00  0.00    +0.000 HD
ENDBRANCH  35  40
ENDBRANCH  29  30
ENDBRANCH  27  29
ENDBRANCH   2  27
TORSDOF 12
ENDMDL
MODEL 9
REMARK VINA RESULT:      -5.6      6.160      9.112
REMARK  Name = 
REMARK  12 active torsions:
REMARK  status: ('A' for Active; 'I' for Inactive)
REMARK    1  A    between atoms: O_2  and  C_12
REMARK    2  A    between atoms: O_2  and  C_24
REMARK    3  A    between atoms: O_3  and  C_18
REMARK    4  A    between atoms: O_4  and  C_23
REMARK    5  A    between atoms: O_5  and  C_25
REMARK    6  A    between atoms: O_6  and  C_26
REMARK    7  A    between atoms: O_8  and  C_27
REMARK    8  A    between atoms: O_9  and  C_31
REMARK    9  A    between atoms: O_10  and  C_32
REMARK   10  A    between atoms: O_11  and  C_33
REMARK   11  A    between atoms: C_13  and  C_16
REMARK   12  A    between atoms: C_24  and  C_28
REMARK                            x       y       z     vdW  Elec       q    Type
REMARK                         _______ _______ _______ _____ _____    ______ ____
ROOT
ATOM      1  O   UNL     1     -36.189  46.927 -13.316  0.00  0.00    +0.000 OA
ATOM      2  C   UNL     1     -34.021  45.899 -13.909  0.00  0.00    +0.000 C 
ATOM      3  C   UNL     1     -34.858  47.185 -13.798  0.00  0.00    +0.000 C 
ATOM      4  C   UNL     1     -33.878  45.294 -12.513  0.00  0.00    +0.000 C 
ATOM      5  C   UNL     1     -35.185  45.331 -11.762  0.00  0.00    +0.000 A 
ATOM      6  C   UNL     1     -36.244  46.137 -12.199  0.00  0.00    +0.000 A 
ATOM      7  C   UNL     1     -35.358  44.575 -10.596  0.00  0.00    +0.000 A 
ATOM      8  C   UNL     1     -37.461  46.151 -11.513  0.00  0.00    +0.000 A 
ATOM      9  C   UNL     1     -36.564  44.591  -9.898  0.00  0.00    +0.000 A 
ATOM     10  C   UNL     1     -37.608  45.377 -10.367  0.00  0.00    +0.000 A 
ENDROOT
BRANCH   3  11
ATOM     11  C   UNL     1     -34.949  47.914 -15.132  0.00  0.00    +0.000 A 
ATOM     12  C   UNL     1     -33.951  47.716 -16.106  0.00  0.00    +0.000 A 
ATOM     13  C   UNL     1     -36.035  48.759 -15.428  0.00  0.00    +0.000 A 
ATOM     14  C   UNL     1     -36.107  49.388 -16.667  0.00  0.00    +0.000 A 
ATOM     15  C   UNL     1     -34.035  48.356 -17.344  0.00  0.00    +0.000 A 
ATOM     16  C   UNL     1     -35.112  49.190 -17.622  0.00  0.00    +0.000 A 
BRANCH  14  17
ATOM     17  O   UNL     1     -37.149  50.212 -16.995  0.00  0.00    +0.000 OA
ATOM     18  H   UNL     1     -36.927  51.115 -16.709  0.00  0.00    +0.000 HD
ENDBRANCH  14  17
BRANCH  15  19
ATOM     19  O   UNL     1     -33.067  48.169 -18.289  0.00  0.00    +0.000 OA
ATOM     20  H   UNL     1     -32.208  48.438 -17.933  0.00  0.00    +0.000 HD
ENDBRANCH  15  19
BRANCH  16  21
ATOM     21  O   UNL     1     -35.216  49.824 -18.830  0.00  0.00    +0.000 OA
ATOM     22  H   UNL     1     -34.468  50.452 -18.845  0.00  0.00    +0.000 HD
ENDBRANCH  16  21
ENDBRANCH   3  11
BRANCH   7  23
ATOM     23  O   UNL     1     -34.316  43.812 -10.150  0.00  0.00    +0.000 OA
ATOM     24  H   UNL     1     -34.644  42.918  -9.954  0.00  0.00    +0.000 HD
ENDBRANCH   7  23
BRANCH  10  25
ATOM     25  O   UNL     1     -38.775  45.367  -9.662  0.00  0.00    +0.000 OA
ATOM     26  H   UNL     1     -38.586  45.603  -8.738  0.00  0.00    +0.000 HD
ENDBRANCH  10  25
BRANCH   2  27
ATOM     27  O   UNL     1     -34.701  44.948 -14.766  0.00  0.00    +0.000 OA
BRANCH  27  29
ATOM     28  O   UNL     1     -34.333  42.685 -14.658  0.00  0.00    +0.000 OA
ATOM     29  C   UNL     1     -34.037  43.804 -15.043  0.00  0.00    +0.000 C 
BRANCH  29  30
ATOM     30  C   UNL     1     -32.842  44.105 -15.871  0.00  0.00    +0.000 A 
ATOM     31  C   UNL     1     -33.047  44.604 -17.166  0.00  0.00    +0.000 A 
ATOM     32  C   UNL     1     -31.537  43.911 -15.384  0.00  0.00    +0.000 A 
ATOM     33  C   UNL     1     -30.446  44.203 -16.200  0.00  0.00    +0.000 A 
ATOM     34  C   UNL     1     -31.947  44.886 -17.966  0.00  0.00    +0.000 A 
ATOM     35  C   UNL     1     -30.652  44.683 -17.490  0.00  0.00    +0.000 A 
BRANCH  33  36
ATOM     36  O   UNL     1     -29.172  44.018 -15.744  0.00  0.00    +0.000 OA
ATOM     37  H   UNL     1     -28.777  43.250 -16.182  0.00  0.00    +0.000 HD
ENDBRANCH  33  36
BRANCH  34  38
ATOM     38  O   UNL     1     -32.088  45.368 -19.239  0.00  0.00    +0.000 OA
ATOM     39  H   UNL     1     -31.284  45.865 -19.475  0.00  0.00    +0.000 HD
ENDBRANCH  34  38
BRANCH  35  40
ATOM     40  O   UNL     1     -29.592  44.972 -18.306  0.00  0.00    +0.000 OA
ATOM     41  H   UNL     1     -29.300  45.864 -18.035  0.00  0.00    +0.000 HD
ENDBRANCH  35  40
ENDBRANCH  29  30
ENDBRANCH  27  29
ENDBRANCH   2  27
TORSDOF 12
ENDMDL
