MODEL 1
REMARK VINA RESULT:      -6.8      0.000      0.000
REMARK  Name = Estradiol.pdbqt.pdb
REMARK  2 active torsions:
REMARK  status: ('A' for Active; 'I' for Inactive)
REMARK    1  A    between atoms: C_5  and  O_19
REMARK    2  A    between atoms: C_18  and  O_21
REMARK                            x       y       z     vdW  Elec       q    Type
REMARK                         _______ _______ _______ _____ _____    ______ ____
ROOT
ATOM      1  C   UNL     1     -34.558  45.051 -12.859  0.00  0.00    +0.000 C 
ATOM      2  C   UNL     1     -35.618  45.692 -11.837  0.00  0.00    +0.000 C 
ATOM      3  C   UNL     1     -35.399  45.663 -10.383  0.00  0.00    +0.000 A 
ATOM      4  C   UNL     1     -34.115  45.285  -9.677  0.00  0.00    +0.000 A 
ATOM      5  C   UNL     1     -34.464  46.122 -13.967  0.00  0.00    +0.000 C 
ATOM      6  C   UNL     1     -33.321  44.873 -12.097  0.00  0.00    +0.000 C 
ATOM      7  C   UNL     1     -36.134  46.874 -12.461  0.00  0.00    +0.000 C 
ATOM      8  C   UNL     1     -33.098  44.950 -10.606  0.00  0.00    +0.000 C 
ATOM      9  C   UNL     1     -35.409  47.160 -13.751  0.00  0.00    +0.000 C 
ATOM     10  C   UNL     1     -36.405  46.047  -9.459  0.00  0.00    +0.000 A 
ATOM     11  C   UNL     1     -35.144  43.731 -13.423  0.00  0.00    +0.000 C 
ATOM     12  C   UNL     1     -33.941  45.273  -8.186  0.00  0.00    +0.000 A 
ATOM     13  C   UNL     1     -36.223  46.046  -7.962  0.00  0.00    +0.000 A 
ATOM     14  C   UNL     1     -35.010  45.658  -7.320  0.00  0.00    +0.000 A 
ATOM     15  C   UNL     1     -32.733  44.880  -7.609  0.00  0.00    +0.000 A 
ATOM     16  C   UNL     1     -34.873  45.645  -5.939  0.00  0.00    +0.000 A 
ATOM     17  C   UNL     1     -32.588  44.865  -6.222  0.00  0.00    +0.000 A 
ATOM     18  C   UNL     1     -33.654  45.244  -5.404  0.00  0.00    +0.000 A 
ENDROOT
BRANCH   5  19
ATOM     19  O   UNL     1     -33.340  46.295 -14.746  0.00  0.00    +0.000 OA
ATOM     20  H   UNL     1     -33.465  47.000 -15.407  0.00  0.00    +0.000 HD
ENDBRANCH   5  19
BRANCH  18  21
ATOM     21  O   UNL     1     -33.522  45.227  -4.045  0.00  0.00    +0.000 OA
ATOM     22  H   UNL     1     -34.400  45.370  -3.649  0.00  0.00    +0.000 HD
ENDBRANCH  18  21
TORSDOF 2
ENDMDL
MODEL 2
REMARK VINA RESULT:      -6.8     24.396     25.840
REMARK  Name = Estradiol.pdbqt.pdb
REMARK  2 active torsions:
REMARK  status: ('A' for Active; 'I' for Inactive)
REMARK    1  A    between atoms: C_5  and  O_19
REMARK    2  A    between atoms: C_18  and  O_21
REMARK                            x       y       z     vdW  Elec       q    Type
REMARK                         _______ _______ _______ _____ _____    ______ ____
ROOT
ATOM      1  C   UNL     1     -17.412  55.311 -29.121  0.00  0.00    +0.000 C 
ATOM      2  C   UNL     1     -17.016  53.906 -28.452  0.00  0.00    +0.000 C 
ATOM      3  C   UNL     1     -16.607  53.813 -27.042  0.00  0.00    +0.000 A 
ATOM      4  C   UNL     1     -16.731  54.902 -25.999  0.00  0.00    +0.000 A 
ATOM      5  C   UNL     1     -18.680  54.960 -29.926  0.00  0.00    +0.000 C 
ATOM      6  C   UNL     1     -17.649  56.234 -28.010  0.00  0.00    +0.000 C 
ATOM      7  C   UNL     1     -17.891  52.919 -29.011  0.00  0.00    +0.000 C 
ATOM      8  C   UNL     1     -17.312  56.074 -26.547  0.00  0.00    +0.000 C 
ATOM      9  C   UNL     1     -18.933  53.562 -29.890  0.00  0.00    +0.000 C 
ATOM     10  C   UNL     1     -16.072  52.622 -26.487  0.00  0.00    +0.000 A 
ATOM     11  C   UNL     1     -16.266  55.752 -30.070  0.00  0.00    +0.000 C 
ATOM     12  C   UNL     1     -16.299  54.757 -24.568  0.00  0.00    +0.000 A 
ATOM     13  C   UNL     1     -15.651  52.475 -25.046  0.00  0.00    +0.000 A 
ATOM     14  C   UNL     1     -15.752  53.528 -24.090  0.00  0.00    +0.000 A 
ATOM     15  C   UNL     1     -16.417  55.821 -23.674  0.00  0.00    +0.000 A 
ATOM     16  C   UNL     1     -15.338  53.375 -22.773  0.00  0.00    +0.000 A 
ATOM     17  C   UNL     1     -16.003  55.675 -22.349  0.00  0.00    +0.000 A 
ATOM     18  C   UNL     1     -15.470  54.460 -21.914  0.00  0.00    +0.000 A 
ENDROOT
BRANCH   5  19
ATOM     19  O   UNL     1     -19.664  55.881 -30.213  0.00  0.00    +0.000 OA
ATOM     20  H   UNL     1     -19.403  56.471 -30.943  0.00  0.00    +0.000 HD
ENDBRANCH   5  19
BRANCH  18  21
ATOM     21  O   UNL     1     -15.058  54.311 -20.621  0.00  0.00    +0.000 OA
ATOM     22  H   UNL     1     -14.106  54.108 -20.623  0.00  0.00    +0.000 HD
ENDBRANCH  18  21
TORSDOF 2
ENDMDL
MODEL 3
REMARK VINA RESULT:      -6.7     23.993     26.056
REMARK  Name = Estradiol.pdbqt.pdb
REMARK  2 active torsions:
REMARK  status: ('A' for Active; 'I' for Inactive)
REMARK    1  A    between atoms: C_5  and  O_19
REMARK    2  A    between atoms: C_18  and  O_21
REMARK                            x       y       z     vdW  Elec       q    Type
REMARK                         _______ _______ _______ _____ _____    ______ ____
ROOT
ATOM      1  C   UNL     1     -15.077  55.147 -22.892  0.00  0.00    +0.000 C 
ATOM      2  C   UNL     1     -16.053  56.145 -23.685  0.00  0.00    +0.000 C 
ATOM      3  C   UNL     1     -16.643  55.775 -24.981  0.00  0.00    +0.000 A 
ATOM      4  C   UNL     1     -16.639  54.397 -25.607  0.00  0.00    +0.000 A 
ATOM      5  C   UNL     1     -15.586  55.259 -21.439  0.00  0.00    +0.000 C 
ATOM      6  C   UNL     1     -15.276  53.827 -23.492  0.00  0.00    +0.000 C 
ATOM      7  C   UNL     1     -16.847  56.821 -22.703  0.00  0.00    +0.000 C 
ATOM      8  C   UNL     1     -15.978  53.458 -24.776  0.00  0.00    +0.000 C 
ATOM      9  C   UNL     1     -16.588  56.259 -21.328  0.00  0.00    +0.000 C 
ATOM     10  C   UNL     1     -17.347  56.708 -25.786  0.00  0.00    +0.000 A 
ATOM     11  C   UNL     1     -13.624  55.677 -23.003  0.00  0.00    +0.000 C 
ATOM     12  C   UNL     1     -17.259  54.069 -26.935  0.00  0.00    +0.000 A 
ATOM     13  C   UNL     1     -17.980  56.371 -27.113  0.00  0.00    +0.000 A 
ATOM     14  C   UNL     1     -17.937  55.071 -27.694  0.00  0.00    +0.000 A 
ATOM     15  C   UNL     1     -17.184  52.779 -27.460  0.00  0.00    +0.000 A 
ATOM     16  C   UNL     1     -18.509  54.790 -28.928  0.00  0.00    +0.000 A 
ATOM     17  C   UNL     1     -17.757  52.490 -28.699  0.00  0.00    +0.000 A 
ATOM     18  C   UNL     1     -18.410  53.493 -29.417  0.00  0.00    +0.000 A 
ENDROOT
BRANCH   5  19
ATOM     19  O   UNL     1     -15.453  54.241 -20.519  0.00  0.00    +0.000 OA
ATOM     20  H   UNL     1     -15.735  54.520 -19.630  0.00  0.00    +0.000 HD
ENDBRANCH   5  19
BRANCH  18  21
ATOM     21  O   UNL     1     -18.969  53.219 -30.633  0.00  0.00    +0.000 OA
ATOM     22  H   UNL     1     -19.595  53.932 -30.850  0.00  0.00    +0.000 HD
ENDBRANCH  18  21
TORSDOF 2
ENDMDL
MODEL 4
REMARK VINA RESULT:      -6.4     23.047     24.928
REMARK  Name = Estradiol.pdbqt.pdb
REMARK  2 active torsions:
REMARK  status: ('A' for Active; 'I' for Inactive)
REMARK    1  A    between atoms: C_5  and  O_19
REMARK    2  A    between atoms: C_18  and  O_21
REMARK                            x       y       z     vdW  Elec       q    Type
REMARK                         _______ _______ _______ _____ _____    ______ ____
ROOT
ATOM      1  C   UNL     1     -14.911  57.042 -18.351  0.00  0.00    +0.000 C 
ATOM      2  C   UNL     1     -15.775  57.672 -19.549  0.00  0.00    +0.000 C 
ATOM      3  C   UNL     1     -15.917  56.981 -20.840  0.00  0.00    +0.000 A 
ATOM      4  C   UNL     1     -15.521  55.552 -21.141  0.00  0.00    +0.000 A 
ATOM      5  C   UNL     1     -15.813  57.279 -17.121  0.00  0.00    +0.000 C 
ATOM      6  C   UNL     1     -14.724  55.630 -18.687  0.00  0.00    +0.000 C 
ATOM      7  C   UNL     1     -16.906  58.318 -18.952  0.00  0.00    +0.000 C 
ATOM      8  C   UNL     1     -14.976  54.919 -19.995  0.00  0.00    +0.000 C 
ATOM      9  C   UNL     1     -16.952  58.053 -17.469  0.00  0.00    +0.000 C 
ATOM     10  C   UNL     1     -16.509  57.604 -21.969  0.00  0.00    +0.000 A 
ATOM     11  C   UNL     1     -13.587  57.838 -18.218  0.00  0.00    +0.000 C 
ATOM     12  C   UNL     1     -15.690  54.890 -22.478  0.00  0.00    +0.000 A 
ATOM     13  C   UNL     1     -16.689  56.932 -23.308  0.00  0.00    +0.000 A 
ATOM     14  C   UNL     1     -16.281  55.592 -23.573  0.00  0.00    +0.000 A 
ATOM     15  C   UNL     1     -15.269  53.577 -22.684  0.00  0.00    +0.000 A 
ATOM     16  C   UNL     1     -16.437  55.002 -24.819  0.00  0.00    +0.000 A 
ATOM     17  C   UNL     1     -15.423  52.977 -23.935  0.00  0.00    +0.000 A 
ATOM     18  C   UNL     1     -16.002  53.692 -24.985  0.00  0.00    +0.000 A 
ENDROOT
BRANCH   5  19
ATOM     19  O   UNL     1     -15.780  56.474 -16.003  0.00  0.00    +0.000 OA
ATOM     20  H   UNL     1     -15.673  56.996 -15.187  0.00  0.00    +0.000 HD
ENDBRANCH   5  19
BRANCH  18  21
ATOM     21  O   UNL     1     -16.153  53.114 -26.213  0.00  0.00    +0.000 OA
ATOM     22  H   UNL     1     -16.251  53.821 -26.875  0.00  0.00    +0.000 HD
ENDBRANCH  18  21
TORSDOF 2
ENDMDL
MODEL 5
REMARK VINA RESULT:      -6.4     22.389     23.547
REMARK  Name = Estradiol.pdbqt.pdb
REMARK  2 active torsions:
REMARK  status: ('A' for Active; 'I' for Inactive)
REMARK    1  A    between atoms: C_5  and  O_19
REMARK    2  A    between atoms: C_18  and  O_21
REMARK                            x       y       z     vdW  Elec       q    Type
REMARK                         _______ _______ _______ _____ _____    ______ ____
ROOT
ATOM      1  C   UNL     1     -15.422  47.242   3.006  0.00  0.00    +0.000 C 
ATOM      2  C   UNL     1     -15.912  47.433   4.523  0.00  0.00    +0.000 C 
ATOM      3  C   UNL     1     -16.385  48.734   5.020  0.00  0.00    +0.000 A 
ATOM      4  C   UNL     1     -16.711  49.950   4.180  0.00  0.00    +0.000 A 
ATOM      5  C   UNL     1     -16.085  45.909   2.600  0.00  0.00    +0.000 C 
ATOM      6  C   UNL     1     -15.924  48.404   2.270  0.00  0.00    +0.000 C 
ATOM      7  C   UNL     1     -16.598  46.231   4.893  0.00  0.00    +0.000 C 
ATOM      8  C   UNL     1     -16.504  49.692   2.802  0.00  0.00    +0.000 C 
ATOM      9  C   UNL     1     -16.735  45.307   3.710  0.00  0.00    +0.000 C 
ATOM     10  C   UNL     1     -16.638  48.971   6.396  0.00  0.00    +0.000 A 
ATOM     11  C   UNL     1     -13.877  47.110   2.993  0.00  0.00    +0.000 C 
ATOM     12  C   UNL     1     -17.194  51.258   4.737  0.00  0.00    +0.000 A 
ATOM     13  C   UNL     1     -17.136  50.282   6.950  0.00  0.00    +0.000 A 
ATOM     14  C   UNL     1     -17.408  51.423   6.140  0.00  0.00    +0.000 A 
ATOM     15  C   UNL     1     -17.442  52.345   3.899  0.00  0.00    +0.000 A 
ATOM     16  C   UNL     1     -17.846  52.626   6.676  0.00  0.00    +0.000 A 
ATOM     17  C   UNL     1     -17.882  53.557   4.431  0.00  0.00    +0.000 A 
ATOM     18  C   UNL     1     -18.078  53.686   5.807  0.00  0.00    +0.000 A 
ENDROOT
BRANCH   5  19
ATOM     19  O   UNL     1     -16.412  45.602   1.297  0.00  0.00    +0.000 OA
ATOM     20  H   UNL     1     -16.291  46.366   0.705  0.00  0.00    +0.000 HD
ENDBRANCH   5  19
BRANCH  18  21
ATOM     21  O   UNL     1     -18.504  54.871   6.335  0.00  0.00    +0.000 OA
ATOM     22  H   UNL     1     -19.448  54.785   6.561  0.00  0.00    +0.000 HD
ENDBRANCH  18  21
TORSDOF 2
ENDMDL
MODEL 6
REMARK VINA RESULT:      -6.4     22.740     24.073
REMARK  Name = Estradiol.pdbqt.pdb
REMARK  2 active torsions:
REMARK  status: ('A' for Active; 'I' for Inactive)
REMARK    1  A    between atoms: C_5  and  O_19
REMARK    2  A    between atoms: C_18  and  O_21
REMARK                            x       y       z     vdW  Elec       q    Type
REMARK                         _______ _______ _______ _____ _____    ______ ____
ROOT
ATOM      1  C   UNL     1     -15.348  45.937   5.053  0.00  0.00    +0.000 C 
ATOM      2  C   UNL     1     -15.990  46.855   6.203  0.00  0.00    +0.000 C 
ATOM      3  C   UNL     1     -16.386  48.248   5.944  0.00  0.00    +0.000 A 
ATOM      4  C   UNL     1     -16.488  48.914   4.589  0.00  0.00    +0.000 A 
ATOM      5  C   UNL     1     -16.089  44.596   5.235  0.00  0.00    +0.000 C 
ATOM      6  C   UNL     1     -15.642  46.612   3.787  0.00  0.00    +0.000 C 
ATOM      7  C   UNL     1     -16.831  46.005   6.993  0.00  0.00    +0.000 C 
ATOM      8  C   UNL     1     -16.149  48.014   3.548  0.00  0.00    +0.000 C 
ATOM      9  C   UNL     1     -16.921  44.628   6.386  0.00  0.00    +0.000 C 
ATOM     10  C   UNL     1     -16.773  49.130   6.986  0.00  0.00    +0.000 A 
ATOM     11  C   UNL     1     -13.833  45.768   5.337  0.00  0.00    +0.000 C 
ATOM     12  C   UNL     1     -16.901  50.342   4.377  0.00  0.00    +0.000 A 
ATOM     13  C   UNL     1     -17.199  50.561   6.768  0.00  0.00    +0.000 A 
ATOM     14  C   UNL     1     -17.259  51.173   5.482  0.00  0.00    +0.000 A 
ATOM     15  C   UNL     1     -16.939  50.893   3.096  0.00  0.00    +0.000 A 
ATOM     16  C   UNL     1     -17.634  52.498   5.309  0.00  0.00    +0.000 A 
ATOM     17  C   UNL     1     -17.315  52.224   2.915  0.00  0.00    +0.000 A 
ATOM     18  C   UNL     1     -17.657  53.010   4.017  0.00  0.00    +0.000 A 
ENDROOT
BRANCH   5  19
ATOM     19  O   UNL     1     -16.290  43.706   4.203  0.00  0.00    +0.000 OA
ATOM     20  H   UNL     1     -15.593  43.775   3.526  0.00  0.00    +0.000 HD
ENDBRANCH   5  19
BRANCH  18  21
ATOM     21  O   UNL     1     -18.021  54.315   3.847  0.00  0.00    +0.000 OA
ATOM     22  H   UNL     1     -17.214  54.847   3.733  0.00  0.00    +0.000 HD
ENDBRANCH  18  21
TORSDOF 2
ENDMDL
MODEL 7
REMARK VINA RESULT:      -6.3     24.190     25.405
REMARK  Name = Estradiol.pdbqt.pdb
REMARK  2 active torsions:
REMARK  status: ('A' for Active; 'I' for Inactive)
REMARK    1  A    between atoms: C_5  and  O_19
REMARK    2  A    between atoms: C_18  and  O_21
REMARK                            x       y       z     vdW  Elec       q    Type
REMARK                         _______ _______ _______ _____ _____    ______ ____
ROOT
ATOM      1  C   UNL     1     -16.287  52.066 -27.042  0.00  0.00    +0.000 C 
ATOM      2  C   UNL     1     -16.563  53.648 -27.019  0.00  0.00    +0.000 C 
ATOM      3  C   UNL     1     -16.500  54.421 -25.769  0.00  0.00    +0.000 A 
ATOM      4  C   UNL     1     -15.952  53.940 -24.443  0.00  0.00    +0.000 A 
ATOM      5  C   UNL     1     -15.383  51.898 -28.280  0.00  0.00    +0.000 C 
ATOM      6  C   UNL     1     -15.624  51.754 -25.774  0.00  0.00    +0.000 C 
ATOM      7  C   UNL     1     -16.004  54.186 -28.223  0.00  0.00    +0.000 C 
ATOM      8  C   UNL     1     -15.482  52.606 -24.536  0.00  0.00    +0.000 C 
ATOM      9  C   UNL     1     -15.252  53.124 -28.985  0.00  0.00    +0.000 C 
ATOM     10  C   UNL     1     -16.927  55.772 -25.694  0.00  0.00    +0.000 A 
ATOM     11  C   UNL     1     -17.635  51.328 -27.245  0.00  0.00    +0.000 C 
ATOM     12  C   UNL     1     -15.908  54.771 -23.193  0.00  0.00    +0.000 A 
ATOM     13  C   UNL     1     -16.869  56.609 -24.439  0.00  0.00    +0.000 A 
ATOM     14  C   UNL     1     -16.374  56.121 -23.195  0.00  0.00    +0.000 A 
ATOM     15  C   UNL     1     -15.416  54.243 -21.999  0.00  0.00    +0.000 A 
ATOM     16  C   UNL     1     -16.351  56.904 -22.048  0.00  0.00    +0.000 A 
ATOM     17  C   UNL     1     -15.390  55.024 -20.844  0.00  0.00    +0.000 A 
ATOM     18  C   UNL     1     -15.856  56.339 -20.878  0.00  0.00    +0.000 A 
ENDROOT
BRANCH   5  19
ATOM     19  O   UNL     1     -14.470  50.873 -28.406  0.00  0.00    +0.000 OA
ATOM     20  H   UNL     1     -14.000  50.911 -29.259  0.00  0.00    +0.000 HD
ENDBRANCH   5  19
BRANCH  18  21
ATOM     21  O   UNL     1     -15.837  57.108 -19.750  0.00  0.00    +0.000 OA
ATOM     22  H   UNL     1     -16.192  56.580 -19.013  0.00  0.00    +0.000 HD
ENDBRANCH  18  21
TORSDOF 2
ENDMDL
MODEL 8
REMARK VINA RESULT:      -6.0     22.076     23.963
REMARK  Name = Estradiol.pdbqt.pdb
REMARK  2 active torsions:
REMARK  status: ('A' for Active; 'I' for Inactive)
REMARK    1  A    between atoms: C_5  and  O_19
REMARK    2  A    between atoms: C_18  and  O_21
REMARK                            x       y       z     vdW  Elec       q    Type
REMARK                         _______ _______ _______ _____ _____    ______ ____
ROOT
ATOM      1  C   UNL     1     -17.009  52.053   6.763  0.00  0.00    +0.000 C 
ATOM      2  C   UNL     1     -17.229  52.080   5.173  0.00  0.00    +0.000 C 
ATOM      3  C   UNL     1     -16.936  50.906   4.336  0.00  0.00    +0.000 A 
ATOM      4  C   UNL     1     -16.650  49.503   4.828  0.00  0.00    +0.000 A 
ATOM      5  C   UNL     1     -18.286  52.738   7.294  0.00  0.00    +0.000 C 
ATOM      6  C   UNL     1     -16.896  50.641   7.131  0.00  0.00    +0.000 C 
ATOM      7  C   UNL     1     -18.406  52.859   4.929  0.00  0.00    +0.000 C 
ATOM      8  C   UNL     1     -16.698  49.436   6.243  0.00  0.00    +0.000 C 
ATOM      9  C   UNL     1     -19.076  53.238   6.225  0.00  0.00    +0.000 C 
ATOM     10  C   UNL     1     -16.939  50.968   2.919  0.00  0.00    +0.000 A 
ATOM     11  C   UNL     1     -15.753  52.895   7.108  0.00  0.00    +0.000 C 
ATOM     12  C   UNL     1     -16.359  48.335   3.931  0.00  0.00    +0.000 A 
ATOM     13  C   UNL     1     -16.659  49.789   2.020  0.00  0.00    +0.000 A 
ATOM     14  C   UNL     1     -16.363  48.484   2.510  0.00  0.00    +0.000 A 
ATOM     15  C   UNL     1     -16.072  47.078   4.463  0.00  0.00    +0.000 A 
ATOM     16  C   UNL     1     -16.088  47.419   1.663  0.00  0.00    +0.000 A 
ATOM     17  C   UNL     1     -15.794  46.004   3.618  0.00  0.00    +0.000 A 
ATOM     18  C   UNL     1     -15.804  46.183   2.233  0.00  0.00    +0.000 A 
ENDROOT
BRANCH   5  19
ATOM     19  O   UNL     1     -18.811  52.479   8.542  0.00  0.00    +0.000 OA
ATOM     20  H   UNL     1     -19.325  51.651   8.552  0.00  0.00    +0.000 HD
ENDBRANCH   5  19
BRANCH  18  21
ATOM     21  O   UNL     1     -15.528  45.137   1.400  0.00  0.00    +0.000 OA
ATOM     22  H   UNL     1     -16.074  45.230   0.599  0.00  0.00    +0.000 HD
ENDBRANCH  18  21
TORSDOF 2
ENDMDL
MODEL 9
REMARK VINA RESULT:      -5.9      6.360      8.772
REMARK  Name = Estradiol.pdbqt.pdb
REMARK  2 active torsions:
REMARK  status: ('A' for Active; 'I' for Inactive)
REMARK    1  A    between atoms: C_5  and  O_19
REMARK    2  A    between atoms: C_18  and  O_21
REMARK                            x       y       z     vdW  Elec       q    Type
REMARK                         _______ _______ _______ _____ _____    ______ ____
ROOT
ATOM      1  C   UNL     1     -31.250  43.859 -16.237  0.00  0.00    +0.000 C 
ATOM      2  C   UNL     1     -32.307  44.562 -15.253  0.00  0.00    +0.000 C 
ATOM      3  C   UNL     1     -33.068  45.752 -15.665  0.00  0.00    +0.000 A 
ATOM      4  C   UNL     1     -33.166  46.312 -17.068  0.00  0.00    +0.000 A 
ATOM      5  C   UNL     1     -31.562  42.359 -16.055  0.00  0.00    +0.000 C 
ATOM      6  C   UNL     1     -31.545  44.370 -17.576  0.00  0.00    +0.000 C 
ATOM      7  C   UNL     1     -32.955  43.514 -14.521  0.00  0.00    +0.000 C 
ATOM      8  C   UNL     1     -32.415  45.534 -17.984  0.00  0.00    +0.000 C 
ATOM      9  C   UNL     1     -32.526  42.162 -15.030  0.00  0.00    +0.000 C 
ATOM     10  C   UNL     1     -33.858  46.497 -14.753  0.00  0.00    +0.000 A 
ATOM     11  C   UNL     1     -29.817  44.184 -15.741  0.00  0.00    +0.000 C 
ATOM     12  C   UNL     1     -33.960  47.531 -17.438  0.00  0.00    +0.000 A 
ATOM     13  C   UNL     1     -34.665  47.715 -15.131  0.00  0.00    +0.000 A 
ATOM     14  C   UNL     1     -34.717  48.239 -16.456  0.00  0.00    +0.000 A 
ATOM     15  C   UNL     1     -33.973  48.005 -18.750  0.00  0.00    +0.000 A 
ATOM     16  C   UNL     1     -35.450  49.373 -16.776  0.00  0.00    +0.000 A 
ATOM     17  C   UNL     1     -34.708  49.144 -19.079  0.00  0.00    +0.000 A 
ATOM     18  C   UNL     1     -35.435  49.815 -18.094  0.00  0.00    +0.000 A 
ENDROOT
BRANCH   5  19
ATOM     19  O   UNL     1     -31.324  41.421 -17.036  0.00  0.00    +0.000 OA
ATOM     20  H   UNL     1     -30.507  41.615 -17.529  0.00  0.00    +0.000 HD
ENDBRANCH   5  19
BRANCH  18  21
ATOM     21  O   UNL     1     -36.153  50.934 -18.407  0.00  0.00    +0.000 OA
ATOM     22  H   UNL     1     -35.791  51.682 -17.901  0.00  0.00    +0.000 HD
ENDBRANCH  18  21
TORSDOF 2
ENDMDL
