MODEL 1
REMARK VINA RESULT:      -7.8      0.000      0.000
REMARK  Name = 
REMARK  11 active torsions:
REMARK  status: ('A' for Active; 'I' for Inactive)
REMARK    1  A    between atoms: O_1  and  C_16
REMARK    2  A    between atoms: O_1  and  C_22
REMARK    3  A    between atoms: O_6  and  C_24
REMARK    4  A    between atoms: O_8  and  C_26
REMARK    5  A    between atoms: O_11  and  C_36
REMARK    6  A    between atoms: O_11  and  C_41
REMARK    7  A    between atoms: O_12  and  C_37
REMARK    8  A    between atoms: O_12  and  C_42
REMARK    9  A    between atoms: O_13  and  C_39
REMARK   10  A    between atoms: C_17  and  C_23
REMARK   11  A    between atoms: C_35  and  C_40
REMARK                            x       y       z     vdW  Elec       q    Type
REMARK                         _______ _______ _______ _____ _____    ______ ____
ROOT
ATOM      1  O   UNL     1     -35.773  43.853 -13.144  0.00  0.00    +0.000 OA
ATOM      2  O   UNL     1     -37.730  44.251 -14.270  0.00  0.00    +0.000 OA
ATOM      3  O   UNL     1     -38.270  49.421  -7.355  0.00  0.00    +0.000 OA
ATOM      4  O   UNL     1     -39.909  49.914  -9.055  0.00  0.00    +0.000 OA
ATOM      5  C   UNL     1     -35.945  45.478 -11.502  0.00  0.00    +0.000 C 
ATOM      6  C   UNL     1     -37.325  45.251 -12.091  0.00  0.00    +0.000 C 
ATOM      7  C   UNL     1     -36.054  45.896 -10.041  0.00  0.00    +0.000 C 
ATOM      8  C   UNL     1     -38.077  46.574 -12.239  0.00  0.00    +0.000 C 
ATOM      9  C   UNL     1     -37.108  46.987  -9.865  0.00  0.00    +0.000 A 
ATOM     10  C   UNL     1     -38.082  47.283 -10.874  0.00  0.00    +0.000 A 
ATOM     11  C   UNL     1     -35.279  44.166 -11.831  0.00  0.00    +0.000 C 
ATOM     12  C   UNL     1     -37.000  44.445 -13.312  0.00  0.00    +0.000 C 
ATOM     13  C   UNL     1     -37.138  47.696  -8.648  0.00  0.00    +0.000 A 
ATOM     14  C   UNL     1     -39.057  48.274 -10.642  0.00  0.00    +0.000 A 
ATOM     15  C   UNL     1     -38.111  48.656  -8.467  0.00  0.00    +0.000 A 
ATOM     16  C   UNL     1     -39.043  48.936  -9.434  0.00  0.00    +0.000 A 
ATOM     17  C   UNL     1     -39.411  50.218  -7.735  0.00  0.00    +0.000 C 
ENDROOT
BRANCH   8  18
ATOM     18  C   UNL     1     -37.587  47.469 -13.380  0.00  0.00    +0.000 A 
ATOM     19  C   UNL     1     -38.430  48.364 -14.063  0.00  0.00    +0.000 A 
ATOM     20  C   UNL     1     -36.237  47.414 -13.763  0.00  0.00    +0.000 A 
ATOM     21  C   UNL     1     -35.745  48.241 -14.774  0.00  0.00    +0.000 A 
ATOM     22  C   UNL     1     -37.964  49.189 -15.096  0.00  0.00    +0.000 A 
ATOM     23  C   UNL     1     -36.614  49.119 -15.443  0.00  0.00    +0.000 A 
BRANCH  21  24
ATOM     24  O   UNL     1     -34.439  48.281 -15.206  0.00  0.00    +0.000 OA
ATOM     25  C   UNL     1     -33.815  47.023 -15.447  0.00  0.00    +0.000 C 
ENDBRANCH  21  24
BRANCH  22  26
ATOM     26  O   UNL     1     -38.943  49.985 -15.626  0.00  0.00    +0.000 OA
ATOM     27  C   UNL     1     -39.126  51.279 -15.070  0.00  0.00    +0.000 C 
ENDBRANCH  22  26
BRANCH  23  28
ATOM     28  O   UNL     1     -36.075  49.903 -16.432  0.00  0.00    +0.000 OA
ATOM     29  H   UNL     1     -36.502  50.775 -16.323  0.00  0.00    +0.000 HD
ENDBRANCH  23  28
ENDBRANCH   8  18
BRANCH   7  30
ATOM     30  O   UNL     1     -36.485  44.781  -9.259  0.00  0.00    +0.000 OA
BRANCH  30  34
ATOM     31  O   UNL     1     -34.617  44.730  -7.854  0.00  0.00    +0.000 OA
ATOM     32  O   UNL     1     -34.138  43.517  -4.415  0.00  0.00    +0.000 OA
ATOM     33  O   UNL     1     -32.181  44.651  -5.101  0.00  0.00    +0.000 OA
ATOM     34  C   UNL     1     -36.040  44.845  -7.898  0.00  0.00    +0.000 C 
ATOM     35  C   UNL     1     -36.742  43.692  -7.143  0.00  0.00    +0.000 C 
ATOM     36  C   UNL     1     -34.652  43.519  -5.751  0.00  0.00    +0.000 C 
ATOM     37  C   UNL     1     -36.181  43.539  -5.722  0.00  0.00    +0.000 C 
ATOM     38  C   UNL     1     -34.144  44.742  -6.510  0.00  0.00    +0.000 C 
ATOM     39  C   UNL     1     -32.620  44.714  -6.457  0.00  0.00    +0.000 C 
ATOM     40  C   UNL     1     -32.707  43.504  -4.435  0.00  0.00    +0.000 C 
ATOM     41  C   UNL     1     -32.221  43.531  -2.997  0.00  0.00    +0.000 C 
BRANCH  35  42
ATOM     42  O   UNL     1     -38.154  43.957  -7.088  0.00  0.00    +0.000 OA
ATOM     43  H   UNL     1     -38.592  43.154  -7.430  0.00  0.00    +0.000 HD
ENDBRANCH  35  42
BRANCH  37  44
ATOM     44  O   UNL     1     -36.640  42.309  -5.138  0.00  0.00    +0.000 OA
ATOM     45  H   UNL     1     -36.027  41.617  -5.453  0.00  0.00    +0.000 HD
ENDBRANCH  37  44
ENDBRANCH  30  34
ENDBRANCH   7  30
TORSDOF 8
ENDMDL
MODEL 2
REMARK VINA RESULT:      -7.8      5.101     10.760
REMARK  Name = 
REMARK  11 active torsions:
REMARK  status: ('A' for Active; 'I' for Inactive)
REMARK    1  A    between atoms: O_1  and  C_16
REMARK    2  A    between atoms: O_1  and  C_22
REMARK    3  A    between atoms: O_6  and  C_24
REMARK    4  A    between atoms: O_8  and  C_26
REMARK    5  A    between atoms: O_11  and  C_36
REMARK    6  A    between atoms: O_11  and  C_41
REMARK    7  A    between atoms: O_12  and  C_37
REMARK    8  A    between atoms: O_12  and  C_42
REMARK    9  A    between atoms: O_13  and  C_39
REMARK   10  A    between atoms: C_17  and  C_23
REMARK   11  A    between atoms: C_35  and  C_40
REMARK                            x       y       z     vdW  Elec       q    Type
REMARK                         _______ _______ _______ _____ _____    ______ ____
ROOT
ATOM      1  O   UNL     1     -32.650  43.175 -14.149  0.00  0.00    +0.000 OA
ATOM      2  O   UNL     1     -32.812  44.837 -12.578  0.00  0.00    +0.000 OA
ATOM      3  O   UNL     1     -34.543  48.894 -20.019  0.00  0.00    +0.000 OA
ATOM      4  O   UNL     1     -35.104  50.190 -18.064  0.00  0.00    +0.000 OA
ATOM      5  C   UNL     1     -33.394  44.340 -16.008  0.00  0.00    +0.000 C 
ATOM      6  C   UNL     1     -32.989  45.347 -14.949  0.00  0.00    +0.000 C 
ATOM      7  C   UNL     1     -33.173  44.916 -17.401  0.00  0.00    +0.000 C 
ATOM      8  C   UNL     1     -33.964  46.524 -14.916  0.00  0.00    +0.000 C 
ATOM      9  C   UNL     1     -33.730  46.336 -17.496  0.00  0.00    +0.000 A 
ATOM     10  C   UNL     1     -34.065  47.108 -16.335  0.00  0.00    +0.000 A 
ATOM     11  C   UNL     1     -32.581  43.143 -15.585  0.00  0.00    +0.000 C 
ATOM     12  C   UNL     1     -32.847  44.471 -13.741  0.00  0.00    +0.000 C 
ATOM     13  C   UNL     1     -33.879  46.910 -18.773  0.00  0.00    +0.000 A 
ATOM     14  C   UNL     1     -34.538  48.428 -16.481  0.00  0.00    +0.000 A 
ATOM     15  C   UNL     1     -34.345  48.204 -18.864  0.00  0.00    +0.000 A 
ATOM     16  C   UNL     1     -34.664  48.941 -17.752  0.00  0.00    +0.000 A 
ATOM     17  C   UNL     1     -35.026  50.153 -19.504  0.00  0.00    +0.000 C 
ENDROOT
BRANCH   8  18
ATOM     18  C   UNL     1     -35.328  46.214 -14.294  0.00  0.00    +0.000 A 
ATOM     19  C   UNL     1     -36.294  45.416 -14.933  0.00  0.00    +0.000 A 
ATOM     20  C   UNL     1     -35.636  46.732 -13.025  0.00  0.00    +0.000 A 
ATOM     21  C   UNL     1     -36.854  46.442 -12.410  0.00  0.00    +0.000 A 
ATOM     22  C   UNL     1     -37.533  45.128 -14.344  0.00  0.00    +0.000 A 
ATOM     23  C   UNL     1     -37.802  45.648 -13.077  0.00  0.00    +0.000 A 
BRANCH  21  24
ATOM     24  O   UNL     1     -37.242  46.879 -11.164  0.00  0.00    +0.000 OA
ATOM     25  C   UNL     1     -36.487  46.389 -10.059  0.00  0.00    +0.000 C 
ENDBRANCH  21  24
BRANCH  22  26
ATOM     26  O   UNL     1     -38.325  44.336 -15.129  0.00  0.00    +0.000 OA
ATOM     27  C   UNL     1     -38.823  44.883 -16.342  0.00  0.00    +0.000 C 
ENDBRANCH  22  26
BRANCH  23  28
ATOM     28  O   UNL     1     -38.984  45.401 -12.425  0.00  0.00    +0.000 OA
ATOM     29  H   UNL     1     -39.679  45.573 -13.090  0.00  0.00    +0.000 HD
ENDBRANCH  23  28
ENDBRANCH   8  18
BRANCH   7  30
ATOM     30  O   UNL     1     -31.772  45.009 -17.660  0.00  0.00    +0.000 OA
BRANCH  30  34
ATOM     31  O   UNL     1     -32.373  43.716 -19.513  0.00  0.00    +0.000 OA
ATOM     32  O   UNL     1     -30.387  42.114 -22.162  0.00  0.00    +0.000 OA
ATOM     33  O   UNL     1     -32.679  41.927 -22.710  0.00  0.00    +0.000 OA
ATOM     34  C   UNL     1     -31.425  44.658 -19.005  0.00  0.00    +0.000 C 
ATOM     35  C   UNL     1     -29.992  44.078 -18.961  0.00  0.00    +0.000 C 
ATOM     36  C   UNL     1     -30.702  42.557 -20.837  0.00  0.00    +0.000 C 
ATOM     37  C   UNL     1     -29.597  43.477 -20.318  0.00  0.00    +0.000 C 
ATOM     38  C   UNL     1     -32.030  43.308 -20.834  0.00  0.00    +0.000 C 
ATOM     39  C   UNL     1     -33.086  42.376 -21.419  0.00  0.00    +0.000 C 
ATOM     40  C   UNL     1     -31.420  41.256 -22.656  0.00  0.00    +0.000 C 
ATOM     41  C   UNL     1     -31.047  40.842 -24.068  0.00  0.00    +0.000 C 
BRANCH  35  42
ATOM     42  O   UNL     1     -29.073  45.121 -18.599  0.00  0.00    +0.000 OA
ATOM     43  H   UNL     1     -29.592  45.774 -18.090  0.00  0.00    +0.000 HD
ENDBRANCH  35  42
BRANCH  37  44
ATOM     44  O   UNL     1     -28.390  42.708 -20.187  0.00  0.00    +0.000 OA
ATOM     45  H   UNL     1     -28.392  42.360 -19.275  0.00  0.00    +0.000 HD
ENDBRANCH  37  44
ENDBRANCH  30  34
ENDBRANCH   7  30
TORSDOF 8
ENDMDL
MODEL 3
REMARK VINA RESULT:      -7.6      5.365     11.795
REMARK  Name = 
REMARK  11 active torsions:
REMARK  status: ('A' for Active; 'I' for Inactive)
REMARK    1  A    between atoms: O_1  and  C_16
REMARK    2  A    between atoms: O_1  and  C_22
REMARK    3  A    between atoms: O_6  and  C_24
REMARK    4  A    between atoms: O_8  and  C_26
REMARK    5  A    between atoms: O_11  and  C_36
REMARK    6  A    between atoms: O_11  and  C_41
REMARK    7  A    between atoms: O_12  and  C_37
REMARK    8  A    between atoms: O_12  and  C_42
REMARK    9  A    between atoms: O_13  and  C_39
REMARK   10  A    between atoms: C_17  and  C_23
REMARK   11  A    between atoms: C_35  and  C_40
REMARK                            x       y       z     vdW  Elec       q    Type
REMARK                         _______ _______ _______ _____ _____    ______ ____
ROOT
ATOM      1  O   UNL     1     -30.581  44.243 -19.908  0.00  0.00    +0.000 OA
ATOM      2  O   UNL     1     -28.837  43.791 -18.490  0.00  0.00    +0.000 OA
ATOM      3  O   UNL     1     -35.312  45.881 -13.148  0.00  0.00    +0.000 OA
ATOM      4  O   UNL     1     -33.438  44.852 -12.032  0.00  0.00    +0.000 OA
ATOM      5  C   UNL     1     -32.273  44.512 -18.348  0.00  0.00    +0.000 C 
ATOM      6  C   UNL     1     -30.943  44.651 -17.632  0.00  0.00    +0.000 C 
ATOM      7  C   UNL     1     -33.336  45.362 -17.663  0.00  0.00    +0.000 C 
ATOM      8  C   UNL     1     -30.991  43.976 -16.262  0.00  0.00    +0.000 C 
ATOM      9  C   UNL     1     -33.301  45.158 -16.149  0.00  0.00    +0.000 A 
ATOM     10  C   UNL     1     -32.189  44.546 -15.484  0.00  0.00    +0.000 A 
ATOM     11  C   UNL     1     -31.871  44.860 -19.760  0.00  0.00    +0.000 C 
ATOM     12  C   UNL     1     -29.990  44.146 -18.673  0.00  0.00    +0.000 C 
ATOM     13  C   UNL     1     -34.388  45.628 -15.387  0.00  0.00    +0.000 A 
ATOM     14  C   UNL     1     -32.192  44.419 -14.079  0.00  0.00    +0.000 A 
ATOM     15  C   UNL     1     -34.345  45.482 -14.017  0.00  0.00    +0.000 A 
ATOM     16  C   UNL     1     -33.279  44.897 -13.382  0.00  0.00    +0.000 A 
ATOM     17  C   UNL     1     -34.731  45.477 -11.891  0.00  0.00    +0.000 C 
ENDROOT
BRANCH   8  18
ATOM     18  C   UNL     1     -30.969  42.446 -16.296  0.00  0.00    +0.000 A 
ATOM     19  C   UNL     1     -29.813  41.693 -16.022  0.00  0.00    +0.000 A 
ATOM     20  C   UNL     1     -32.151  41.750 -16.600  0.00  0.00    +0.000 A 
ATOM     21  C   UNL     1     -32.180  40.355 -16.605  0.00  0.00    +0.000 A 
ATOM     22  C   UNL     1     -29.812  40.291 -16.042  0.00  0.00    +0.000 A 
ATOM     23  C   UNL     1     -31.006  39.631 -16.334  0.00  0.00    +0.000 A 
BRANCH  21  24
ATOM     24  O   UNL     1     -33.287  39.581 -16.867  0.00  0.00    +0.000 OA
ATOM     25  C   UNL     1     -34.368  39.695 -15.945  0.00  0.00    +0.000 C 
ENDBRANCH  21  24
BRANCH  22  26
ATOM     26  O   UNL     1     -28.588  39.754 -15.746  0.00  0.00    +0.000 OA
ATOM     27  C   UNL     1     -27.766  39.333 -16.824  0.00  0.00    +0.000 C 
ENDBRANCH  22  26
BRANCH  23  28
ATOM     28  O   UNL     1     -31.094  38.262 -16.360  0.00  0.00    +0.000 OA
ATOM     29  H   UNL     1     -30.548  37.961 -15.607  0.00  0.00    +0.000 HD
ENDBRANCH  23  28
ENDBRANCH   8  18
BRANCH   7  30
ATOM     30  O   UNL     1     -33.063  46.744 -17.896  0.00  0.00    +0.000 OA
BRANCH  30  34
ATOM     31  O   UNL     1     -33.852  47.609 -19.920  0.00  0.00    +0.000 OA
ATOM     32  O   UNL     1     -36.010  50.480 -20.712  0.00  0.00    +0.000 OA
ATOM     33  O   UNL     1     -35.645  49.235 -22.687  0.00  0.00    +0.000 OA
ATOM     34  C   UNL     1     -34.148  47.431 -18.533  0.00  0.00    +0.000 C 
ATOM     35  C   UNL     1     -34.321  48.778 -17.795  0.00  0.00    +0.000 C 
ATOM     36  C   UNL     1     -34.993  49.749 -20.018  0.00  0.00    +0.000 C 
ATOM     37  C   UNL     1     -35.321  49.686 -18.526  0.00  0.00    +0.000 C 
ATOM     38  C   UNL     1     -34.891  48.331 -20.575  0.00  0.00    +0.000 C 
ATOM     39  C   UNL     1     -34.628  48.444 -22.073  0.00  0.00    +0.000 C 
ATOM     40  C   UNL     1     -35.712  50.539 -22.110  0.00  0.00    +0.000 C 
ATOM     41  C   UNL     1     -36.834  51.299 -22.795  0.00  0.00    +0.000 C 
BRANCH  35  42
ATOM     42  O   UNL     1     -34.774  48.527 -16.455  0.00  0.00    +0.000 OA
ATOM     43  H   UNL     1     -35.582  49.063 -16.339  0.00  0.00    +0.000 HD
ENDBRANCH  35  42
BRANCH  37  44
ATOM     44  O   UNL     1     -35.264  51.018 -17.992  0.00  0.00    +0.000 OA
ATOM     45  H   UNL     1     -34.961  51.588 -18.724  0.00  0.00    +0.000 HD
ENDBRANCH  37  44
ENDBRANCH  30  34
ENDBRANCH   7  30
TORSDOF 8
ENDMDL
MODEL 4
REMARK VINA RESULT:      -7.5      2.445      7.877
REMARK  Name = 
REMARK  11 active torsions:
REMARK  status: ('A' for Active; 'I' for Inactive)
REMARK    1  A    between atoms: O_1  and  C_16
REMARK    2  A    between atoms: O_1  and  C_22
REMARK    3  A    between atoms: O_6  and  C_24
REMARK    4  A    between atoms: O_8  and  C_26
REMARK    5  A    between atoms: O_11  and  C_36
REMARK    6  A    between atoms: O_11  and  C_41
REMARK    7  A    between atoms: O_12  and  C_37
REMARK    8  A    between atoms: O_12  and  C_42
REMARK    9  A    between atoms: O_13  and  C_39
REMARK   10  A    between atoms: C_17  and  C_23
REMARK   11  A    between atoms: C_35  and  C_40
REMARK                            x       y       z     vdW  Elec       q    Type
REMARK                         _______ _______ _______ _____ _____    ______ ____
ROOT
ATOM      1  O   UNL     1     -39.634  46.926 -10.982  0.00  0.00    +0.000 OA
ATOM      2  O   UNL     1     -40.824  46.037  -9.235  0.00  0.00    +0.000 OA
ATOM      3  O   UNL     1     -32.601  45.414  -6.623  0.00  0.00    +0.000 OA
ATOM      4  O   UNL     1     -34.202  45.046  -4.857  0.00  0.00    +0.000 OA
ATOM      5  C   UNL     1     -37.521  46.937 -10.031  0.00  0.00    +0.000 C 
ATOM      6  C   UNL     1     -38.393  45.983  -9.237  0.00  0.00    +0.000 C 
ATOM      7  C   UNL     1     -36.068  46.481  -9.999  0.00  0.00    +0.000 C 
ATOM      8  C   UNL     1     -38.104  46.100  -7.741  0.00  0.00    +0.000 C 
ATOM      9  C   UNL     1     -35.644  46.122  -8.575  0.00  0.00    +0.000 A 
ATOM     10  C   UNL     1     -36.593  45.904  -7.524  0.00  0.00    +0.000 A 
ATOM     11  C   UNL     1     -38.246  46.946 -11.354  0.00  0.00    +0.000 C 
ATOM     12  C   UNL     1     -39.758  46.323  -9.755  0.00  0.00    +0.000 C 
ATOM     13  C   UNL     1     -34.270  45.964  -8.308  0.00  0.00    +0.000 A 
ATOM     14  C   UNL     1     -36.147  45.535  -6.238  0.00  0.00    +0.000 A 
ATOM     15  C   UNL     1     -33.882  45.603  -7.036  0.00  0.00    +0.000 A 
ATOM     16  C   UNL     1     -34.793  45.394  -6.031  0.00  0.00    +0.000 A 
ATOM     17  C   UNL     1     -32.811  45.062  -5.239  0.00  0.00    +0.000 C 
ENDROOT
BRANCH   8  18
ATOM     18  C   UNL     1     -38.647  47.367  -7.076  0.00  0.00    +0.000 A 
ATOM     19  C   UNL     1     -38.566  48.637  -7.674  0.00  0.00    +0.000 A 
ATOM     20  C   UNL     1     -39.268  47.268  -5.819  0.00  0.00    +0.000 A 
ATOM     21  C   UNL     1     -39.808  48.395  -5.198  0.00  0.00    +0.000 A 
ATOM     22  C   UNL     1     -39.083  49.786  -7.059  0.00  0.00    +0.000 A 
ATOM     23  C   UNL     1     -39.704  49.651  -5.817  0.00  0.00    +0.000 A 
BRANCH  21  24
ATOM     24  O   UNL     1     -40.453  48.402  -3.983  0.00  0.00    +0.000 OA
ATOM     25  C   UNL     1     -40.456  47.173  -3.261  0.00  0.00    +0.000 C 
ENDBRANCH  21  24
BRANCH  22  26
ATOM     26  O   UNL     1     -38.903  50.918  -7.808  0.00  0.00    +0.000 OA
ATOM     27  C   UNL     1     -39.945  51.306  -8.691  0.00  0.00    +0.000 C 
ENDBRANCH  22  26
BRANCH  23  28
ATOM     28  O   UNL     1     -40.249  50.724  -5.155  0.00  0.00    +0.000 OA
ATOM     29  H   UNL     1     -40.158  50.507  -4.207  0.00  0.00    +0.000 HD
ENDBRANCH  23  28
ENDBRANCH   8  18
BRANCH   7  30
ATOM     30  O   UNL     1     -35.925  45.293 -10.779  0.00  0.00    +0.000 OA
BRANCH  30  34
ATOM     31  O   UNL     1     -35.300  46.048 -12.902  0.00  0.00    +0.000 OA
ATOM     32  O   UNL     1     -32.906  44.762 -15.381  0.00  0.00    +0.000 OA
ATOM     33  O   UNL     1     -33.685  46.874 -16.100  0.00  0.00    +0.000 OA
ATOM     34  C   UNL     1     -34.852  45.370 -11.726  0.00  0.00    +0.000 C 
ATOM     35  C   UNL     1     -34.410  43.919 -12.022  0.00  0.00    +0.000 C 
ATOM     36  C   UNL     1     -33.911  44.696 -14.363  0.00  0.00    +0.000 C 
ATOM     37  C   UNL     1     -33.403  43.871 -13.180  0.00  0.00    +0.000 C 
ATOM     38  C   UNL     1     -34.270  46.100 -13.886  0.00  0.00    +0.000 C 
ATOM     39  C   UNL     1     -34.708  46.903 -15.106  0.00  0.00    +0.000 C 
ATOM     40  C   UNL     1     -33.373  45.536 -16.489  0.00  0.00    +0.000 C 
ATOM     41  C   UNL     1     -32.260  45.594 -17.520  0.00  0.00    +0.000 C 
BRANCH  35  42
ATOM     42  O   UNL     1     -33.823  43.355 -10.837  0.00  0.00    +0.000 OA
ATOM     43  H   UNL     1     -33.597  44.112 -10.262  0.00  0.00    +0.000 HD
ENDBRANCH  35  42
BRANCH  37  44
ATOM     44  O   UNL     1     -33.215  42.516 -13.618  0.00  0.00    +0.000 OA
ATOM     45  H   UNL     1     -32.282  42.452 -13.898  0.00  0.00    +0.000 HD
ENDBRANCH  37  44
ENDBRANCH  30  34
ENDBRANCH   7  30
TORSDOF 8
ENDMDL
MODEL 5
REMARK VINA RESULT:      -7.4      1.025      2.732
REMARK  Name = 
REMARK  11 active torsions:
REMARK  status: ('A' for Active; 'I' for Inactive)
REMARK    1  A    between atoms: O_1  and  C_16
REMARK    2  A    between atoms: O_1  and  C_22
REMARK    3  A    between atoms: O_6  and  C_24
REMARK    4  A    between atoms: O_8  and  C_26
REMARK    5  A    between atoms: O_11  and  C_36
REMARK    6  A    between atoms: O_11  and  C_41
REMARK    7  A    between atoms: O_12  and  C_37
REMARK    8  A    between atoms: O_12  and  C_42
REMARK    9  A    between atoms: O_13  and  C_39
REMARK   10  A    between atoms: C_17  and  C_23
REMARK   11  A    between atoms: C_35  and  C_40
REMARK                            x       y       z     vdW  Elec       q    Type
REMARK                         _______ _______ _______ _____ _____    ______ ____
ROOT
ATOM      1  O   UNL     1     -35.244  43.671 -13.684  0.00  0.00    +0.000 OA
ATOM      2  O   UNL     1     -37.265  43.994 -14.719  0.00  0.00    +0.000 OA
ATOM      3  O   UNL     1     -37.831  48.851  -7.583  0.00  0.00    +0.000 OA
ATOM      4  O   UNL     1     -39.561  49.310  -9.199  0.00  0.00    +0.000 OA
ATOM      5  C   UNL     1     -35.446  45.218 -11.972  0.00  0.00    +0.000 C 
ATOM      6  C   UNL     1     -36.832  44.932 -12.517  0.00  0.00    +0.000 C 
ATOM      7  C   UNL     1     -35.521  45.571 -10.492  0.00  0.00    +0.000 C 
ATOM      8  C   UNL     1     -37.665  46.212 -12.584  0.00  0.00    +0.000 C 
ATOM      9  C   UNL     1     -36.629  46.590 -10.232  0.00  0.00    +0.000 A 
ATOM     10  C   UNL     1     -37.658  46.866 -11.191  0.00  0.00    +0.000 A 
ATOM     11  C   UNL     1     -34.718  43.962 -12.379  0.00  0.00    +0.000 C 
ATOM     12  C   UNL     1     -36.510  44.194 -13.782  0.00  0.00    +0.000 C 
ATOM     13  C   UNL     1     -36.652  47.248  -8.987  0.00  0.00    +0.000 A 
ATOM     14  C   UNL     1     -38.679  47.787 -10.882  0.00  0.00    +0.000 A 
ATOM     15  C   UNL     1     -37.671  48.140  -8.731  0.00  0.00    +0.000 A 
ATOM     16  C   UNL     1     -38.656  48.401  -9.650  0.00  0.00    +0.000 A 
ATOM     17  C   UNL     1     -39.031  49.593  -7.887  0.00  0.00    +0.000 C 
ENDROOT
BRANCH   8  18
ATOM     18  C   UNL     1     -37.274  47.178 -13.704  0.00  0.00    +0.000 A 
ATOM     19  C   UNL     1     -35.943  47.378 -14.109  0.00  0.00    +0.000 A 
ATOM     20  C   UNL     1     -38.281  47.894 -14.374  0.00  0.00    +0.000 A 
ATOM     21  C   UNL     1     -37.968  48.757 -15.424  0.00  0.00    +0.000 A 
ATOM     22  C   UNL     1     -35.602  48.256 -15.148  0.00  0.00    +0.000 A 
ATOM     23  C   UNL     1     -36.627  48.941 -15.801  0.00  0.00    +0.000 A 
BRANCH  21  24
ATOM     24  O   UNL     1     -38.878  49.484 -16.157  0.00  0.00    +0.000 OA
ATOM     25  C   UNL     1     -39.501  50.576 -15.486  0.00  0.00    +0.000 C 
ENDBRANCH  21  24
BRANCH  22  26
ATOM     26  O   UNL     1     -34.255  48.303 -15.386  0.00  0.00    +0.000 OA
ATOM     27  C   UNL     1     -33.567  47.075 -15.574  0.00  0.00    +0.000 C 
ENDBRANCH  22  26
BRANCH  23  28
ATOM     28  O   UNL     1     -36.380  49.807 -16.837  0.00  0.00    +0.000 OA
ATOM     29  H   UNL     1     -35.933  50.572 -16.425  0.00  0.00    +0.000 HD
ENDBRANCH  23  28
ENDBRANCH   8  18
BRANCH   7  30
ATOM     30  O   UNL     1     -35.855  44.404  -9.741  0.00  0.00    +0.000 OA
BRANCH  30  34
ATOM     31  O   UNL     1     -35.421  43.722  -7.547  0.00  0.00    +0.000 OA
ATOM     32  O   UNL     1     -32.540  44.236  -5.319  0.00  0.00    +0.000 OA
ATOM     33  O   UNL     1     -34.028  42.710  -4.298  0.00  0.00    +0.000 OA
ATOM     34  C   UNL     1     -34.831  44.020  -8.814  0.00  0.00    +0.000 C 
ATOM     35  C   UNL     1     -33.836  45.200  -8.731  0.00  0.00    +0.000 C 
ATOM     36  C   UNL     1     -33.511  44.574  -6.315  0.00  0.00    +0.000 C 
ATOM     37  C   UNL     1     -32.809  44.981  -7.611  0.00  0.00    +0.000 C 
ATOM     38  C   UNL     1     -34.424  43.382  -6.587  0.00  0.00    +0.000 C 
ATOM     39  C   UNL     1     -35.051  42.971  -5.258  0.00  0.00    +0.000 C 
ATOM     40  C   UNL     1     -33.190  43.849  -4.104  0.00  0.00    +0.000 C 
ATOM     41  C   UNL     1     -32.116  43.477  -3.098  0.00  0.00    +0.000 C 
BRANCH  35  42
ATOM     42  O   UNL     1     -33.164  45.338  -9.994  0.00  0.00    +0.000 OA
ATOM     43  H   UNL     1     -32.235  45.555  -9.783  0.00  0.00    +0.000 HD
ENDBRANCH  35  42
BRANCH  37  44
ATOM     44  O   UNL     1     -32.074  46.192  -7.369  0.00  0.00    +0.000 OA
ATOM     45  H   UNL     1     -31.232  45.916  -6.958  0.00  0.00    +0.000 HD
ENDBRANCH  37  44
ENDBRANCH  30  34
ENDBRANCH   7  30
TORSDOF 8
ENDMDL
MODEL 6
REMARK VINA RESULT:      -7.1      2.216      8.555
REMARK  Name = 
REMARK  11 active torsions:
REMARK  status: ('A' for Active; 'I' for Inactive)
REMARK    1  A    between atoms: O_1  and  C_16
REMARK    2  A    between atoms: O_1  and  C_22
REMARK    3  A    between atoms: O_6  and  C_24
REMARK    4  A    between atoms: O_8  and  C_26
REMARK    5  A    between atoms: O_11  and  C_36
REMARK    6  A    between atoms: O_11  and  C_41
REMARK    7  A    between atoms: O_12  and  C_37
REMARK    8  A    between atoms: O_12  and  C_42
REMARK    9  A    between atoms: O_13  and  C_39
REMARK   10  A    between atoms: C_17  and  C_23
REMARK   11  A    between atoms: C_35  and  C_40
REMARK                            x       y       z     vdW  Elec       q    Type
REMARK                         _______ _______ _______ _____ _____    ______ ____
ROOT
ATOM      1  O   UNL     1     -32.474  43.592  -9.430  0.00  0.00    +0.000 OA
ATOM      2  O   UNL     1     -32.352  44.687  -7.419  0.00  0.00    +0.000 OA
ATOM      3  O   UNL     1     -39.202  48.287 -11.284  0.00  0.00    +0.000 OA
ATOM      4  O   UNL     1     -39.036  48.812  -8.936  0.00  0.00    +0.000 OA
ATOM      5  C   UNL     1     -34.476  44.459 -10.209  0.00  0.00    +0.000 C 
ATOM      6  C   UNL     1     -33.964  45.367  -9.107  0.00  0.00    +0.000 C 
ATOM      7  C   UNL     1     -35.280  45.259 -11.226  0.00  0.00    +0.000 C 
ATOM      8  C   UNL     1     -35.113  45.853  -8.225  0.00  0.00    +0.000 C 
ATOM      9  C   UNL     1     -36.274  46.184 -10.526  0.00  0.00    +0.000 A 
ATOM     10  C   UNL     1     -36.178  46.497  -9.130  0.00  0.00    +0.000 A 
ATOM     11  C   UNL     1     -33.192  43.806 -10.656  0.00  0.00    +0.000 C 
ATOM     12  C   UNL     1     -32.877  44.526  -8.508  0.00  0.00    +0.000 C 
ATOM     13  C   UNL     1     -37.293  46.776 -11.297  0.00  0.00    +0.000 A 
ATOM     14  C   UNL     1     -37.100  47.388  -8.544  0.00  0.00    +0.000 A 
ATOM     15  C   UNL     1     -38.170  47.641 -10.679  0.00  0.00    +0.000 A 
ATOM     16  C   UNL     1     -38.076  47.939  -9.343  0.00  0.00    +0.000 A 
ATOM     17  C   UNL     1     -39.749  49.027 -10.172  0.00  0.00    +0.000 C 
ENDROOT
BRANCH   8  18
ATOM     18  C   UNL     1     -35.689  44.798  -7.277  0.00  0.00    +0.000 A 
ATOM     19  C   UNL     1     -36.892  44.116  -7.533  0.00  0.00    +0.000 A 
ATOM     20  C   UNL     1     -34.988  44.479  -6.102  0.00  0.00    +0.000 A 
ATOM     21  C   UNL     1     -35.461  43.497  -5.230  0.00  0.00    +0.000 A 
ATOM     22  C   UNL     1     -37.398  43.141  -6.662  0.00  0.00    +0.000 A 
ATOM     23  C   UNL     1     -36.671  42.839  -5.510  0.00  0.00    +0.000 A 
BRANCH  21  24
ATOM     24  O   UNL     1     -34.842  43.095  -4.070  0.00  0.00    +0.000 OA
ATOM     25  C   UNL     1     -33.425  42.953  -4.127  0.00  0.00    +0.000 C 
ENDBRANCH  21  24
BRANCH  22  26
ATOM     26  O   UNL     1     -38.577  42.599  -7.097  0.00  0.00    +0.000 OA
ATOM     27  C   UNL     1     -38.520  41.599  -8.104  0.00  0.00    +0.000 C 
ENDBRANCH  22  26
BRANCH  23  28
ATOM     28  O   UNL     1     -37.089  41.887  -4.614  0.00  0.00    +0.000 OA
ATOM     29  H   UNL     1     -36.275  41.418  -4.347  0.00  0.00    +0.000 HD
ENDBRANCH  23  28
ENDBRANCH   8  18
BRANCH   7  30
ATOM     30  O   UNL     1     -34.399  46.098 -11.975  0.00  0.00    +0.000 OA
BRANCH  30  34
ATOM     31  O   UNL     1     -33.202  45.027 -13.673  0.00  0.00    +0.000 OA
ATOM     32  O   UNL     1     -32.851  45.717 -17.269  0.00  0.00    +0.000 OA
ATOM     33  O   UNL     1     -31.830  43.640 -16.790  0.00  0.00    +0.000 OA
ATOM     34  C   UNL     1     -34.376  45.783 -13.372  0.00  0.00    +0.000 C 
ATOM     35  C   UNL     1     -34.417  47.127 -14.136  0.00  0.00    +0.000 C 
ATOM     36  C   UNL     1     -32.972  46.021 -15.875  0.00  0.00    +0.000 C 
ATOM     37  C   UNL     1     -34.189  46.916 -15.640  0.00  0.00    +0.000 C 
ATOM     38  C   UNL     1     -33.123  44.736 -15.066  0.00  0.00    +0.000 C 
ATOM     39  C   UNL     1     -31.923  43.850 -15.382  0.00  0.00    +0.000 C 
ATOM     40  C   UNL     1     -31.717  44.875 -17.496  0.00  0.00    +0.000 C 
ATOM     41  C   UNL     1     -31.656  44.564 -18.981  0.00  0.00    +0.000 C 
BRANCH  35  42
ATOM     42  O   UNL     1     -35.691  47.755 -13.915  0.00  0.00    +0.000 OA
ATOM     43  H   UNL     1     -36.260  47.480 -14.660  0.00  0.00    +0.000 HD
ENDBRANCH  35  42
BRANCH  37  44
ATOM     44  O   UNL     1     -33.957  48.178 -16.287  0.00  0.00    +0.000 OA
ATOM     45  H   UNL     1     -34.813  48.440 -16.676  0.00  0.00    +0.000 HD
ENDBRANCH  37  44
ENDBRANCH  30  34
ENDBRANCH   7  30
TORSDOF 8
ENDMDL
MODEL 7
REMARK VINA RESULT:      -7.1      4.065     10.387
REMARK  Name = 
REMARK  11 active torsions:
REMARK  status: ('A' for Active; 'I' for Inactive)
REMARK    1  A    between atoms: O_1  and  C_16
REMARK    2  A    between atoms: O_1  and  C_22
REMARK    3  A    between atoms: O_6  and  C_24
REMARK    4  A    between atoms: O_8  and  C_26
REMARK    5  A    between atoms: O_11  and  C_36
REMARK    6  A    between atoms: O_11  and  C_41
REMARK    7  A    between atoms: O_12  and  C_37
REMARK    8  A    between atoms: O_12  and  C_42
REMARK    9  A    between atoms: O_13  and  C_39
REMARK   10  A    between atoms: C_17  and  C_23
REMARK   11  A    between atoms: C_35  and  C_40
REMARK                            x       y       z     vdW  Elec       q    Type
REMARK                         _______ _______ _______ _____ _____    ______ ____
ROOT
ATOM      1  O   UNL     1     -31.951  45.321 -18.729  0.00  0.00    +0.000 OA
ATOM      2  O   UNL     1     -30.212  44.365 -17.581  0.00  0.00    +0.000 OA
ATOM      3  O   UNL     1     -35.940  46.267 -11.385  0.00  0.00    +0.000 OA
ATOM      4  O   UNL     1     -34.181  44.790 -10.648  0.00  0.00    +0.000 OA
ATOM      5  C   UNL     1     -33.480  45.517 -17.001  0.00  0.00    +0.000 C 
ATOM      6  C   UNL     1     -32.103  45.328 -16.395  0.00  0.00    +0.000 C 
ATOM      7  C   UNL     1     -34.355  46.357 -16.079  0.00  0.00    +0.000 C 
ATOM      8  C   UNL     1     -32.168  44.415 -15.171  0.00  0.00    +0.000 C 
ATOM      9  C   UNL     1     -34.257  45.863 -14.637  0.00  0.00    +0.000 A 
ATOM     10  C   UNL     1     -33.213  44.985 -14.197  0.00  0.00    +0.000 A 
ATOM     11  C   UNL     1     -33.119  46.070 -18.356  0.00  0.00    +0.000 C 
ATOM     12  C   UNL     1     -31.305  44.905 -17.591  0.00  0.00    +0.000 C 
ATOM     13  C   UNL     1     -35.208  46.324 -13.707  0.00  0.00    +0.000 A 
ATOM     14  C   UNL     1     -33.147  44.592 -12.845  0.00  0.00    +0.000 A 
ATOM     15  C   UNL     1     -35.103  45.912 -12.395  0.00  0.00    +0.000 A 
ATOM     16  C   UNL     1     -34.102  45.072 -11.977  0.00  0.00    +0.000 A 
ATOM     17  C   UNL     1     -35.351  45.550 -10.280  0.00  0.00    +0.000 C 
ENDROOT
BRANCH   8  18
ATOM     18  C   UNL     1     -32.383  42.932 -15.484  0.00  0.00    +0.000 A 
ATOM     19  C   UNL     1     -31.333  41.997 -15.511  0.00  0.00    +0.000 A 
ATOM     20  C   UNL     1     -33.684  42.469 -15.745  0.00  0.00    +0.000 A 
ATOM     21  C   UNL     1     -33.926  41.118 -15.998  0.00  0.00    +0.000 A 
ATOM     22  C   UNL     1     -31.549  40.639 -15.784  0.00  0.00    +0.000 A 
ATOM     23  C   UNL     1     -32.854  40.210 -16.026  0.00  0.00    +0.000 A 
BRANCH  21  24
ATOM     24  O   UNL     1     -35.160  40.562 -16.242  0.00  0.00    +0.000 OA
ATOM     25  C   UNL     1     -36.054  41.333 -17.041  0.00  0.00    +0.000 C 
ENDBRANCH  21  24
BRANCH  22  26
ATOM     26  O   UNL     1     -30.396  39.901 -15.759  0.00  0.00    +0.000 OA
ATOM     27  C   UNL     1     -29.183  40.547 -16.116  0.00  0.00    +0.000 C 
ENDBRANCH  22  26
BRANCH  23  28
ATOM     28  O   UNL     1     -33.152  38.896 -16.286  0.00  0.00    +0.000 OA
ATOM     29  H   UNL     1     -33.377  38.872 -17.237  0.00  0.00    +0.000 HD
ENDBRANCH  23  28
ENDBRANCH   8  18
BRANCH   7  30
ATOM     30  O   UNL     1     -33.888  47.707 -16.081  0.00  0.00    +0.000 OA
BRANCH  30  34
ATOM     31  O   UNL     1     -36.158  47.987 -16.567  0.00  0.00    +0.000 OA
ATOM     32  O   UNL     1     -37.938  50.248 -18.858  0.00  0.00    +0.000 OA
ATOM     33  O   UNL     1     -39.524  49.114 -17.523  0.00  0.00    +0.000 OA
ATOM     34  C   UNL     1     -34.895  48.649 -16.471  0.00  0.00    +0.000 C 
ATOM     35  C   UNL     1     -34.447  49.251 -17.823  0.00  0.00    +0.000 C 
ATOM     36  C   UNL     1     -36.889  49.379 -18.416  0.00  0.00    +0.000 C 
ATOM     37  C   UNL     1     -35.553  50.122 -18.435  0.00  0.00    +0.000 C 
ATOM     38  C   UNL     1     -37.175  48.887 -17.000  0.00  0.00    +0.000 C 
ATOM     39  C   UNL     1     -38.542  48.212 -17.015  0.00  0.00    +0.000 C 
ATOM     40  C   UNL     1     -39.193  49.562 -18.837  0.00  0.00    +0.000 C 
ATOM     41  C   UNL     1     -40.266  50.536 -19.286  0.00  0.00    +0.000 C 
BRANCH  35  42
ATOM     42  O   UNL     1     -33.260  50.036 -17.618  0.00  0.00    +0.000 OA
ATOM     43  H   UNL     1     -33.162  50.589 -18.418  0.00  0.00    +0.000 HD
ENDBRANCH  35  42
BRANCH  37  44
ATOM     44  O   UNL     1     -35.232  50.444 -19.798  0.00  0.00    +0.000 OA
ATOM     45  H   UNL     1     -34.267  50.587 -19.820  0.00  0.00    +0.000 HD
ENDBRANCH  37  44
ENDBRANCH  30  34
ENDBRANCH   7  30
TORSDOF 8
ENDMDL
MODEL 8
REMARK VINA RESULT:      -7.0     25.709     28.521
REMARK  Name = 
REMARK  11 active torsions:
REMARK  status: ('A' for Active; 'I' for Inactive)
REMARK    1  A    between atoms: O_1  and  C_16
REMARK    2  A    between atoms: O_1  and  C_22
REMARK    3  A    between atoms: O_6  and  C_24
REMARK    4  A    between atoms: O_8  and  C_26
REMARK    5  A    between atoms: O_11  and  C_36
REMARK    6  A    between atoms: O_11  and  C_41
REMARK    7  A    between atoms: O_12  and  C_37
REMARK    8  A    between atoms: O_12  and  C_42
REMARK    9  A    between atoms: O_13  and  C_39
REMARK   10  A    between atoms: C_17  and  C_23
REMARK   11  A    between atoms: C_35  and  C_40
REMARK                            x       y       z     vdW  Elec       q    Type
REMARK                         _______ _______ _______ _____ _____    ______ ____
ROOT
ATOM      1  O   UNL     1     -16.735  58.686 -25.188  0.00  0.00    +0.000 OA
ATOM      2  O   UNL     1     -17.138  58.563 -22.935  0.00  0.00    +0.000 OA
ATOM      3  O   UNL     1     -15.052  50.445 -25.076  0.00  0.00    +0.000 OA
ATOM      4  O   UNL     1     -15.060  50.841 -22.697  0.00  0.00    +0.000 OA
ATOM      5  C   UNL     1     -15.940  56.540 -25.547  0.00  0.00    +0.000 C 
ATOM      6  C   UNL     1     -16.690  56.553 -24.228  0.00  0.00    +0.000 C 
ATOM      7  C   UNL     1     -16.044  55.168 -26.202  0.00  0.00    +0.000 C 
ATOM      8  C   UNL     1     -15.971  55.697 -23.186  0.00  0.00    +0.000 C 
ATOM      9  C   UNL     1     -15.756  54.060 -25.191  0.00  0.00    +0.000 A 
ATOM     10  C   UNL     1     -15.759  54.293 -23.776  0.00  0.00    +0.000 A 
ATOM     11  C   UNL     1     -16.570  57.721 -26.241  0.00  0.00    +0.000 C 
ATOM     12  C   UNL     1     -16.852  58.024 -23.991  0.00  0.00    +0.000 C 
ATOM     13  C   UNL     1     -15.518  52.759 -25.675  0.00  0.00    +0.000 A 
ATOM     14  C   UNL     1     -15.526  53.224 -22.887  0.00  0.00    +0.000 A 
ATOM     15  C   UNL     1     -15.296  51.747 -24.767  0.00  0.00    +0.000 A 
ATOM     16  C   UNL     1     -15.300  51.972 -23.414  0.00  0.00    +0.000 A 
ATOM     17  C   UNL     1     -14.901  49.877 -23.759  0.00  0.00    +0.000 C 
ENDROOT
BRANCH   8  18
ATOM     18  C   UNL     1     -14.688  56.311 -22.620  0.00  0.00    +0.000 A 
ATOM     19  C   UNL     1     -13.515  56.462 -23.380  0.00  0.00    +0.000 A 
ATOM     20  C   UNL     1     -14.673  56.760 -21.288  0.00  0.00    +0.000 A 
ATOM     21  C   UNL     1     -13.534  57.358 -20.748  0.00  0.00    +0.000 A 
ATOM     22  C   UNL     1     -12.352  57.041 -22.852  0.00  0.00    +0.000 A 
ATOM     23  C   UNL     1     -12.375  57.488 -21.530  0.00  0.00    +0.000 A 
BRANCH  21  24
ATOM     24  O   UNL     1     -13.424  57.850 -19.467  0.00  0.00    +0.000 OA
ATOM     25  C   UNL     1     -13.656  56.920 -18.412  0.00  0.00    +0.000 C 
ENDBRANCH  21  24
BRANCH  22  26
ATOM     26  O   UNL     1     -11.326  57.095 -23.756  0.00  0.00    +0.000 OA
ATOM     27  C   UNL     1     -10.383  56.033 -23.759  0.00  0.00    +0.000 C 
ENDBRANCH  22  26
BRANCH  23  28
ATOM     28  O   UNL     1     -11.284  58.079 -20.943  0.00  0.00    +0.000 OA
ATOM     29  H   UNL     1     -11.414  59.038 -21.078  0.00  0.00    +0.000 HD
ENDBRANCH  23  28
ENDBRANCH   8  18
BRANCH   7  30
ATOM     30  O   UNL     1     -17.379  54.962 -26.665  0.00  0.00    +0.000 OA
BRANCH  30  34
ATOM     31  O   UNL     1     -17.806  55.948 -28.741  0.00  0.00    +0.000 OA
ATOM     32  O   UNL     1     -19.242  54.629 -31.860  0.00  0.00    +0.000 OA
ATOM     33  O   UNL     1     -18.418  56.807 -32.263  0.00  0.00    +0.000 OA
ATOM     34  C   UNL     1     -17.454  54.733 -28.077  0.00  0.00    +0.000 C 
ATOM     35  C   UNL     1     -18.508  53.622 -28.296  0.00  0.00    +0.000 C 
ATOM     36  C   UNL     1     -19.092  54.794 -30.446  0.00  0.00    +0.000 C 
ATOM     37  C   UNL     1     -18.820  53.441 -29.788  0.00  0.00    +0.000 C 
ATOM     38  C   UNL     1     -17.936  55.745 -30.146  0.00  0.00    +0.000 C 
ATOM     39  C   UNL     1     -18.219  57.055 -30.872  0.00  0.00    +0.000 C 
ATOM     40  C   UNL     1     -19.492  55.893 -32.483  0.00  0.00    +0.000 C 
ATOM     41  C   UNL     1     -19.614  55.661 -33.978  0.00  0.00    +0.000 C 
BRANCH  35  42
ATOM     42  O   UNL     1     -18.015  52.390 -27.743  0.00  0.00    +0.000 OA
ATOM     43  H   UNL     1     -17.514  52.636 -26.942  0.00  0.00    +0.000 HD
ENDBRANCH  35  42
BRANCH  37  44
ATOM     44  O   UNL     1     -19.982  52.613 -29.954  0.00  0.00    +0.000 OA
ATOM     45  H   UNL     1     -20.711  53.081 -29.505  0.00  0.00    +0.000 HD
ENDBRANCH  37  44
ENDBRANCH  30  34
ENDBRANCH   7  30
TORSDOF 8
ENDMDL
MODEL 9
REMARK VINA RESULT:      -6.9      6.798     13.131
REMARK  Name = 
REMARK  11 active torsions:
REMARK  status: ('A' for Active; 'I' for Inactive)
REMARK    1  A    between atoms: O_1  and  C_16
REMARK    2  A    between atoms: O_1  and  C_22
REMARK    3  A    between atoms: O_6  and  C_24
REMARK    4  A    between atoms: O_8  and  C_26
REMARK    5  A    between atoms: O_11  and  C_36
REMARK    6  A    between atoms: O_11  and  C_41
REMARK    7  A    between atoms: O_12  and  C_37
REMARK    8  A    between atoms: O_12  and  C_42
REMARK    9  A    between atoms: O_13  and  C_39
REMARK   10  A    between atoms: C_17  and  C_23
REMARK   11  A    between atoms: C_35  and  C_40
REMARK                            x       y       z     vdW  Elec       q    Type
REMARK                         _______ _______ _______ _____ _____    ______ ____
ROOT
ATOM      1  O   UNL     1     -34.688  48.629 -16.593  0.00  0.00    +0.000 OA
ATOM      2  O   UNL     1     -35.202  46.661 -15.536  0.00  0.00    +0.000 OA
ATOM      3  O   UNL     1     -34.675  44.415 -23.873  0.00  0.00    +0.000 OA
ATOM      4  O   UNL     1     -34.705  42.530 -22.369  0.00  0.00    +0.000 OA
ATOM      5  C   UNL     1     -34.320  47.822 -18.733  0.00  0.00    +0.000 C 
ATOM      6  C   UNL     1     -35.106  46.778 -17.963  0.00  0.00    +0.000 C 
ATOM      7  C   UNL     1     -34.665  47.759 -20.216  0.00  0.00    +0.000 C 
ATOM      8  C   UNL     1     -34.616  45.371 -18.298  0.00  0.00    +0.000 C 
ATOM      9  C   UNL     1     -34.645  46.316 -20.717  0.00  0.00    +0.000 A 
ATOM     10  C   UNL     1     -34.661  45.194 -19.825  0.00  0.00    +0.000 A 
ATOM     11  C   UNL     1     -34.673  49.068 -17.962  0.00  0.00    +0.000 C 
ATOM     12  C   UNL     1     -34.984  47.289 -16.559  0.00  0.00    +0.000 C 
ATOM     13  C   UNL     1     -34.649  46.092 -22.108  0.00  0.00    +0.000 A 
ATOM     14  C   UNL     1     -34.682  43.883 -20.344  0.00  0.00    +0.000 A 
ATOM     15  C   UNL     1     -34.670  44.792 -22.567  0.00  0.00    +0.000 A 
ATOM     16  C   UNL     1     -34.687  43.720 -21.711  0.00  0.00    +0.000 A 
ATOM     17  C   UNL     1     -34.696  42.978 -23.740  0.00  0.00    +0.000 C 
ENDROOT
BRANCH   8  18
ATOM     18  C   UNL     1     -33.262  44.997 -17.689  0.00  0.00    +0.000 A 
ATOM     19  C   UNL     1     -33.129  44.456 -16.398  0.00  0.00    +0.000 A 
ATOM     20  C   UNL     1     -32.094  45.186 -18.448  0.00  0.00    +0.000 A 
ATOM     21  C   UNL     1     -30.846  44.825 -17.942  0.00  0.00    +0.000 A 
ATOM     22  C   UNL     1     -31.882  44.105 -15.860  0.00  0.00    +0.000 A 
ATOM     23  C   UNL     1     -30.744  44.293 -16.645  0.00  0.00    +0.000 A 
BRANCH  21  24
ATOM     24  O   UNL     1     -29.649  44.947 -18.610  0.00  0.00    +0.000 OA
ATOM     25  C   UNL     1     -29.445  44.061 -19.708  0.00  0.00    +0.000 C 
ENDBRANCH  21  24
BRANCH  22  26
ATOM     26  O   UNL     1     -31.973  43.595 -14.593  0.00  0.00    +0.000 OA
ATOM     27  C   UNL     1     -33.191  43.780 -13.886  0.00  0.00    +0.000 C 
ENDBRANCH  22  26
BRANCH  23  28
ATOM     28  O   UNL     1     -29.489  43.962 -16.199  0.00  0.00    +0.000 OA
ATOM     29  H   UNL     1     -29.423  44.366 -15.312  0.00  0.00    +0.000 HD
ENDBRANCH  23  28
ENDBRANCH   8  18
BRANCH   7  30
ATOM     30  O   UNL     1     -35.994  48.242 -20.415  0.00  0.00    +0.000 OA
BRANCH  30  34
ATOM     31  O   UNL     1     -37.260  50.150 -19.943  0.00  0.00    +0.000 OA
ATOM     32  O   UNL     1     -37.681  53.343 -21.719  0.00  0.00    +0.000 OA
ATOM     33  O   UNL     1     -38.744  53.497 -19.614  0.00  0.00    +0.000 OA
ATOM     34  C   UNL     1     -36.059  49.667 -20.549  0.00  0.00    +0.000 C 
ATOM     35  C   UNL     1     -36.002  49.979 -22.062  0.00  0.00    +0.000 C 
ATOM     36  C   UNL     1     -37.518  51.928 -21.575  0.00  0.00    +0.000 C 
ATOM     37  C   UNL     1     -36.273  51.466 -22.332  0.00  0.00    +0.000 C 
ATOM     38  C   UNL     1     -37.381  51.561 -20.100  0.00  0.00    +0.000 C 
ATOM     39  C   UNL     1     -38.611  52.097 -19.376  0.00  0.00    +0.000 C 
ATOM     40  C   UNL     1     -38.843  53.784 -21.009  0.00  0.00    +0.000 C 
ATOM     41  C   UNL     1     -38.948  55.289 -21.174  0.00  0.00    +0.000 C 
BRANCH  35  42
ATOM     42  O   UNL     1     -34.708  49.615 -22.569  0.00  0.00    +0.000 OA
ATOM     43  H   UNL     1     -34.865  49.217 -23.448  0.00  0.00    +0.000 HD
ENDBRANCH  35  42
BRANCH  37  44
ATOM     44  O   UNL     1     -36.487  51.684 -23.736  0.00  0.00    +0.000 OA
ATOM     45  H   UNL     1     -36.943  50.886 -24.064  0.00  0.00    +0.000 HD
ENDBRANCH  37  44
ENDBRANCH  30  34
ENDBRANCH   7  30
TORSDOF 8
ENDMDL
