MODEL 1
REMARK VINA RESULT:      -7.2      0.000      0.000
REMARK  Name = Foretinib.pdbqt.pdb
REMARK  11 active torsions:
REMARK  status: ('A' for Active; 'I' for Inactive)
REMARK    1  A    between atoms: C_2  and  N_31
REMARK    2  A    between atoms: C_7  and  O_8
REMARK    3  A    between atoms: O_8  and  C_9
REMARK    4  A    between atoms: C_17  and  O_19
REMARK    5  A    between atoms: C_18  and  O_29
REMARK    6  A    between atoms: O_19  and  C_20
REMARK    7  A    between atoms: C_21  and  C_22
REMARK    8  A    between atoms: C_22  and  N_23
REMARK    9  A    between atoms: C_32  and  C_35
REMARK   10  A    between atoms: C_35  and  C_38
REMARK   11  A    between atoms: N_40  and  C_42
REMARK                            x       y       z     vdW  Elec       q    Type
REMARK                         _______ _______ _______ _____ _____    ______ ____
ROOT
ATOM      1  F   UNL     1     -35.496  45.792 -18.628  0.00  0.00    +0.000 F 
ATOM      2  C   UNL     1     -36.211  49.204 -17.620  0.00  0.00    +0.000 A 
ATOM      3  C   UNL     1     -36.395  47.895 -18.068  0.00  0.00    +0.000 A 
ATOM      4  C   UNL     1     -34.929  49.640 -17.276  0.00  0.00    +0.000 A 
ATOM      5  C   UNL     1     -35.305  47.036 -18.163  0.00  0.00    +0.000 A 
ATOM      6  C   UNL     1     -33.838  48.779 -17.374  0.00  0.00    +0.000 A 
ATOM      7  C   UNL     1     -34.030  47.466 -17.795  0.00  0.00    +0.000 A 
ENDROOT
BRANCH   2   8
ATOM      8  N   UNL     1     -37.268  50.125 -17.500  0.00  0.00    +0.000 N 
ATOM      9  C   UNL     1     -37.575  51.119 -18.415  0.00  0.00    +0.000 C 
ATOM     10  O   UNL     1     -36.965  51.366 -19.448  0.00  0.00    +0.000 OA
ATOM     11  H   UNL     1     -37.823  50.076 -16.650  0.00  0.00    +0.000 HD
BRANCH   9  12
ATOM     12  C   UNL     1     -38.741  51.981 -18.030  0.00  0.00    +0.000 C 
ATOM     13  C   UNL     1     -39.484  51.621 -16.827  0.00  0.00    +0.000 C 
ATOM     14  C   UNL     1     -40.076  51.410 -18.173  0.00  0.00    +0.000 C 
BRANCH  12  15
ATOM     15  C   UNL     1     -38.562  53.442 -18.315  0.00  0.00    +0.000 C 
ATOM     16  O   UNL     1     -37.987  54.139 -17.487  0.00  0.00    +0.000 OA
ATOM     17  N   UNL     1     -39.037  53.857 -19.547  0.00  0.00    +0.000 N 
ATOM     18  H   UNL     1     -39.444  53.156 -20.160  0.00  0.00    +0.000 HD
BRANCH  17  19
ATOM     19  C   UNL     1     -38.973  55.170 -20.048  0.00  0.00    +0.000 A 
ATOM     20  C   UNL     1     -38.249  55.383 -21.222  0.00  0.00    +0.000 A 
ATOM     21  C   UNL     1     -38.148  56.660 -21.768  0.00  0.00    +0.000 A 
ATOM     22  C   UNL     1     -38.779  57.723 -21.130  0.00  0.00    +0.000 A 
ATOM     23  F   UNL     1     -38.686  58.953 -21.654  0.00  0.00    +0.000 F 
ATOM     24  C   UNL     1     -39.506  57.530 -19.962  0.00  0.00    +0.000 A 
ATOM     25  C   UNL     1     -39.600  56.249 -19.423  0.00  0.00    +0.000 A 
ENDBRANCH  17  19
ENDBRANCH  12  15
ENDBRANCH   9  12
ENDBRANCH   2   8
BRANCH   7  26
ATOM     26  O   UNL     1     -32.911  46.682 -17.934  0.00  0.00    +0.000 OA
BRANCH  26  27
ATOM     27  C   UNL     1     -32.620  45.808 -16.905  0.00  0.00    +0.000 A 
ATOM     28  C   UNL     1     -31.540  44.928 -17.070  0.00  0.00    +0.000 A 
ATOM     29  C   UNL     1     -31.214  44.081 -15.996  0.00  0.00    +0.000 A 
ATOM     30  C   UNL     1     -30.793  44.865 -18.257  0.00  0.00    +0.000 A 
ATOM     31  N   UNL     1     -31.889  44.101 -14.836  0.00  0.00    +0.000 NA
ATOM     32  C   UNL     1     -30.152  43.204 -16.157  0.00  0.00    +0.000 A 
ATOM     33  C   UNL     1     -32.915  44.973 -14.712  0.00  0.00    +0.000 A 
ATOM     34  C   UNL     1     -33.314  45.848 -15.700  0.00  0.00    +0.000 A 
ATOM     35  C   UNL     1     -29.402  43.137 -17.338  0.00  0.00    +0.000 A 
ATOM     36  C   UNL     1     -29.727  43.977 -18.404  0.00  0.00    +0.000 A 
BRANCH  36  37
ATOM     37  O   UNL     1     -28.966  43.868 -19.544  0.00  0.00    +0.000 OA
ATOM     38  C   UNL     1     -29.599  43.269 -20.641  0.00  0.00    +0.000 C 
ENDBRANCH  36  37
BRANCH  35  39
ATOM     39  O   UNL     1     -28.350  42.270 -17.515  0.00  0.00    +0.000 OA
BRANCH  39  40
ATOM     40  C   UNL     1     -28.428  41.140 -16.816  0.00  0.00    +0.000 C 
ATOM     41  C   UNL     1     -28.519  39.829 -16.026  0.00  0.00    +0.000 C 
BRANCH  41  42
ATOM     42  C   UNL     1     -28.606  38.516 -15.241  0.00  0.00    +0.000 C 
BRANCH  42  43
ATOM     43  N   UNL     1     -28.686  37.269 -14.494  0.00  0.00    +0.000 N 
ATOM     44  C   UNL     1     -27.863  37.452 -13.260  0.00  0.00    +0.000 C 
ATOM     45  C   UNL     1     -28.335  37.576 -11.775  0.00  0.00    +0.000 C 
ATOM     46  O   UNL     1     -29.536  37.568 -11.157  0.00  0.00    +0.000 OA
ATOM     47  C   UNL     1     -30.281  37.410 -12.270  0.00  0.00    +0.000 C 
ATOM     48  C   UNL     1     -30.008  37.268 -13.799  0.00  0.00    +0.000 C 
ENDBRANCH  42  43
ENDBRANCH  41  42
ENDBRANCH  39  40
ENDBRANCH  35  39
ENDBRANCH  26  27
ENDBRANCH   7  26
TORSDOF 11
ENDMDL
MODEL 2
REMARK VINA RESULT:      -7.2      6.971     13.105
REMARK  Name = Foretinib.pdbqt.pdb
REMARK  11 active torsions:
REMARK  status: ('A' for Active; 'I' for Inactive)
REMARK    1  A    between atoms: C_2  and  N_31
REMARK    2  A    between atoms: C_7  and  O_8
REMARK    3  A    between atoms: O_8  and  C_9
REMARK    4  A    between atoms: C_17  and  O_19
REMARK    5  A    between atoms: C_18  and  O_29
REMARK    6  A    between atoms: O_19  and  C_20
REMARK    7  A    between atoms: C_21  and  C_22
REMARK    8  A    between atoms: C_22  and  N_23
REMARK    9  A    between atoms: C_32  and  C_35
REMARK   10  A    between atoms: C_35  and  C_38
REMARK   11  A    between atoms: N_40  and  C_42
REMARK                            x       y       z     vdW  Elec       q    Type
REMARK                         _______ _______ _______ _____ _____    ______ ____
ROOT
ATOM      1  F   UNL     1     -36.466  42.660 -12.302  0.00  0.00    +0.000 F 
ATOM      2  C   UNL     1     -34.164  44.331 -10.048  0.00  0.00    +0.000 A 
ATOM      3  C   UNL     1     -35.262  43.605 -10.512  0.00  0.00    +0.000 A 
ATOM      4  C   UNL     1     -33.202  44.780 -10.956  0.00  0.00    +0.000 A 
ATOM      5  C   UNL     1     -35.387  43.330 -11.870  0.00  0.00    +0.000 A 
ATOM      6  C   UNL     1     -33.329  44.504 -12.316  0.00  0.00    +0.000 A 
ATOM      7  C   UNL     1     -34.412  43.756 -12.772  0.00  0.00    +0.000 A 
ENDROOT
BRANCH   2   8
ATOM      8  N   UNL     1     -33.977  44.646  -8.690  0.00  0.00    +0.000 N 
ATOM      9  C   UNL     1     -33.669  43.739  -7.689  0.00  0.00    +0.000 C 
ATOM     10  O   UNL     1     -33.539  42.529  -7.825  0.00  0.00    +0.000 OA
ATOM     11  H   UNL     1     -34.120  45.616  -8.422  0.00  0.00    +0.000 HD
BRANCH   9  12
ATOM     12  C   UNL     1     -33.547  44.339  -6.320  0.00  0.00    +0.000 C 
ATOM     13  C   UNL     1     -34.242  45.596  -6.065  0.00  0.00    +0.000 C 
ATOM     14  C   UNL     1     -32.761  45.561  -6.188  0.00  0.00    +0.000 C 
BRANCH  12  15
ATOM     15  C   UNL     1     -33.499  43.343  -5.200  0.00  0.00    +0.000 C 
ATOM     16  O   UNL     1     -32.537  43.354  -4.440  0.00  0.00    +0.000 OA
ATOM     17  N   UNL     1     -34.608  42.519  -5.107  0.00  0.00    +0.000 N 
ATOM     18  H   UNL     1     -35.361  42.659  -5.774  0.00  0.00    +0.000 HD
BRANCH  17  19
ATOM     19  C   UNL     1     -34.804  41.519  -4.138  0.00  0.00    +0.000 A 
ATOM     20  C   UNL     1     -34.870  40.195  -4.575  0.00  0.00    +0.000 A 
ATOM     21  C   UNL     1     -35.062  39.159  -3.663  0.00  0.00    +0.000 A 
ATOM     22  C   UNL     1     -35.186  39.458  -2.311  0.00  0.00    +0.000 A 
ATOM     23  F   UNL     1     -35.368  38.464  -1.432  0.00  0.00    +0.000 F 
ATOM     24  C   UNL     1     -35.119  40.770  -1.857  0.00  0.00    +0.000 A 
ATOM     25  C   UNL     1     -34.928  41.799  -2.775  0.00  0.00    +0.000 A 
ENDBRANCH  17  19
ENDBRANCH  12  15
ENDBRANCH   9  12
ENDBRANCH   2   8
BRANCH   7  26
ATOM     26  O   UNL     1     -34.519  43.571 -14.128  0.00  0.00    +0.000 OA
BRANCH  26  27
ATOM     27  C   UNL     1     -33.557  42.789 -14.737  0.00  0.00    +0.000 A 
ATOM     28  C   UNL     1     -32.780  43.367 -15.753  0.00  0.00    +0.000 A 
ATOM     29  C   UNL     1     -31.765  42.584 -16.328  0.00  0.00    +0.000 A 
ATOM     30  C   UNL     1     -32.989  44.679 -16.207  0.00  0.00    +0.000 A 
ATOM     31  N   UNL     1     -31.517  41.326 -15.931  0.00  0.00    +0.000 NA
ATOM     32  C   UNL     1     -31.000  43.147 -17.338  0.00  0.00    +0.000 A 
ATOM     33  C   UNL     1     -32.279  40.810 -14.940  0.00  0.00    +0.000 A 
ATOM     34  C   UNL     1     -33.296  41.493 -14.306  0.00  0.00    +0.000 A 
ATOM     35  C   UNL     1     -31.202  44.456 -17.795  0.00  0.00    +0.000 A 
ATOM     36  C   UNL     1     -32.210  45.233 -17.224  0.00  0.00    +0.000 A 
BRANCH  36  37
ATOM     37  O   UNL     1     -32.373  46.508 -17.712  0.00  0.00    +0.000 OA
ATOM     38  C   UNL     1     -33.484  47.209 -17.221  0.00  0.00    +0.000 C 
ENDBRANCH  36  37
BRANCH  35  39
ATOM     39  O   UNL     1     -30.455  45.028 -18.798  0.00  0.00    +0.000 OA
BRANCH  39  40
ATOM     40  C   UNL     1     -29.696  44.180 -19.488  0.00  0.00    +0.000 C 
ATOM     41  C   UNL     1     -28.814  43.199 -20.268  0.00  0.00    +0.000 C 
BRANCH  41  42
ATOM     42  C   UNL     1     -27.934  42.213 -21.043  0.00  0.00    +0.000 C 
BRANCH  42  43
ATOM     43  N   UNL     1     -27.097  41.275 -21.779  0.00  0.00    +0.000 N 
ATOM     44  C   UNL     1     -26.524  42.026 -22.937  0.00  0.00    +0.000 C 
ATOM     45  C   UNL     1     -25.047  42.476 -23.180  0.00  0.00    +0.000 C 
ATOM     46  O   UNL     1     -23.892  42.358 -22.489  0.00  0.00    +0.000 OA
ATOM     47  C   UNL     1     -24.409  41.686 -21.441  0.00  0.00    +0.000 C 
ATOM     48  C   UNL     1     -25.815  41.157 -21.022  0.00  0.00    +0.000 C 
ENDBRANCH  42  43
ENDBRANCH  41  42
ENDBRANCH  39  40
ENDBRANCH  35  39
ENDBRANCH  26  27
ENDBRANCH   7  26
TORSDOF 11
ENDMDL
MODEL 3
REMARK VINA RESULT:      -7.0      3.862      8.020
REMARK  Name = Foretinib.pdbqt.pdb
REMARK  11 active torsions:
REMARK  status: ('A' for Active; 'I' for Inactive)
REMARK    1  A    between atoms: C_2  and  N_31
REMARK    2  A    between atoms: C_7  and  O_8
REMARK    3  A    between atoms: O_8  and  C_9
REMARK    4  A    between atoms: C_17  and  O_19
REMARK    5  A    between atoms: C_18  and  O_29
REMARK    6  A    between atoms: O_19  and  C_20
REMARK    7  A    between atoms: C_21  and  C_22
REMARK    8  A    between atoms: C_22  and  N_23
REMARK    9  A    between atoms: C_32  and  C_35
REMARK   10  A    between atoms: C_35  and  C_38
REMARK   11  A    between atoms: N_40  and  C_42
REMARK                            x       y       z     vdW  Elec       q    Type
REMARK                         _______ _______ _______ _____ _____    ______ ____
ROOT
ATOM      1  F   UNL     1     -40.614  51.890 -21.269  0.00  0.00    +0.000 F 
ATOM      2  C   UNL     1     -40.096  55.164 -19.794  0.00  0.00    +0.000 A 
ATOM      3  C   UNL     1     -40.572  54.157 -20.633  0.00  0.00    +0.000 A 
ATOM      4  C   UNL     1     -39.215  54.839 -18.760  0.00  0.00    +0.000 A 
ATOM      5  C   UNL     1     -40.172  52.840 -20.432  0.00  0.00    +0.000 A 
ATOM      6  C   UNL     1     -38.813  53.520 -18.560  0.00  0.00    +0.000 A 
ATOM      7  C   UNL     1     -39.312  52.513 -19.383  0.00  0.00    +0.000 A 
ENDROOT
BRANCH   2   8
ATOM      8  N   UNL     1     -40.458  56.515 -19.942  0.00  0.00    +0.000 N 
ATOM      9  C   UNL     1     -39.893  57.406 -20.840  0.00  0.00    +0.000 C 
ATOM     10  O   UNL     1     -38.980  57.165 -21.620  0.00  0.00    +0.000 OA
ATOM     11  H   UNL     1     -41.166  56.870 -19.306  0.00  0.00    +0.000 HD
BRANCH   9  12
ATOM     12  C   UNL     1     -40.450  58.797 -20.773  0.00  0.00    +0.000 C 
ATOM     13  C   UNL     1     -40.134  59.599 -19.596  0.00  0.00    +0.000 C 
ATOM     14  C   UNL     1     -41.502  59.053 -19.794  0.00  0.00    +0.000 C 
BRANCH  12  15
ATOM     15  C   UNL     1     -40.520  59.509 -22.090  0.00  0.00    +0.000 C 
ATOM     16  O   UNL     1     -41.611  59.638 -22.635  0.00  0.00    +0.000 OA
ATOM     17  N   UNL     1     -39.312  60.010 -22.545  0.00  0.00    +0.000 N 
ATOM     18  H   UNL     1     -38.493  59.878 -21.960  0.00  0.00    +0.000 HD
BRANCH  17  19
ATOM     19  C   UNL     1     -39.123  60.725 -23.742  0.00  0.00    +0.000 A 
ATOM     20  C   UNL     1     -39.031  62.116 -23.660  0.00  0.00    +0.000 A 
ATOM     21  C   UNL     1     -38.844  62.879 -24.810  0.00  0.00    +0.000 A 
ATOM     22  C   UNL     1     -38.748  62.241 -26.041  0.00  0.00    +0.000 A 
ATOM     23  F   UNL     1     -38.566  62.973 -27.148  0.00  0.00    +0.000 F 
ATOM     24  C   UNL     1     -38.835  60.858 -26.142  0.00  0.00    +0.000 A 
ATOM     25  C   UNL     1     -39.024  60.102 -24.987  0.00  0.00    +0.000 A 
ENDBRANCH  17  19
ENDBRANCH  12  15
ENDBRANCH   9  12
ENDBRANCH   2   8
BRANCH   7  26
ATOM     26  O   UNL     1     -38.832  51.242 -19.180  0.00  0.00    +0.000 OA
BRANCH  26  27
ATOM     27  C   UNL     1     -37.514  51.004 -19.517  0.00  0.00    +0.000 A 
ATOM     28  C   UNL     1     -36.704  50.338 -18.584  0.00  0.00    +0.000 A 
ATOM     29  C   UNL     1     -35.380  50.048 -18.955  0.00  0.00    +0.000 A 
ATOM     30  C   UNL     1     -37.168  49.965 -17.313  0.00  0.00    +0.000 A 
ATOM     31  N   UNL     1     -34.883  50.375 -20.159  0.00  0.00    +0.000 NA
ATOM     32  C   UNL     1     -34.572  49.396 -18.035  0.00  0.00    +0.000 A 
ATOM     33  C   UNL     1     -35.699  51.005 -21.033  0.00  0.00    +0.000 A 
ATOM     34  C   UNL     1     -37.014  51.332 -20.772  0.00  0.00    +0.000 A 
ATOM     35  C   UNL     1     -35.030  49.020 -16.766  0.00  0.00    +0.000 A 
ATOM     36  C   UNL     1     -36.345  49.309 -16.397  0.00  0.00    +0.000 A 
BRANCH  36  37
ATOM     37  O   UNL     1     -36.743  48.926 -15.138  0.00  0.00    +0.000 OA
ATOM     38  C   UNL     1     -37.746  49.711 -14.554  0.00  0.00    +0.000 C 
ENDBRANCH  36  37
BRANCH  35  39
ATOM     39  O   UNL     1     -34.241  48.378 -15.840  0.00  0.00    +0.000 OA
BRANCH  39  40
ATOM     40  C   UNL     1     -33.695  47.239 -16.260  0.00  0.00    +0.000 C 
ATOM     41  C   UNL     1     -33.078  45.919 -16.734  0.00  0.00    +0.000 C 
BRANCH  41  42
ATOM     42  C   UNL     1     -32.467  44.596 -17.209  0.00  0.00    +0.000 C 
BRANCH  42  43
ATOM     43  N   UNL     1     -31.886  43.340 -17.662  0.00  0.00    +0.000 N 
ATOM     44  C   UNL     1     -31.548  43.518 -19.108  0.00  0.00    +0.000 C 
ATOM     45  C   UNL     1     -30.141  43.621 -19.780  0.00  0.00    +0.000 C 
ATOM     46  O   UNL     1     -28.868  43.594 -19.328  0.00  0.00    +0.000 OA
ATOM     47  C   UNL     1     -29.171  43.439 -18.023  0.00  0.00    +0.000 C 
ATOM     48  C   UNL     1     -30.474  43.318 -17.175  0.00  0.00    +0.000 C 
ENDBRANCH  42  43
ENDBRANCH  41  42
ENDBRANCH  39  40
ENDBRANCH  35  39
ENDBRANCH  26  27
ENDBRANCH   7  26
TORSDOF 11
ENDMDL
MODEL 4
REMARK VINA RESULT:      -7.0     22.693     27.441
REMARK  Name = Foretinib.pdbqt.pdb
REMARK  11 active torsions:
REMARK  status: ('A' for Active; 'I' for Inactive)
REMARK    1  A    between atoms: C_2  and  N_31
REMARK    2  A    between atoms: C_7  and  O_8
REMARK    3  A    between atoms: O_8  and  C_9
REMARK    4  A    between atoms: C_17  and  O_19
REMARK    5  A    between atoms: C_18  and  O_29
REMARK    6  A    between atoms: O_19  and  C_20
REMARK    7  A    between atoms: C_21  and  C_22
REMARK    8  A    between atoms: C_22  and  N_23
REMARK    9  A    between atoms: C_32  and  C_35
REMARK   10  A    between atoms: C_35  and  C_38
REMARK   11  A    between atoms: N_40  and  C_42
REMARK                            x       y       z     vdW  Elec       q    Type
REMARK                         _______ _______ _______ _____ _____    ______ ____
ROOT
ATOM      1  F   UNL     1     -12.108  48.348  -2.498  0.00  0.00    +0.000 F 
ATOM      2  C   UNL     1     -14.022  46.161  -0.327  0.00  0.00    +0.000 A 
ATOM      3  C   UNL     1     -13.165  47.176  -0.750  0.00  0.00    +0.000 A 
ATOM      4  C   UNL     1     -14.665  45.362  -1.275  0.00  0.00    +0.000 A 
ATOM      5  C   UNL     1     -12.961  47.389  -2.110  0.00  0.00    +0.000 A 
ATOM      6  C   UNL     1     -14.460  45.575  -2.637  0.00  0.00    +0.000 A 
ATOM      7  C   UNL     1     -13.624  46.607  -3.056  0.00  0.00    +0.000 A 
ENDROOT
BRANCH   2   8
ATOM      8  N   UNL     1     -14.272  45.890   1.032  0.00  0.00    +0.000 N 
ATOM      9  C   UNL     1     -15.424  46.232   1.720  0.00  0.00    +0.000 C 
ATOM     10  O   UNL     1     -16.386  46.839   1.266  0.00  0.00    +0.000 OA
ATOM     11  H   UNL     1     -13.524  45.442   1.553  0.00  0.00    +0.000 HD
BRANCH   9  12
ATOM     12  C   UNL     1     -15.421  45.845   3.170  0.00  0.00    +0.000 C 
ATOM     13  C   UNL     1     -14.212  45.230   3.707  0.00  0.00    +0.000 C 
ATOM     14  C   UNL     1     -15.439  44.421   3.486  0.00  0.00    +0.000 C 
BRANCH  12  15
ATOM     15  C   UNL     1     -16.173  46.779   4.070  0.00  0.00    +0.000 C 
ATOM     16  O   UNL     1     -17.018  46.316   4.829  0.00  0.00    +0.000 OA
ATOM     17  N   UNL     1     -15.787  48.106   3.984  0.00  0.00    +0.000 N 
ATOM     18  H   UNL     1     -15.030  48.340   3.349  0.00  0.00    +0.000 HD
BRANCH  17  19
ATOM     19  C   UNL     1     -16.330  49.165   4.734  0.00  0.00    +0.000 A 
ATOM     20  C   UNL     1     -16.716  50.317   4.045  0.00  0.00    +0.000 A 
ATOM     21  C   UNL     1     -17.261  51.400   4.731  0.00  0.00    +0.000 A 
ATOM     22  C   UNL     1     -17.419  51.322   6.110  0.00  0.00    +0.000 A 
ATOM     23  F   UNL     1     -17.944  52.361   6.772  0.00  0.00    +0.000 F 
ATOM     24  C   UNL     1     -17.043  50.182   6.812  0.00  0.00    +0.000 A 
ATOM     25  C   UNL     1     -16.498  49.105   6.118  0.00  0.00    +0.000 A 
ENDBRANCH  17  19
ENDBRANCH  12  15
ENDBRANCH   9  12
ENDBRANCH   2   8
BRANCH   7  26
ATOM     26  O   UNL     1     -13.409  46.729  -4.407  0.00  0.00    +0.000 OA
BRANCH  26  27
ATOM     27  C   UNL     1     -13.824  47.901  -5.009  0.00  0.00    +0.000 A 
ATOM     28  C   UNL     1     -12.888  48.624  -5.765  0.00  0.00    +0.000 A 
ATOM     29  C   UNL     1     -13.332  49.785  -6.422  0.00  0.00    +0.000 A 
ATOM     30  C   UNL     1     -11.545  48.232  -5.876  0.00  0.00    +0.000 A 
ATOM     31  N   UNL     1     -14.605  50.204  -6.356  0.00  0.00    +0.000 NA
ATOM     32  C   UNL     1     -12.409  50.507  -7.164  0.00  0.00    +0.000 A 
ATOM     33  C   UNL     1     -15.479  49.473  -5.628  0.00  0.00    +0.000 A 
ATOM     34  C   UNL     1     -15.149  48.318  -4.949  0.00  0.00    +0.000 A 
ATOM     35  C   UNL     1     -11.068  50.121  -7.280  0.00  0.00    +0.000 A 
ATOM     36  C   UNL     1     -10.628  48.969  -6.627  0.00  0.00    +0.000 A 
BRANCH  36  37
ATOM     37  O   UNL     1      -9.301  48.636  -6.765  0.00  0.00    +0.000 OA
ATOM     38  C   UNL     1      -9.028  47.584  -7.651  0.00  0.00    +0.000 C 
ENDBRANCH  36  37
BRANCH  35  39
ATOM     39  O   UNL     1     -10.140  50.828  -8.007  0.00  0.00    +0.000 OA
BRANCH  39  40
ATOM     40  C   UNL     1     -10.616  51.901  -8.635  0.00  0.00    +0.000 C 
ATOM     41  C   UNL     1     -11.159  53.129  -9.373  0.00  0.00    +0.000 C 
BRANCH  41  42
ATOM     42  C   UNL     1     -11.704  54.354 -10.116  0.00  0.00    +0.000 C 
BRANCH  42  43
ATOM     43  N   UNL     1     -12.221  55.517 -10.823  0.00  0.00    +0.000 N 
ATOM     44  C   UNL     1     -12.354  55.125 -12.259  0.00  0.00    +0.000 C 
ATOM     45  C   UNL     1     -13.654  54.892 -13.095  0.00  0.00    +0.000 C 
ATOM     46  O   UNL     1     -14.977  54.954 -12.831  0.00  0.00    +0.000 OA
ATOM     47  C   UNL     1     -14.858  55.302 -11.533  0.00  0.00    +0.000 C 
ATOM     48  C   UNL     1     -13.687  55.576 -10.542  0.00  0.00    +0.000 C 
ENDBRANCH  42  43
ENDBRANCH  41  42
ENDBRANCH  39  40
ENDBRANCH  35  39
ENDBRANCH  26  27
ENDBRANCH   7  26
TORSDOF 11
ENDMDL
MODEL 5
REMARK VINA RESULT:      -7.0     15.802     21.301
REMARK  Name = Foretinib.pdbqt.pdb
REMARK  11 active torsions:
REMARK  status: ('A' for Active; 'I' for Inactive)
REMARK    1  A    between atoms: C_2  and  N_31
REMARK    2  A    between atoms: C_7  and  O_8
REMARK    3  A    between atoms: O_8  and  C_9
REMARK    4  A    between atoms: C_17  and  O_19
REMARK    5  A    between atoms: C_18  and  O_29
REMARK    6  A    between atoms: O_19  and  C_20
REMARK    7  A    between atoms: C_21  and  C_22
REMARK    8  A    between atoms: C_22  and  N_23
REMARK    9  A    between atoms: C_32  and  C_35
REMARK   10  A    between atoms: C_35  and  C_38
REMARK   11  A    between atoms: N_40  and  C_42
REMARK                            x       y       z     vdW  Elec       q    Type
REMARK                         _______ _______ _______ _____ _____    ______ ____
ROOT
ATOM      1  F   UNL     1     -18.217  51.006 -27.162  0.00  0.00    +0.000 F 
ATOM      2  C   UNL     1     -18.667  47.760 -25.604  0.00  0.00    +0.000 A 
ATOM      3  C   UNL     1     -18.941  48.937 -26.301  0.00  0.00    +0.000 A 
ATOM      4  C   UNL     1     -17.376  47.527 -25.125  0.00  0.00    +0.000 A 
ATOM      5  C   UNL     1     -17.927  49.865 -26.519  0.00  0.00    +0.000 A 
ATOM      6  C   UNL     1     -16.362  48.458 -25.343  0.00  0.00    +0.000 A 
ATOM      7  C   UNL     1     -16.632  49.619 -26.063  0.00  0.00    +0.000 A 
ENDROOT
BRANCH   2   8
ATOM      8  N   UNL     1     -19.645  46.780 -25.347  0.00  0.00    +0.000 N 
ATOM      9  C   UNL     1     -19.686  45.518 -25.916  0.00  0.00    +0.000 C 
ATOM     10  O   UNL     1     -18.902  45.071 -26.744  0.00  0.00    +0.000 OA
ATOM     11  H   UNL     1     -20.401  47.043 -24.721  0.00  0.00    +0.000 HD
BRANCH   9  12
ATOM     12  C   UNL     1     -20.853  44.679 -25.486  0.00  0.00    +0.000 C 
ATOM     13  C   UNL     1     -21.209  43.534 -26.316  0.00  0.00    +0.000 C 
ATOM     14  C   UNL     1     -22.066  44.748 -26.294  0.00  0.00    +0.000 C 
BRANCH  12  15
ATOM     15  C   UNL     1     -21.000  44.523 -24.002  0.00  0.00    +0.000 C 
ATOM     16  O   UNL     1     -21.455  45.457 -23.351  0.00  0.00    +0.000 OA
ATOM     17  N   UNL     1     -20.641  43.279 -23.510  0.00  0.00    +0.000 N 
ATOM     18  H   UNL     1     -20.331  42.577 -24.175  0.00  0.00    +0.000 HD
BRANCH  17  19
ATOM     19  C   UNL     1     -20.702  42.886 -22.161  0.00  0.00    +0.000 A 
ATOM     20  C   UNL     1     -19.547  43.028 -21.390  0.00  0.00    +0.000 A 
ATOM     21  C   UNL     1     -19.544  42.656 -20.048  0.00  0.00    +0.000 A 
ATOM     22  C   UNL     1     -20.706  42.142 -19.482  0.00  0.00    +0.000 A 
ATOM     23  F   UNL     1     -20.707  41.786 -18.191  0.00  0.00    +0.000 F 
ATOM     24  C   UNL     1     -21.866  41.996 -20.233  0.00  0.00    +0.000 A 
ATOM     25  C   UNL     1     -21.859  42.370 -21.575  0.00  0.00    +0.000 A 
ENDBRANCH  17  19
ENDBRANCH  12  15
ENDBRANCH   9  12
ENDBRANCH   2   8
BRANCH   7  26
ATOM     26  O   UNL     1     -15.612  50.529 -26.190  0.00  0.00    +0.000 OA
BRANCH  26  27
ATOM     27  C   UNL     1     -15.209  51.191 -25.047  0.00  0.00    +0.000 A 
ATOM     28  C   UNL     1     -15.602  52.529 -24.884  0.00  0.00    +0.000 A 
ATOM     29  C   UNL     1     -15.237  53.179 -23.693  0.00  0.00    +0.000 A 
ATOM     30  C   UNL     1     -16.329  53.225 -25.863  0.00  0.00    +0.000 A 
ATOM     31  N   UNL     1     -14.548  52.562 -22.720  0.00  0.00    +0.000 NA
ATOM     32  C   UNL     1     -15.616  54.503 -23.530  0.00  0.00    +0.000 A 
ATOM     33  C   UNL     1     -14.200  51.269 -22.910  0.00  0.00    +0.000 A 
ATOM     34  C   UNL     1     -14.510  50.538 -24.038  0.00  0.00    +0.000 A 
ATOM     35  C   UNL     1     -16.343  55.203 -24.501  0.00  0.00    +0.000 A 
ATOM     36  C   UNL     1     -16.704  54.557 -25.685  0.00  0.00    +0.000 A 
BRANCH  36  37
ATOM     37  O   UNL     1     -17.410  55.290 -26.610  0.00  0.00    +0.000 OA
ATOM     38  C   UNL     1     -17.369  54.807 -27.925  0.00  0.00    +0.000 C 
ENDBRANCH  36  37
BRANCH  35  39
ATOM     39  O   UNL     1     -16.722  56.517 -24.358  0.00  0.00    +0.000 OA
BRANCH  39  40
ATOM     40  C   UNL     1     -16.441  57.057 -23.175  0.00  0.00    +0.000 C 
ATOM     41  C   UNL     1     -16.135  57.679 -21.808  0.00  0.00    +0.000 C 
BRANCH  41  42
ATOM     42  C   UNL     1     -15.833  58.296 -20.438  0.00  0.00    +0.000 C 
BRANCH  42  43
ATOM     43  N   UNL     1     -15.545  58.884 -19.137  0.00  0.00    +0.000 N 
ATOM     44  C   UNL     1     -16.840  58.933 -18.391  0.00  0.00    +0.000 C 
ATOM     45  C   UNL     1     -17.289  58.095 -17.150  0.00  0.00    +0.000 C 
ATOM     46  O   UNL     1     -16.718  57.125 -16.402  0.00  0.00    +0.000 OA
ATOM     47  C   UNL     1     -15.552  57.076 -17.077  0.00  0.00    +0.000 C 
ATOM     48  C   UNL     1     -14.928  57.807 -18.305  0.00  0.00    +0.000 C 
ENDBRANCH  42  43
ENDBRANCH  41  42
ENDBRANCH  39  40
ENDBRANCH  35  39
ENDBRANCH  26  27
ENDBRANCH   7  26
TORSDOF 11
ENDMDL
MODEL 6
REMARK VINA RESULT:      -6.8      4.305      5.964
REMARK  Name = Foretinib.pdbqt.pdb
REMARK  11 active torsions:
REMARK  status: ('A' for Active; 'I' for Inactive)
REMARK    1  A    between atoms: C_2  and  N_31
REMARK    2  A    between atoms: C_7  and  O_8
REMARK    3  A    between atoms: O_8  and  C_9
REMARK    4  A    between atoms: C_17  and  O_19
REMARK    5  A    between atoms: C_18  and  O_29
REMARK    6  A    between atoms: O_19  and  C_20
REMARK    7  A    between atoms: C_21  and  C_22
REMARK    8  A    between atoms: C_22  and  N_23
REMARK    9  A    between atoms: C_32  and  C_35
REMARK   10  A    between atoms: C_35  and  C_38
REMARK   11  A    between atoms: N_40  and  C_42
REMARK                            x       y       z     vdW  Elec       q    Type
REMARK                         _______ _______ _______ _____ _____    ______ ____
ROOT
ATOM      1  F   UNL     1     -35.800  46.636 -21.348  0.00  0.00    +0.000 F 
ATOM      2  C   UNL     1     -35.803  50.108 -22.401  0.00  0.00    +0.000 A 
ATOM      3  C   UNL     1     -36.092  48.744 -22.355  0.00  0.00    +0.000 A 
ATOM      4  C   UNL     1     -34.953  50.664 -21.442  0.00  0.00    +0.000 A 
ATOM      5  C   UNL     1     -35.537  47.951 -21.356  0.00  0.00    +0.000 A 
ATOM      6  C   UNL     1     -34.397  49.869 -20.442  0.00  0.00    +0.000 A 
ATOM      7  C   UNL     1     -34.709  48.513 -20.384  0.00  0.00    +0.000 A 
ENDROOT
BRANCH   2   8
ATOM      8  N   UNL     1     -36.328  50.967 -23.384  0.00  0.00    +0.000 N 
ATOM      9  C   UNL     1     -37.534  51.642 -23.300  0.00  0.00    +0.000 C 
ATOM     10  O   UNL     1     -38.337  51.577 -22.378  0.00  0.00    +0.000 OA
ATOM     11  H   UNL     1     -35.790  51.063 -24.240  0.00  0.00    +0.000 HD
BRANCH   9  12
ATOM     12  C   UNL     1     -37.867  52.475 -24.503  0.00  0.00    +0.000 C 
ATOM     13  C   UNL     1     -38.883  51.970 -25.420  0.00  0.00    +0.000 C 
ATOM     14  C   UNL     1     -37.448  51.972 -25.806  0.00  0.00    +0.000 C 
BRANCH  12  15
ATOM     15  C   UNL     1     -37.828  53.956 -24.271  0.00  0.00    +0.000 C 
ATOM     16  O   UNL     1     -37.073  54.641 -24.951  0.00  0.00    +0.000 OA
ATOM     17  N   UNL     1     -38.715  54.417 -23.314  0.00  0.00    +0.000 N 
ATOM     18  H   UNL     1     -39.324  53.740 -22.864  0.00  0.00    +0.000 HD
BRANCH  17  19
ATOM     19  C   UNL     1     -38.875  55.761 -22.929  0.00  0.00    +0.000 A 
ATOM     20  C   UNL     1     -38.093  56.232 -21.872  0.00  0.00    +0.000 A 
ATOM     21  C   UNL     1     -38.206  57.553 -21.445  0.00  0.00    +0.000 A 
ATOM     22  C   UNL     1     -39.105  58.399 -22.083  0.00  0.00    +0.000 A 
ATOM     23  F   UNL     1     -39.214  59.671 -21.675  0.00  0.00    +0.000 F 
ATOM     24  C   UNL     1     -39.891  57.949 -23.138  0.00  0.00    +0.000 A 
ATOM     25  C   UNL     1     -39.772  56.627 -23.558  0.00  0.00    +0.000 A 
ENDBRANCH  17  19
ENDBRANCH  12  15
ENDBRANCH   9  12
ENDBRANCH   2   8
BRANCH   7  26
ATOM     26  O   UNL     1     -34.082  47.766 -19.417  0.00  0.00    +0.000 OA
BRANCH  26  27
ATOM     27  C   UNL     1     -34.506  47.937 -18.113  0.00  0.00    +0.000 A 
ATOM     28  C   UNL     1     -33.987  47.079 -17.131  0.00  0.00    +0.000 A 
ATOM     29  C   UNL     1     -34.379  47.295 -15.799  0.00  0.00    +0.000 A 
ATOM     30  C   UNL     1     -33.108  46.027 -17.437  0.00  0.00    +0.000 A 
ATOM     31  N   UNL     1     -35.211  48.287 -15.447  0.00  0.00    +0.000 NA
ATOM     32  C   UNL     1     -33.874  46.446 -14.825  0.00  0.00    +0.000 A 
ATOM     33  C   UNL     1     -35.679  49.100 -16.421  0.00  0.00    +0.000 A 
ATOM     34  C   UNL     1     -35.355  48.978 -17.756  0.00  0.00    +0.000 A 
ATOM     35  C   UNL     1     -32.996  45.396 -15.123  0.00  0.00    +0.000 A 
ATOM     36  C   UNL     1     -32.608  45.181 -16.446  0.00  0.00    +0.000 A 
BRANCH  36  37
ATOM     37  O   UNL     1     -31.751  44.134 -16.688  0.00  0.00    +0.000 OA
ATOM     38  C   UNL     1     -30.482  44.486 -17.167  0.00  0.00    +0.000 C 
ENDBRANCH  36  37
BRANCH  35  39
ATOM     39  O   UNL     1     -32.491  44.542 -14.171  0.00  0.00    +0.000 OA
BRANCH  39  40
ATOM     40  C   UNL     1     -32.975  44.719 -12.943  0.00  0.00    +0.000 C 
ATOM     41  C   UNL     1     -33.531  44.940 -11.533  0.00  0.00    +0.000 C 
BRANCH  41  42
ATOM     42  C   UNL     1     -34.092  45.165 -10.124  0.00  0.00    +0.000 C 
BRANCH  42  43
ATOM     43  N   UNL     1     -34.626  45.378  -8.787  0.00  0.00    +0.000 N 
ATOM     44  C   UNL     1     -34.277  44.166  -7.985  0.00  0.00    +0.000 C 
ATOM     45  C   UNL     1     -33.253  44.028  -6.812  0.00  0.00    +0.000 C 
ATOM     46  O   UNL     1     -32.407  44.874  -6.185  0.00  0.00    +0.000 OA
ATOM     47  C   UNL     1     -32.717  45.967  -6.911  0.00  0.00    +0.000 C 
ATOM     48  C   UNL     1     -33.683  46.302  -8.088  0.00  0.00    +0.000 C 
ENDBRANCH  42  43
ENDBRANCH  41  42
ENDBRANCH  39  40
ENDBRANCH  35  39
ENDBRANCH  26  27
ENDBRANCH   7  26
TORSDOF 11
ENDMDL
MODEL 7
REMARK VINA RESULT:      -6.8      7.003     10.462
REMARK  Name = Foretinib.pdbqt.pdb
REMARK  11 active torsions:
REMARK  status: ('A' for Active; 'I' for Inactive)
REMARK    1  A    between atoms: C_2  and  N_31
REMARK    2  A    between atoms: C_7  and  O_8
REMARK    3  A    between atoms: O_8  and  C_9
REMARK    4  A    between atoms: C_17  and  O_19
REMARK    5  A    between atoms: C_18  and  O_29
REMARK    6  A    between atoms: O_19  and  C_20
REMARK    7  A    between atoms: C_21  and  C_22
REMARK    8  A    between atoms: C_22  and  N_23
REMARK    9  A    between atoms: C_32  and  C_35
REMARK   10  A    between atoms: C_35  and  C_38
REMARK   11  A    between atoms: N_40  and  C_42
REMARK                            x       y       z     vdW  Elec       q    Type
REMARK                         _______ _______ _______ _____ _____    ______ ____
ROOT
ATOM      1  F   UNL     1     -37.165  46.892 -11.768  0.00  0.00    +0.000 F 
ATOM      2  C   UNL     1     -33.946  45.589 -12.816  0.00  0.00    +0.000 A 
ATOM      3  C   UNL     1     -35.177  46.244 -12.850  0.00  0.00    +0.000 A 
ATOM      4  C   UNL     1     -33.523  44.978 -11.634  0.00  0.00    +0.000 A 
ATOM      5  C   UNL     1     -35.970  46.288 -11.707  0.00  0.00    +0.000 A 
ATOM      6  C   UNL     1     -34.318  45.021 -10.491  0.00  0.00    +0.000 A 
ATOM      7  C   UNL     1     -35.534  45.699 -10.520  0.00  0.00    +0.000 A 
ENDROOT
BRANCH   2   8
ATOM      8  N   UNL     1     -33.095  45.506 -13.934  0.00  0.00    +0.000 N 
ATOM      9  C   UNL     1     -33.350  44.778 -15.085  0.00  0.00    +0.000 C 
ATOM     10  O   UNL     1     -34.333  44.080 -15.297  0.00  0.00    +0.000 OA
ATOM     11  H   UNL     1     -32.205  45.990 -13.868  0.00  0.00    +0.000 HD
BRANCH   9  12
ATOM     12  C   UNL     1     -32.261  44.843 -16.117  0.00  0.00    +0.000 C 
ATOM     13  C   UNL     1     -31.578  43.601 -16.462  0.00  0.00    +0.000 C 
ATOM     14  C   UNL     1     -30.890  44.647 -15.660  0.00  0.00    +0.000 C 
BRANCH  12  15
ATOM     15  C   UNL     1     -32.505  45.823 -17.225  0.00  0.00    +0.000 C 
ATOM     16  O   UNL     1     -31.815  45.755 -18.236  0.00  0.00    +0.000 OA
ATOM     17  N   UNL     1     -33.553  46.701 -17.005  0.00  0.00    +0.000 N 
ATOM     18  H   UNL     1     -34.077  46.607 -16.140  0.00  0.00    +0.000 HD
BRANCH  17  19
ATOM     19  C   UNL     1     -33.983  47.699 -17.898  0.00  0.00    +0.000 A 
ATOM     20  C   UNL     1     -34.168  47.339 -19.234  0.00  0.00    +0.000 A 
ATOM     21  C   UNL     1     -34.593  48.282 -20.167  0.00  0.00    +0.000 A 
ATOM     22  C   UNL     1     -34.833  49.588 -19.752  0.00  0.00    +0.000 A 
ATOM     23  F   UNL     1     -35.244  50.497 -20.646  0.00  0.00    +0.000 F 
ATOM     24  C   UNL     1     -34.656  49.964 -18.426  0.00  0.00    +0.000 A 
ATOM     25  C   UNL     1     -34.230  49.015 -17.501  0.00  0.00    +0.000 A 
ENDBRANCH  17  19
ENDBRANCH  12  15
ENDBRANCH   9  12
ENDBRANCH   2   8
BRANCH   7  26
ATOM     26  O   UNL     1     -36.305  45.653  -9.384  0.00  0.00    +0.000 OA
BRANCH  26  27
ATOM     27  C   UNL     1     -36.735  44.410  -8.963  0.00  0.00    +0.000 A 
ATOM     28  C   UNL     1     -36.320  43.960  -7.700  0.00  0.00    +0.000 A 
ATOM     29  C   UNL     1     -36.807  42.720  -7.253  0.00  0.00    +0.000 A 
ATOM     30  C   UNL     1     -35.442  44.697  -6.888  0.00  0.00    +0.000 A 
ATOM     31  N   UNL     1     -37.652  41.975  -7.983  0.00  0.00    +0.000 NA
ATOM     32  C   UNL     1     -36.393  42.267  -6.009  0.00  0.00    +0.000 A 
ATOM     33  C   UNL     1     -38.039  42.450  -9.189  0.00  0.00    +0.000 A 
ATOM     34  C   UNL     1     -37.624  43.654  -9.719  0.00  0.00    +0.000 A 
ATOM     35  C   UNL     1     -35.520  42.997  -5.194  0.00  0.00    +0.000 A 
ATOM     36  C   UNL     1     -35.035  44.228  -5.639  0.00  0.00    +0.000 A 
BRANCH  36  37
ATOM     37  O   UNL     1     -34.175  44.903  -4.805  0.00  0.00    +0.000 OA
ATOM     38  C   UNL     1     -32.813  44.789  -5.118  0.00  0.00    +0.000 C 
ENDBRANCH  36  37
BRANCH  35  39
ATOM     39  O   UNL     1     -35.096  42.560  -3.961  0.00  0.00    +0.000 OA
BRANCH  39  40
ATOM     40  C   UNL     1     -35.037  41.238  -3.822  0.00  0.00    +0.000 C 
ATOM     41  C   UNL     1     -34.984  39.715  -3.652  0.00  0.00    +0.000 C 
BRANCH  41  42
ATOM     42  C   UNL     1     -34.937  38.193  -3.484  0.00  0.00    +0.000 C 
BRANCH  42  43
ATOM     43  N   UNL     1     -34.892  36.747  -3.322  0.00  0.00    +0.000 N 
ATOM     44  C   UNL     1     -34.163  36.203  -4.508  0.00  0.00    +0.000 C 
ATOM     45  C   UNL     1     -32.742  35.553  -4.573  0.00  0.00    +0.000 C 
ATOM     46  O   UNL     1     -31.775  35.292  -3.666  0.00  0.00    +0.000 OA
ATOM     47  C   UNL     1     -32.430  35.787  -2.596  0.00  0.00    +0.000 C 
ATOM     48  C   UNL     1     -33.813  36.457  -2.331  0.00  0.00    +0.000 C 
ENDBRANCH  42  43
ENDBRANCH  41  42
ENDBRANCH  39  40
ENDBRANCH  35  39
ENDBRANCH  26  27
ENDBRANCH   7  26
TORSDOF 11
ENDMDL
MODEL 8
REMARK VINA RESULT:      -6.8      8.505     11.784
REMARK  Name = Foretinib.pdbqt.pdb
REMARK  11 active torsions:
REMARK  status: ('A' for Active; 'I' for Inactive)
REMARK    1  A    between atoms: C_2  and  N_31
REMARK    2  A    between atoms: C_7  and  O_8
REMARK    3  A    between atoms: O_8  and  C_9
REMARK    4  A    between atoms: C_17  and  O_19
REMARK    5  A    between atoms: C_18  and  O_29
REMARK    6  A    between atoms: O_19  and  C_20
REMARK    7  A    between atoms: C_21  and  C_22
REMARK    8  A    between atoms: C_22  and  N_23
REMARK    9  A    between atoms: C_32  and  C_35
REMARK   10  A    between atoms: C_35  and  C_38
REMARK   11  A    between atoms: N_40  and  C_42
REMARK                            x       y       z     vdW  Elec       q    Type
REMARK                         _______ _______ _______ _____ _____    ______ ____
ROOT
ATOM      1  F   UNL     1     -36.468  46.528 -11.310  0.00  0.00    +0.000 F 
ATOM      2  C   UNL     1     -33.451  45.157 -12.787  0.00  0.00    +0.000 A 
ATOM      3  C   UNL     1     -34.659  45.842 -12.652  0.00  0.00    +0.000 A 
ATOM      4  C   UNL     1     -32.890  44.524 -11.675  0.00  0.00    +0.000 A 
ATOM      5  C   UNL     1     -35.291  45.894 -11.414  0.00  0.00    +0.000 A 
ATOM      6  C   UNL     1     -33.525  44.576 -10.436  0.00  0.00    +0.000 A 
ATOM      7  C   UNL     1     -34.717  45.283 -10.299  0.00  0.00    +0.000 A 
ENDROOT
BRANCH   2   8
ATOM      8  N   UNL     1     -32.759  45.064 -14.009  0.00  0.00    +0.000 N 
ATOM      9  C   UNL     1     -33.183  44.354 -15.120  0.00  0.00    +0.000 C 
ATOM     10  O   UNL     1     -34.203  43.682 -15.204  0.00  0.00    +0.000 OA
ATOM     11  H   UNL     1     -31.856  45.526 -14.058  0.00  0.00    +0.000 HD
BRANCH   9  12
ATOM     12  C   UNL     1     -32.240  44.402 -16.287  0.00  0.00    +0.000 C 
ATOM     13  C   UNL     1     -31.776  43.133 -16.837  0.00  0.00    +0.000 C 
ATOM     14  C   UNL     1     -30.858  43.999 -16.051  0.00  0.00    +0.000 C 
BRANCH  12  15
ATOM     15  C   UNL     1     -32.498  45.517 -17.255  0.00  0.00    +0.000 C 
ATOM     16  O   UNL     1     -31.710  45.691 -18.179  0.00  0.00    +0.000 OA
ATOM     17  N   UNL     1     -33.664  46.227 -17.028  0.00  0.00    +0.000 N 
ATOM     18  H   UNL     1     -34.254  45.936 -16.254  0.00  0.00    +0.000 HD
BRANCH  17  19
ATOM     19  C   UNL     1     -34.129  47.304 -17.804  0.00  0.00    +0.000 A 
ATOM     20  C   UNL     1     -33.999  48.590 -17.275  0.00  0.00    +0.000 A 
ATOM     21  C   UNL     1     -34.441  49.697 -17.995  0.00  0.00    +0.000 A 
ATOM     22  C   UNL     1     -35.011  49.510 -19.249  0.00  0.00    +0.000 A 
ATOM     23  F   UNL     1     -35.434  50.573 -19.944  0.00  0.00    +0.000 F 
ATOM     24  C   UNL     1     -35.146  48.238 -19.793  0.00  0.00    +0.000 A 
ATOM     25  C   UNL     1     -34.704  47.136 -19.066  0.00  0.00    +0.000 A 
ENDBRANCH  17  19
ENDBRANCH  12  15
ENDBRANCH   9  12
ENDBRANCH   2   8
BRANCH   7  26
ATOM     26  O   UNL     1     -35.330  45.245  -9.071  0.00  0.00    +0.000 OA
BRANCH  26  27
ATOM     27  C   UNL     1     -34.521  45.352  -7.957  0.00  0.00    +0.000 A 
ATOM     28  C   UNL     1     -34.480  44.270  -7.064  0.00  0.00    +0.000 A 
ATOM     29  C   UNL     1     -33.610  44.361  -5.963  0.00  0.00    +0.000 A 
ATOM     30  C   UNL     1     -35.272  43.123  -7.232  0.00  0.00    +0.000 A 
ATOM     31  N   UNL     1     -32.826  45.430  -5.754  0.00  0.00    +0.000 NA
ATOM     32  C   UNL     1     -33.572  43.298  -5.073  0.00  0.00    +0.000 A 
ATOM     33  C   UNL     1     -32.885  46.445  -6.645  0.00  0.00    +0.000 A 
ATOM     34  C   UNL     1     -33.698  46.455  -7.759  0.00  0.00    +0.000 A 
ATOM     35  C   UNL     1     -34.358  42.151  -5.236  0.00  0.00    +0.000 A 
ATOM     36  C   UNL     1     -35.222  42.061  -6.328  0.00  0.00    +0.000 A 
BRANCH  36  37
ATOM     37  O   UNL     1     -35.978  40.918  -6.439  0.00  0.00    +0.000 OA
ATOM     38  C   UNL     1     -37.162  41.043  -7.179  0.00  0.00    +0.000 C 
ENDBRANCH  36  37
BRANCH  35  39
ATOM     39  O   UNL     1     -34.335  41.090  -4.360  0.00  0.00    +0.000 OA
BRANCH  39  40
ATOM     40  C   UNL     1     -34.953  41.304  -3.201  0.00  0.00    +0.000 C 
ATOM     41  C   UNL     1     -35.660  41.567  -1.867  0.00  0.00    +0.000 C 
BRANCH  41  42
ATOM     42  C   UNL     1     -36.369  41.835  -0.535  0.00  0.00    +0.000 C 
BRANCH  42  43
ATOM     43  N   UNL     1     -37.044  42.092   0.730  0.00  0.00    +0.000 N 
ATOM     44  C   UNL     1     -38.261  42.900   0.413  0.00  0.00    +0.000 C 
ATOM     45  C   UNL     1     -39.764  42.477   0.482  0.00  0.00    +0.000 C 
ATOM     46  O   UNL     1     -40.417  41.342   0.813  0.00  0.00    +0.000 OA
ATOM     47  C   UNL     1     -39.320  40.610   1.094  0.00  0.00    +0.000 C 
ATOM     48  C   UNL     1     -37.778  40.841   1.088  0.00  0.00    +0.000 C 
ENDBRANCH  42  43
ENDBRANCH  41  42
ENDBRANCH  39  40
ENDBRANCH  35  39
ENDBRANCH  26  27
ENDBRANCH   7  26
TORSDOF 11
ENDMDL
MODEL 9
REMARK VINA RESULT:      -6.7     19.220     21.452
REMARK  Name = Foretinib.pdbqt.pdb
REMARK  11 active torsions:
REMARK  status: ('A' for Active; 'I' for Inactive)
REMARK    1  A    between atoms: C_2  and  N_31
REMARK    2  A    between atoms: C_7  and  O_8
REMARK    3  A    between atoms: O_8  and  C_9
REMARK    4  A    between atoms: C_17  and  O_19
REMARK    5  A    between atoms: C_18  and  O_29
REMARK    6  A    between atoms: O_19  and  C_20
REMARK    7  A    between atoms: C_21  and  C_22
REMARK    8  A    between atoms: C_22  and  N_23
REMARK    9  A    between atoms: C_32  and  C_35
REMARK   10  A    between atoms: C_35  and  C_38
REMARK   11  A    between atoms: N_40  and  C_42
REMARK                            x       y       z     vdW  Elec       q    Type
REMARK                         _______ _______ _______ _____ _____    ______ ____
ROOT
ATOM      1  F   UNL     1     -15.733  55.597 -29.844  0.00  0.00    +0.000 F 
ATOM      2  C   UNL     1     -18.557  53.511 -30.758  0.00  0.00    +0.000 A 
ATOM      3  C   UNL     1     -17.407  54.294 -30.865  0.00  0.00    +0.000 A 
ATOM      4  C   UNL     1     -19.108  53.264 -29.499  0.00  0.00    +0.000 A 
ATOM      5  C   UNL     1     -16.818  54.819 -29.719  0.00  0.00    +0.000 A 
ATOM      6  C   UNL     1     -18.517  53.791 -28.352  0.00  0.00    +0.000 A 
ATOM      7  C   UNL     1     -17.355  54.551 -28.460  0.00  0.00    +0.000 A 
ENDROOT
BRANCH   2   8
ATOM      8  N   UNL     1     -19.205  52.951 -31.875  0.00  0.00    +0.000 N 
ATOM      9  C   UNL     1     -20.338  53.461 -32.486  0.00  0.00    +0.000 C 
ATOM     10  O   UNL     1     -20.963  54.455 -32.138  0.00  0.00    +0.000 OA
ATOM     11  H   UNL     1     -18.826  52.078 -32.232  0.00  0.00    +0.000 HD
BRANCH   9  12
ATOM     12  C   UNL     1     -20.838  52.652 -33.646  0.00  0.00    +0.000 C 
ATOM     13  C   UNL     1     -20.093  51.450 -34.007  0.00  0.00    +0.000 C 
ATOM     14  C   UNL     1     -20.039  52.661 -34.867  0.00  0.00    +0.000 C 
BRANCH  12  15
ATOM     15  C   UNL     1     -22.331  52.599 -33.778  0.00  0.00    +0.000 C 
ATOM     16  O   UNL     1     -22.939  53.637 -34.016  0.00  0.00    +0.000 OA
ATOM     17  N   UNL     1     -22.880  51.334 -33.665  0.00  0.00    +0.000 N 
ATOM     18  H   UNL     1     -22.247  50.552 -33.523  0.00  0.00    +0.000 HD
BRANCH  17  19
ATOM     19  C   UNL     1     -24.249  51.026 -33.766  0.00  0.00    +0.000 A 
ATOM     20  C   UNL     1     -25.031  51.161 -32.617  0.00  0.00    +0.000 A 
ATOM     21  C   UNL     1     -26.393  50.871 -32.652  0.00  0.00    +0.000 A 
ATOM     22  C   UNL     1     -26.967  50.446 -33.845  0.00  0.00    +0.000 A 
ATOM     23  F   UNL     1     -28.277  50.169 -33.883  0.00  0.00    +0.000 F 
ATOM     24  C   UNL     1     -26.205  50.309 -34.999  0.00  0.00    +0.000 A 
ATOM     25  C   UNL     1     -24.844  50.600 -34.955  0.00  0.00    +0.000 A 
ENDBRANCH  17  19
ENDBRANCH  12  15
ENDBRANCH   9  12
ENDBRANCH   2   8
BRANCH   7  26
ATOM     26  O   UNL     1     -16.854  55.098 -27.304  0.00  0.00    +0.000 OA
BRANCH  26  27
ATOM     27  C   UNL     1     -16.309  54.229 -26.379  0.00  0.00    +0.000 A 
ATOM     28  C   UNL     1     -16.241  54.646 -25.040  0.00  0.00    +0.000 A 
ATOM     29  C   UNL     1     -15.738  53.735 -24.095  0.00  0.00    +0.000 A 
ATOM     30  C   UNL     1     -16.646  55.925 -24.628  0.00  0.00    +0.000 A 
ATOM     31  N   UNL     1     -15.341  52.498 -24.431  0.00  0.00    +0.000 NA
ATOM     32  C   UNL     1     -15.661  54.144 -22.772  0.00  0.00    +0.000 A 
ATOM     33  C   UNL     1     -15.435  52.130 -25.728  0.00  0.00    +0.000 A 
ATOM     34  C   UNL     1     -15.916  52.943 -26.733  0.00  0.00    +0.000 A 
ATOM     35  C   UNL     1     -16.065  55.419 -22.354  0.00  0.00    +0.000 A 
ATOM     36  C   UNL     1     -16.563  56.323 -23.293  0.00  0.00    +0.000 A 
BRANCH  36  37
ATOM     37  O   UNL     1     -16.940  57.563 -22.833  0.00  0.00    +0.000 OA
ATOM     38  C   UNL     1     -16.763  58.623 -23.733  0.00  0.00    +0.000 C 
ENDBRANCH  36  37
BRANCH  35  39
ATOM     39  O   UNL     1     -15.991  55.842 -21.047  0.00  0.00    +0.000 OA
BRANCH  39  40
ATOM     40  C   UNL     1     -14.985  55.326 -20.345  0.00  0.00    +0.000 C 
ATOM     41  C   UNL     1     -13.837  54.718 -19.532  0.00  0.00    +0.000 C 
BRANCH  41  42
ATOM     42  C   UNL     1     -12.690  54.105 -18.722  0.00  0.00    +0.000 C 
BRANCH  42  43
ATOM     43  N   UNL     1     -11.600  53.523 -17.952  0.00  0.00    +0.000 N 
ATOM     44  C   UNL     1     -11.633  54.167 -16.603  0.00  0.00    +0.000 C 
ATOM     45  C   UNL     1     -12.029  53.541 -15.227  0.00  0.00    +0.000 C 
ATOM     46  O   UNL     1     -12.445  52.321 -14.823  0.00  0.00    +0.000 OA
ATOM     47  C   UNL     1     -12.421  51.740 -16.040  0.00  0.00    +0.000 C 
ATOM     48  C   UNL     1     -12.065  52.180 -17.493  0.00  0.00    +0.000 C 
ENDBRANCH  42  43
ENDBRANCH  41  42
ENDBRANCH  39  40
ENDBRANCH  35  39
ENDBRANCH  26  27
ENDBRANCH   7  26
TORSDOF 11
ENDMDL
