MODEL 1
REMARK VINA RESULT:      -6.7      0.000      0.000
REMARK  Name = Fulvestrant.pdbqt.pdb
REMARK  12 active torsions:
REMARK  status: ('A' for Active; 'I' for Inactive)
REMARK    1  A    between atoms: C_6  and  O_40
REMARK    2  A    between atoms: C_8  and  C_19
REMARK    3  A    between atoms: C_18  and  O_42
REMARK    4  A    between atoms: C_20  and  C_21
REMARK    5  A    between atoms: C_22  and  C_23
REMARK    6  A    between atoms: C_23  and  C_24
REMARK    7  A    between atoms: C_25  and  C_26
REMARK    8  A    between atoms: C_27  and  S_28
REMARK    9  A    between atoms: S_28  and  C_30
REMARK   10  A    between atoms: C_30  and  C_31
REMARK   11  A    between atoms: C_32  and  C_33
REMARK   12  A    between atoms: C_33  and  C_36
REMARK                            x       y       z     vdW  Elec       q    Type
REMARK                         _______ _______ _______ _____ _____    ______ ____
ROOT
ATOM      1  C   UNL     1     -14.966  52.201 -25.437  0.00  0.00    +0.000 C 
ATOM      2  C   UNL     1     -14.031  51.270 -26.351  0.00  0.00    +0.000 C 
ATOM      3  C   UNL     1     -15.767  53.351 -25.967  0.00  0.00    +0.000 A 
ATOM      4  C   UNL     1     -16.082  53.485 -27.472  0.00  0.00    +0.000 A 
ATOM      5  C   UNL     1     -14.513  51.443 -27.717  0.00  0.00    +0.000 C 
ATOM      6  C   UNL     1     -14.291  49.857 -25.781  0.00  0.00    +0.000 C 
ATOM      7  C   UNL     1     -15.528  51.354 -24.428  0.00  0.00    +0.000 C 
ATOM      8  C   UNL     1     -16.312  54.409 -25.075  0.00  0.00    +0.000 A 
ATOM      9  C   UNL     1     -15.461  52.480 -28.250  0.00  0.00    +0.000 C 
ATOM     10  C   UNL     1     -15.140  49.914 -24.643  0.00  0.00    +0.000 C 
ATOM     11  C   UNL     1     -12.554  51.685 -26.135  0.00  0.00    +0.000 C 
ATOM     12  C   UNL     1     -16.908  54.586 -28.045  0.00  0.00    +0.000 A 
ATOM     13  C   UNL     1     -17.071  55.353 -25.807  0.00  0.00    +0.000 A 
ATOM     14  C   UNL     1     -17.427  55.564 -27.164  0.00  0.00    +0.000 A 
ATOM     15  C   UNL     1     -17.187  54.694 -29.405  0.00  0.00    +0.000 A 
ATOM     16  C   UNL     1     -18.201  56.623 -27.610  0.00  0.00    +0.000 A 
ATOM     17  C   UNL     1     -17.967  55.755 -29.869  0.00  0.00    +0.000 A 
ATOM     18  C   UNL     1     -18.463  56.704 -28.974  0.00  0.00    +0.000 A 
ENDROOT
BRANCH   8  19
ATOM     19  C   UNL     1     -15.955  54.546 -23.712  0.00  0.00    +0.000 C 
ATOM     20  C   UNL     1     -15.575  54.674 -22.234  0.00  0.00    +0.000 C 
BRANCH  20  21
ATOM     21  C   UNL     1     -15.206  54.776 -20.751  0.00  0.00    +0.000 C 
ATOM     22  C   UNL     1     -14.840  54.845 -19.265  0.00  0.00    +0.000 C 
BRANCH  22  23
ATOM     23  C   UNL     1     -14.481  54.881 -17.777  0.00  0.00    +0.000 C 
BRANCH  23  24
ATOM     24  C   UNL     1     -14.092  54.935 -16.296  0.00  0.00    +0.000 C 
ATOM     25  C   UNL     1     -13.688  55.020 -14.821  0.00  0.00    +0.000 C 
BRANCH  25  26
ATOM     26  C   UNL     1     -13.266  55.136 -13.352  0.00  0.00    +0.000 C 
ATOM     27  C   UNL     1     -12.810  55.257 -11.895  0.00  0.00    +0.000 C 
BRANCH  27  28
ATOM     28  S   UNL     1     -12.252  55.399 -10.231  0.00  0.00    +0.000 S 
ATOM     29  O   UNL     1     -11.748  56.794 -10.459  0.00  0.00    +0.000 OA
BRANCH  28  30
ATOM     30  C   UNL     1     -13.803  55.988  -9.641  0.00  0.00    +0.000 C 
BRANCH  30  31
ATOM     31  C   UNL     1     -15.146  56.496  -9.105  0.00  0.00    +0.000 C 
ATOM     32  C   UNL     1     -16.480  57.014  -8.556  0.00  0.00    +0.000 C 
BRANCH  32  33
ATOM     33  C   UNL     1     -17.751  57.513  -8.024  0.00  0.00    +0.000 C 
ATOM     34  F   UNL     1     -18.721  56.609  -8.336  0.00  0.00    +0.000 F 
ATOM     35  F   UNL     1     -18.068  58.651  -8.703  0.00  0.00    +0.000 F 
BRANCH  33  36
ATOM     36  C   UNL     1     -17.715  57.774  -6.514  0.00  0.00    +0.000 C 
ATOM     37  F   UNL     1     -16.573  57.309  -5.944  0.00  0.00    +0.000 F 
ATOM     38  F   UNL     1     -18.748  57.180  -5.867  0.00  0.00    +0.000 F 
ATOM     39  F   UNL     1     -17.784  59.100  -6.230  0.00  0.00    +0.000 F 
ENDBRANCH  33  36
ENDBRANCH  32  33
ENDBRANCH  30  31
ENDBRANCH  28  30
ENDBRANCH  27  28
ENDBRANCH  25  26
ENDBRANCH  23  24
ENDBRANCH  22  23
ENDBRANCH  20  21
ENDBRANCH   8  19
BRANCH   6  40
ATOM     40  O   UNL     1     -14.146  48.711 -26.534  0.00  0.00    +0.000 OA
ATOM     41  H   UNL     1     -14.628  48.769 -27.378  0.00  0.00    +0.000 HD
ENDBRANCH   6  40
BRANCH  18  42
ATOM     42  O   UNL     1     -19.221  57.725 -29.475  0.00  0.00    +0.000 OA
ATOM     43  H   UNL     1     -19.873  57.349 -30.092  0.00  0.00    +0.000 HD
ENDBRANCH  18  42
TORSDOF 12
ENDMDL
MODEL 2
REMARK VINA RESULT:      -6.4     22.157     24.230
REMARK  Name = Fulvestrant.pdbqt.pdb
REMARK  12 active torsions:
REMARK  status: ('A' for Active; 'I' for Inactive)
REMARK    1  A    between atoms: C_6  and  O_40
REMARK    2  A    between atoms: C_8  and  C_19
REMARK    3  A    between atoms: C_18  and  O_42
REMARK    4  A    between atoms: C_20  and  C_21
REMARK    5  A    between atoms: C_22  and  C_23
REMARK    6  A    between atoms: C_23  and  C_24
REMARK    7  A    between atoms: C_25  and  C_26
REMARK    8  A    between atoms: C_27  and  S_28
REMARK    9  A    between atoms: S_28  and  C_30
REMARK   10  A    between atoms: C_30  and  C_31
REMARK   11  A    between atoms: C_32  and  C_33
REMARK   12  A    between atoms: C_33  and  C_36
REMARK                            x       y       z     vdW  Elec       q    Type
REMARK                         _______ _______ _______ _____ _____    ______ ____
ROOT
ATOM      1  C   UNL     1     -40.525  57.315 -20.771  0.00  0.00    +0.000 C 
ATOM      2  C   UNL     1     -41.731  58.319 -21.106  0.00  0.00    +0.000 C 
ATOM      3  C   UNL     1     -39.638  56.702 -21.813  0.00  0.00    +0.000 A 
ATOM      4  C   UNL     1     -39.545  57.291 -23.236  0.00  0.00    +0.000 A 
ATOM      5  C   UNL     1     -41.447  58.850 -22.435  0.00  0.00    +0.000 C 
ATOM      6  C   UNL     1     -41.621  59.376 -19.985  0.00  0.00    +0.000 C 
ATOM      7  C   UNL     1     -39.959  57.754 -19.530  0.00  0.00    +0.000 C 
ATOM      8  C   UNL     1     -38.794  55.513 -21.526  0.00  0.00    +0.000 A 
ATOM      9  C   UNL     1     -40.437  58.370 -23.439  0.00  0.00    +0.000 C 
ATOM     10  C   UNL     1     -40.607  59.027 -19.053  0.00  0.00    +0.000 C 
ATOM     11  C   UNL     1     -43.068  57.542 -20.999  0.00  0.00    +0.000 C 
ATOM     12  C   UNL     1     -38.649  56.745 -24.295  0.00  0.00    +0.000 A 
ATOM     13  C   UNL     1     -38.013  55.158 -22.653  0.00  0.00    +0.000 A 
ATOM     14  C   UNL     1     -37.845  55.624 -23.981  0.00  0.00    +0.000 A 
ATOM     15  C   UNL     1     -38.572  57.288 -25.575  0.00  0.00    +0.000 A 
ATOM     16  C   UNL     1     -36.986  55.050 -24.905  0.00  0.00    +0.000 A 
ATOM     17  C   UNL     1     -37.711  56.721 -26.517  0.00  0.00    +0.000 A 
ATOM     18  C   UNL     1     -36.931  55.614 -26.176  0.00  0.00    +0.000 A 
ENDROOT
BRANCH   8  19
ATOM     19  C   UNL     1     -38.905  54.737 -20.348  0.00  0.00    +0.000 C 
ATOM     20  C   UNL     1     -39.005  53.892 -19.073  0.00  0.00    +0.000 C 
BRANCH  20  21
ATOM     21  C   UNL     1     -39.076  53.040 -17.803  0.00  0.00    +0.000 C 
ATOM     22  C   UNL     1     -39.151  52.214 -16.515  0.00  0.00    +0.000 C 
BRANCH  22  23
ATOM     23  C   UNL     1     -39.225  51.418 -15.209  0.00  0.00    +0.000 C 
BRANCH  23  24
ATOM     24  C   UNL     1     -39.335  50.622 -13.904  0.00  0.00    +0.000 C 
ATOM     25  C   UNL     1     -39.437  49.857 -12.581  0.00  0.00    +0.000 C 
BRANCH  25  26
ATOM     26  C   UNL     1     -39.526  49.119 -11.241  0.00  0.00    +0.000 C 
ATOM     27  C   UNL     1     -39.622  48.350  -9.920  0.00  0.00    +0.000 C 
BRANCH  27  28
ATOM     28  S   UNL     1     -39.741  47.438  -8.419  0.00  0.00    +0.000 S 
ATOM     29  O   UNL     1     -40.009  46.157  -9.152  0.00  0.00    +0.000 OA
BRANCH  28  30
ATOM     30  C   UNL     1     -38.013  47.110  -8.348  0.00  0.00    +0.000 C 
BRANCH  30  31
ATOM     31  C   UNL     1     -36.506  46.840  -8.267  0.00  0.00    +0.000 C 
ATOM     32  C   UNL     1     -34.997  46.587  -8.178  0.00  0.00    +0.000 C 
BRANCH  32  33
ATOM     33  C   UNL     1     -33.553  46.355  -8.092  0.00  0.00    +0.000 C 
ATOM     34  F   UNL     1     -32.941  47.565  -7.956  0.00  0.00    +0.000 F 
ATOM     35  F   UNL     1     -33.139  45.860  -9.292  0.00  0.00    +0.000 F 
BRANCH  33  36
ATOM     36  C   UNL     1     -33.158  45.413  -6.950  0.00  0.00    +0.000 C 
ATOM     37  F   UNL     1     -34.174  44.584  -6.600  0.00  0.00    +0.000 F 
ATOM     38  F   UNL     1     -32.797  46.088  -5.831  0.00  0.00    +0.000 F 
ATOM     39  F   UNL     1     -32.107  44.623  -7.289  0.00  0.00    +0.000 F 
ENDBRANCH  33  36
ENDBRANCH  32  33
ENDBRANCH  30  31
ENDBRANCH  28  30
ENDBRANCH  27  28
ENDBRANCH  25  26
ENDBRANCH  23  24
ENDBRANCH  22  23
ENDBRANCH  20  21
ENDBRANCH   8  19
BRANCH   6  40
ATOM     40  O   UNL     1     -42.070  60.671 -20.134  0.00  0.00    +0.000 OA
ATOM     41  H   UNL     1     -42.302  60.869 -21.059  0.00  0.00    +0.000 HD
ENDBRANCH   6  40
BRANCH  18  42
ATOM     42  O   UNL     1     -36.104  55.093 -27.130  0.00  0.00    +0.000 OA
ATOM     43  H   UNL     1     -36.323  54.152 -27.246  0.00  0.00    +0.000 HD
ENDBRANCH  18  42
TORSDOF 12
ENDMDL
MODEL 3
REMARK VINA RESULT:      -6.4     14.205     25.357
REMARK  Name = Fulvestrant.pdbqt.pdb
REMARK  12 active torsions:
REMARK  status: ('A' for Active; 'I' for Inactive)
REMARK    1  A    between atoms: C_6  and  O_40
REMARK    2  A    between atoms: C_8  and  C_19
REMARK    3  A    between atoms: C_18  and  O_42
REMARK    4  A    between atoms: C_20  and  C_21
REMARK    5  A    between atoms: C_22  and  C_23
REMARK    6  A    between atoms: C_23  and  C_24
REMARK    7  A    between atoms: C_25  and  C_26
REMARK    8  A    between atoms: C_27  and  S_28
REMARK    9  A    between atoms: S_28  and  C_30
REMARK   10  A    between atoms: C_30  and  C_31
REMARK   11  A    between atoms: C_32  and  C_33
REMARK   12  A    between atoms: C_33  and  C_36
REMARK                            x       y       z     vdW  Elec       q    Type
REMARK                         _______ _______ _______ _____ _____    ______ ____
ROOT
ATOM      1  C   UNL     1     -16.636  51.025   5.989  0.00  0.00    +0.000 C 
ATOM      2  C   UNL     1     -16.597  51.415   7.545  0.00  0.00    +0.000 C 
ATOM      3  C   UNL     1     -16.473  49.626   5.478  0.00  0.00    +0.000 A 
ATOM      4  C   UNL     1     -16.661  48.405   6.402  0.00  0.00    +0.000 A 
ATOM      5  C   UNL     1     -16.878  50.181   8.271  0.00  0.00    +0.000 C 
ATOM      6  C   UNL     1     -17.720  52.469   7.664  0.00  0.00    +0.000 C 
ATOM      7  C   UNL     1     -17.591  51.896   5.372  0.00  0.00    +0.000 C 
ATOM      8  C   UNL     1     -16.141  49.341   4.057  0.00  0.00    +0.000 A 
ATOM      9  C   UNL     1     -16.899  48.772   7.748  0.00  0.00    +0.000 C 
ATOM     10  C   UNL     1     -18.277  52.767   6.392  0.00  0.00    +0.000 C 
ATOM     11  C   UNL     1     -15.217  52.046   7.864  0.00  0.00    +0.000 C 
ATOM     12  C   UNL     1     -16.551  46.994   5.935  0.00  0.00    +0.000 A 
ATOM     13  C   UNL     1     -16.091  47.947   3.814  0.00  0.00    +0.000 A 
ATOM     14  C   UNL     1     -16.253  46.759   4.572  0.00  0.00    +0.000 A 
ATOM     15  C   UNL     1     -16.726  45.900   6.780  0.00  0.00    +0.000 A 
ATOM     16  C   UNL     1     -16.129  45.481   4.052  0.00  0.00    +0.000 A 
ATOM     17  C   UNL     1     -16.605  44.606   6.271  0.00  0.00    +0.000 A 
ATOM     18  C   UNL     1     -16.309  44.409   4.921  0.00  0.00    +0.000 A 
ENDROOT
BRANCH   8  19
ATOM     19  C   UNL     1     -15.744  50.334   3.129  0.00  0.00    +0.000 C 
ATOM     20  C   UNL     1     -15.294  51.406   2.132  0.00  0.00    +0.000 C 
BRANCH  20  21
ATOM     21  C   UNL     1     -14.817  52.476   1.147  0.00  0.00    +0.000 C 
ATOM     22  C   UNL     1     -14.326  53.563   0.185  0.00  0.00    +0.000 C 
BRANCH  22  23
ATOM     23  C   UNL     1     -13.824  54.667  -0.750  0.00  0.00    +0.000 C 
BRANCH  23  24
ATOM     24  C   UNL     1     -13.343  55.795  -1.669  0.00  0.00    +0.000 C 
ATOM     25  C   UNL     1     -12.897  56.930  -2.597  0.00  0.00    +0.000 C 
BRANCH  25  26
ATOM     26  C   UNL     1     -12.484  58.068  -3.535  0.00  0.00    +0.000 C 
ATOM     27  C   UNL     1     -12.100  59.198  -4.496  0.00  0.00    +0.000 C 
BRANCH  27  28
ATOM     28  S   UNL     1     -11.684  60.485  -5.622  0.00  0.00    +0.000 S 
ATOM     29  O   UNL     1     -10.671  59.626  -6.319  0.00  0.00    +0.000 OA
BRANCH  28  30
ATOM     30  C   UNL     1     -12.943  60.043  -6.771  0.00  0.00    +0.000 C 
BRANCH  30  31
ATOM     31  C   UNL     1     -14.052  59.650  -7.753  0.00  0.00    +0.000 C 
ATOM     32  C   UNL     1     -15.174  59.268  -8.726  0.00  0.00    +0.000 C 
BRANCH  32  33
ATOM     33  C   UNL     1     -16.252  58.909  -9.650  0.00  0.00    +0.000 C 
ATOM     34  F   UNL     1     -15.954  57.693 -10.191  0.00  0.00    +0.000 F 
ATOM     35  F   UNL     1     -16.225  59.794 -10.686  0.00  0.00    +0.000 F 
BRANCH  33  36
ATOM     36  C   UNL     1     -17.634  58.886  -8.990  0.00  0.00    +0.000 C 
ATOM     37  F   UNL     1     -17.687  59.684  -7.893  0.00  0.00    +0.000 F 
ATOM     38  F   UNL     1     -17.990  57.641  -8.589  0.00  0.00    +0.000 F 
ATOM     39  F   UNL     1     -18.604  59.318  -9.836  0.00  0.00    +0.000 F 
ENDBRANCH  33  36
ENDBRANCH  32  33
ENDBRANCH  30  31
ENDBRANCH  28  30
ENDBRANCH  27  28
ENDBRANCH  25  26
ENDBRANCH  23  24
ENDBRANCH  22  23
ENDBRANCH  20  21
ENDBRANCH   8  19
BRANCH   6  40
ATOM     40  O   UNL     1     -18.404  52.700   8.840  0.00  0.00    +0.000 OA
ATOM     41  H   UNL     1     -19.364  52.773   8.691  0.00  0.00    +0.000 HD
ENDBRANCH   6  40
BRANCH  18  42
ATOM     42  O   UNL     1     -16.200  43.124   4.469  0.00  0.00    +0.000 OA
ATOM     43  H   UNL     1     -16.486  42.523   5.179  0.00  0.00    +0.000 HD
ENDBRANCH  18  42
TORSDOF 12
ENDMDL
MODEL 4
REMARK VINA RESULT:      -6.4      2.710      4.941
REMARK  Name = Fulvestrant.pdbqt.pdb
REMARK  12 active torsions:
REMARK  status: ('A' for Active; 'I' for Inactive)
REMARK    1  A    between atoms: C_6  and  O_40
REMARK    2  A    between atoms: C_8  and  C_19
REMARK    3  A    between atoms: C_18  and  O_42
REMARK    4  A    between atoms: C_20  and  C_21
REMARK    5  A    between atoms: C_22  and  C_23
REMARK    6  A    between atoms: C_23  and  C_24
REMARK    7  A    between atoms: C_25  and  C_26
REMARK    8  A    between atoms: C_27  and  S_28
REMARK    9  A    between atoms: S_28  and  C_30
REMARK   10  A    between atoms: C_30  and  C_31
REMARK   11  A    between atoms: C_32  and  C_33
REMARK   12  A    between atoms: C_33  and  C_36
REMARK                            x       y       z     vdW  Elec       q    Type
REMARK                         _______ _______ _______ _____ _____    ______ ____
ROOT
ATOM      1  C   UNL     1     -16.028  59.140 -25.227  0.00  0.00    +0.000 C 
ATOM      2  C   UNL     1     -16.449  60.566 -25.830  0.00  0.00    +0.000 C 
ATOM      3  C   UNL     1     -16.559  57.833 -25.733  0.00  0.00    +0.000 A 
ATOM      4  C   UNL     1     -17.227  57.718 -27.119  0.00  0.00    +0.000 A 
ATOM      5  C   UNL     1     -16.975  60.293 -27.164  0.00  0.00    +0.000 C 
ATOM      6  C   UNL     1     -15.114  61.343 -25.842  0.00  0.00    +0.000 C 
ATOM      7  C   UNL     1     -14.650  59.244 -24.851  0.00  0.00    +0.000 C 
ATOM      8  C   UNL     1     -16.455  56.580 -24.938  0.00  0.00    +0.000 A 
ATOM      9  C   UNL     1     -17.350  58.969 -27.769  0.00  0.00    +0.000 C 
ATOM     10  C   UNL     1     -14.075  60.580 -25.244  0.00  0.00    +0.000 C 
ATOM     11  C   UNL     1     -17.463  61.233 -24.866  0.00  0.00    +0.000 C 
ATOM     12  C   UNL     1     -17.734  56.437 -27.685  0.00  0.00    +0.000 A 
ATOM     13  C   UNL     1     -16.983  55.478 -25.651  0.00  0.00    +0.000 A 
ATOM     14  C   UNL     1     -17.602  55.261 -26.909  0.00  0.00    +0.000 A 
ATOM     15  C   UNL     1     -18.333  56.347 -28.940  0.00  0.00    +0.000 A 
ATOM     16  C   UNL     1     -18.047  54.027 -27.355  0.00  0.00    +0.000 A 
ATOM     17  C   UNL     1     -18.787  55.110 -29.403  0.00  0.00    +0.000 A 
ATOM     18  C   UNL     1     -18.641  53.969 -28.612  0.00  0.00    +0.000 A 
ENDROOT
BRANCH   8  19
ATOM     19  C   UNL     1     -16.055  56.544 -23.580  0.00  0.00    +0.000 C 
ATOM     20  C   UNL     1     -15.643  56.508 -22.105  0.00  0.00    +0.000 C 
BRANCH  20  21
ATOM     21  C   UNL     1     -15.258  56.479 -20.624  0.00  0.00    +0.000 C 
ATOM     22  C   UNL     1     -14.859  56.421 -19.146  0.00  0.00    +0.000 C 
BRANCH  22  23
ATOM     23  C   UNL     1     -14.449  56.331 -17.673  0.00  0.00    +0.000 C 
BRANCH  23  24
ATOM     24  C   UNL     1     -14.048  56.207 -16.199  0.00  0.00    +0.000 C 
ATOM     25  C   UNL     1     -13.658  56.049 -14.727  0.00  0.00    +0.000 C 
BRANCH  25  26
ATOM     26  C   UNL     1     -13.281  55.858 -13.254  0.00  0.00    +0.000 C 
ATOM     27  C   UNL     1     -12.893  55.633 -11.789  0.00  0.00    +0.000 C 
BRANCH  27  28
ATOM     28  S   UNL     1     -12.441  55.340 -10.113  0.00  0.00    +0.000 S 
ATOM     29  O   UNL     1     -11.770  56.677 -10.001  0.00  0.00    +0.000 OA
BRANCH  28  30
ATOM     30  C   UNL     1     -13.954  55.975  -9.474  0.00  0.00    +0.000 C 
BRANCH  30  31
ATOM     31  C   UNL     1     -15.277  56.506  -8.911  0.00  0.00    +0.000 C 
ATOM     32  C   UNL     1     -16.594  57.032  -8.330  0.00  0.00    +0.000 C 
BRANCH  32  33
ATOM     33  C   UNL     1     -17.851  57.532  -7.766  0.00  0.00    +0.000 C 
ATOM     34  F   UNL     1     -18.804  56.576  -7.954  0.00  0.00    +0.000 F 
ATOM     35  F   UNL     1     -18.244  58.603  -8.511  0.00  0.00    +0.000 F 
BRANCH  33  36
ATOM     36  C   UNL     1     -17.743  57.910  -6.285  0.00  0.00    +0.000 C 
ATOM     37  F   UNL     1     -16.631  57.388  -5.707  0.00  0.00    +0.000 F 
ATOM     38  F   UNL     1     -18.805  57.470  -5.566  0.00  0.00    +0.000 F 
ATOM     39  F   UNL     1     -17.681  59.255  -6.111  0.00  0.00    +0.000 F 
ENDBRANCH  33  36
ENDBRANCH  32  33
ENDBRANCH  30  31
ENDBRANCH  28  30
ENDBRANCH  27  28
ENDBRANCH  25  26
ENDBRANCH  23  24
ENDBRANCH  22  23
ENDBRANCH  20  21
ENDBRANCH   8  19
BRANCH   6  40
ATOM     40  O   UNL     1     -14.858  62.372 -26.724  0.00  0.00    +0.000 OA
ATOM     41  H   UNL     1     -14.428  63.126 -26.283  0.00  0.00    +0.000 HD
ENDBRANCH   6  40
BRANCH  18  42
ATOM     42  O   UNL     1     -19.101  52.782 -29.108  0.00  0.00    +0.000 OA
ATOM     43  H   UNL     1     -19.690  52.380 -28.445  0.00  0.00    +0.000 HD
ENDBRANCH  18  42
TORSDOF 12
ENDMDL
MODEL 5
REMARK VINA RESULT:      -6.4      3.269      3.577
REMARK  Name = Fulvestrant.pdbqt.pdb
REMARK  12 active torsions:
REMARK  status: ('A' for Active; 'I' for Inactive)
REMARK    1  A    between atoms: C_6  and  O_40
REMARK    2  A    between atoms: C_8  and  C_19
REMARK    3  A    between atoms: C_18  and  O_42
REMARK    4  A    between atoms: C_20  and  C_21
REMARK    5  A    between atoms: C_22  and  C_23
REMARK    6  A    between atoms: C_23  and  C_24
REMARK    7  A    between atoms: C_25  and  C_26
REMARK    8  A    between atoms: C_27  and  S_28
REMARK    9  A    between atoms: S_28  and  C_30
REMARK   10  A    between atoms: C_30  and  C_31
REMARK   11  A    between atoms: C_32  and  C_33
REMARK   12  A    between atoms: C_33  and  C_36
REMARK                            x       y       z     vdW  Elec       q    Type
REMARK                         _______ _______ _______ _____ _____    ______ ____
ROOT
ATOM      1  C   UNL     1     -14.985  53.912 -24.509  0.00  0.00    +0.000 C 
ATOM      2  C   UNL     1     -13.708  53.020 -24.893  0.00  0.00    +0.000 C 
ATOM      3  C   UNL     1     -15.865  54.585 -25.519  0.00  0.00    +0.000 A 
ATOM      4  C   UNL     1     -15.866  54.150 -27.000  0.00  0.00    +0.000 A 
ATOM      5  C   UNL     1     -13.906  52.621 -26.282  0.00  0.00    +0.000 C 
ATOM      6  C   UNL     1     -13.798  51.843 -23.897  0.00  0.00    +0.000 C 
ATOM      7  C   UNL     1     -15.572  53.311 -23.349  0.00  0.00    +0.000 C 
ATOM      8  C   UNL     1     -16.790  55.687 -25.147  0.00  0.00    +0.000 A 
ATOM      9  C   UNL     1     -14.903  53.151 -27.275  0.00  0.00    +0.000 C 
ATOM     10  C   UNL     1     -14.867  52.031 -22.981  0.00  0.00    +0.000 C 
ATOM     11  C   UNL     1     -12.426  53.854 -24.643  0.00  0.00    +0.000 C 
ATOM     12  C   UNL     1     -16.750  54.757 -28.034  0.00  0.00    +0.000 A 
ATOM     13  C   UNL     1     -17.545  56.119 -26.264  0.00  0.00    +0.000 A 
ATOM     14  C   UNL     1     -17.633  55.791 -27.641  0.00  0.00    +0.000 A 
ATOM     15  C   UNL     1     -16.744  54.354 -29.368  0.00  0.00    +0.000 A 
ATOM     16  C   UNL     1     -18.488  56.413 -28.537  0.00  0.00    +0.000 A 
ATOM     17  C   UNL     1     -17.600  54.970 -30.282  0.00  0.00    +0.000 A 
ATOM     18  C   UNL     1     -18.458  55.988 -29.861  0.00  0.00    +0.000 A 
ENDROOT
BRANCH   8  19
ATOM     19  C   UNL     1     -16.773  56.335 -23.889  0.00  0.00    +0.000 C 
ATOM     20  C   UNL     1     -16.733  57.042 -22.530  0.00  0.00    +0.000 C 
BRANCH  20  21
ATOM     21  C   UNL     1     -16.664  57.753 -21.176  0.00  0.00    +0.000 C 
ATOM     22  C   UNL     1     -16.619  58.446 -19.810  0.00  0.00    +0.000 C 
BRANCH  22  23
ATOM     23  C   UNL     1     -16.602  59.121 -18.436  0.00  0.00    +0.000 C 
BRANCH  23  24
ATOM     24  C   UNL     1     -16.559  59.819 -17.072  0.00  0.00    +0.000 C 
ATOM     25  C   UNL     1     -16.528  60.485 -15.693  0.00  0.00    +0.000 C 
BRANCH  25  26
ATOM     26  C   UNL     1     -16.511  61.123 -14.300  0.00  0.00    +0.000 C 
ATOM     27  C   UNL     1     -16.495  61.795 -12.924  0.00  0.00    +0.000 C 
BRANCH  27  28
ATOM     28  S   UNL     1     -16.474  62.598 -11.357  0.00  0.00    +0.000 S 
ATOM     29  O   UNL     1     -17.930  62.945 -11.451  0.00  0.00    +0.000 OA
BRANCH  28  30
ATOM     30  C   UNL     1     -16.819  61.118 -10.467  0.00  0.00    +0.000 C 
BRANCH  30  31
ATOM     31  C   UNL     1     -17.136  59.843  -9.678  0.00  0.00    +0.000 C 
ATOM     32  C   UNL     1     -17.449  58.557  -8.905  0.00  0.00    +0.000 C 
BRANCH  32  33
ATOM     33  C   UNL     1     -17.747  57.322  -8.174  0.00  0.00    +0.000 C 
ATOM     34  F   UNL     1     -16.837  56.381  -8.551  0.00  0.00    +0.000 F 
ATOM     35  F   UNL     1     -18.957  56.866  -8.605  0.00  0.00    +0.000 F 
BRANCH  33  36
ATOM     36  C   UNL     1     -17.745  57.503  -6.653  0.00  0.00    +0.000 C 
ATOM     37  F   UNL     1     -17.820  58.811  -6.296  0.00  0.00    +0.000 F 
ATOM     38  F   UNL     1     -16.623  57.002  -6.080  0.00  0.00    +0.000 F 
ATOM     39  F   UNL     1     -18.798  56.876  -6.069  0.00  0.00    +0.000 F 
ENDBRANCH  33  36
ENDBRANCH  32  33
ENDBRANCH  30  31
ENDBRANCH  28  30
ENDBRANCH  27  28
ENDBRANCH  25  26
ENDBRANCH  23  24
ENDBRANCH  22  23
ENDBRANCH  20  21
ENDBRANCH   8  19
BRANCH   6  40
ATOM     40  O   UNL     1     -13.266  50.599 -24.162  0.00  0.00    +0.000 OA
ATOM     41  H   UNL     1     -12.341  50.530 -23.865  0.00  0.00    +0.000 HD
ENDBRANCH   6  40
BRANCH  18  42
ATOM     42  O   UNL     1     -19.277  56.563 -30.792  0.00  0.00    +0.000 OA
ATOM     43  H   UNL     1     -20.140  56.737 -30.377  0.00  0.00    +0.000 HD
ENDBRANCH  18  42
TORSDOF 12
ENDMDL
MODEL 6
REMARK VINA RESULT:      -6.3     16.363     26.369
REMARK  Name = Fulvestrant.pdbqt.pdb
REMARK  12 active torsions:
REMARK  status: ('A' for Active; 'I' for Inactive)
REMARK    1  A    between atoms: C_6  and  O_40
REMARK    2  A    between atoms: C_8  and  C_19
REMARK    3  A    between atoms: C_18  and  O_42
REMARK    4  A    between atoms: C_20  and  C_21
REMARK    5  A    between atoms: C_22  and  C_23
REMARK    6  A    between atoms: C_23  and  C_24
REMARK    7  A    between atoms: C_25  and  C_26
REMARK    8  A    between atoms: C_27  and  S_28
REMARK    9  A    between atoms: S_28  and  C_30
REMARK   10  A    between atoms: C_30  and  C_31
REMARK   11  A    between atoms: C_32  and  C_33
REMARK   12  A    between atoms: C_33  and  C_36
REMARK                            x       y       z     vdW  Elec       q    Type
REMARK                         _______ _______ _______ _____ _____    ______ ____
ROOT
ATOM      1  C   UNL     1     -15.664  46.928   5.344  0.00  0.00    +0.000 C 
ATOM      2  C   UNL     1     -16.096  46.388   6.792  0.00  0.00    +0.000 C 
ATOM      3  C   UNL     1     -16.105  48.246   4.782  0.00  0.00    +0.000 A 
ATOM      4  C   UNL     1     -16.665  49.361   5.690  0.00  0.00    +0.000 A 
ATOM      5  C   UNL     1     -16.512  47.566   7.547  0.00  0.00    +0.000 C 
ATOM      6  C   UNL     1     -14.795  45.745   7.322  0.00  0.00    +0.000 C 
ATOM      7  C   UNL     1     -14.323  46.478   5.122  0.00  0.00    +0.000 C 
ATOM      8  C   UNL     1     -16.010  48.553   3.330  0.00  0.00    +0.000 A 
ATOM      9  C   UNL     1     -16.790  48.953   7.039  0.00  0.00    +0.000 C 
ATOM     10  C   UNL     1     -13.774  45.774   6.336  0.00  0.00    +0.000 C 
ATOM     11  C   UNL     1     -17.204  45.319   6.614  0.00  0.00    +0.000 C 
ATOM     12  C   UNL     1     -17.078  50.701   5.188  0.00  0.00    +0.000 A 
ATOM     13  C   UNL     1     -16.441  49.874   3.059  0.00  0.00    +0.000 A 
ATOM     14  C   UNL     1     -16.956  50.966   3.803  0.00  0.00    +0.000 A 
ATOM     15  C   UNL     1     -17.580  51.700   6.019  0.00  0.00    +0.000 A 
ATOM     16  C   UNL     1     -17.319  52.183   3.249  0.00  0.00    +0.000 A 
ATOM     17  C   UNL     1     -17.949  52.932   5.475  0.00  0.00    +0.000 A 
ATOM     18  C   UNL     1     -17.817  53.161   4.105  0.00  0.00    +0.000 A 
ENDROOT
BRANCH   8  19
ATOM     19  C   UNL     1     -15.709  47.586   2.341  0.00  0.00    +0.000 C 
ATOM     20  C   UNL     1     -15.373  46.554   1.260  0.00  0.00    +0.000 C 
BRANCH  20  21
ATOM     21  C   UNL     1     -15.023  45.544   0.164  0.00  0.00    +0.000 C 
ATOM     22  C   UNL     1     -14.672  44.557  -0.954  0.00  0.00    +0.000 C 
BRANCH  22  23
ATOM     23  C   UNL     1     -14.324  43.596  -2.095  0.00  0.00    +0.000 C 
BRANCH  23  24
ATOM     24  C   UNL     1     -13.994  42.655  -3.258  0.00  0.00    +0.000 C 
ATOM     25  C   UNL     1     -13.684  41.736  -4.443  0.00  0.00    +0.000 C 
BRANCH  25  26
ATOM     26  C   UNL     1     -13.394  40.835  -5.649  0.00  0.00    +0.000 C 
ATOM     27  C   UNL     1     -13.142  39.931  -6.859  0.00  0.00    +0.000 C 
BRANCH  27  28
ATOM     28  S   UNL     1     -12.886  38.886  -8.252  0.00  0.00    +0.000 S 
ATOM     29  O   UNL     1     -14.267  38.309  -8.145  0.00  0.00    +0.000 OA
BRANCH  28  30
ATOM     30  C   UNL     1     -13.416  40.104  -9.407  0.00  0.00    +0.000 C 
BRANCH  30  31
ATOM     31  C   UNL     1     -13.875  41.181 -10.396  0.00  0.00    +0.000 C 
ATOM     32  C   UNL     1     -14.343  42.245 -11.395  0.00  0.00    +0.000 C 
BRANCH  32  33
ATOM     33  C   UNL     1     -14.794  43.256 -12.356  0.00  0.00    +0.000 C 
ATOM     34  F   UNL     1     -13.998  43.170 -13.459  0.00  0.00    +0.000 F 
ATOM     35  F   UNL     1     -14.552  44.482 -11.815  0.00  0.00    +0.000 F 
BRANCH  33  36
ATOM     36  C   UNL     1     -16.270  43.112 -12.739  0.00  0.00    +0.000 C 
ATOM     37  F   UNL     1     -17.093  43.661 -11.808  0.00  0.00    +0.000 F 
ATOM     38  F   UNL     1     -16.641  41.815 -12.876  0.00  0.00    +0.000 F 
ATOM     39  F   UNL     1     -16.548  43.727 -13.917  0.00  0.00    +0.000 F 
ENDBRANCH  33  36
ENDBRANCH  32  33
ENDBRANCH  30  31
ENDBRANCH  28  30
ENDBRANCH  27  28
ENDBRANCH  25  26
ENDBRANCH  23  24
ENDBRANCH  22  23
ENDBRANCH  20  21
ENDBRANCH   8  19
BRANCH   6  40
ATOM     40  O   UNL     1     -14.516  45.626   8.668  0.00  0.00    +0.000 OA
ATOM     41  H   UNL     1     -15.056  46.234   9.204  0.00  0.00    +0.000 HD
ENDBRANCH   6  40
BRANCH  18  42
ATOM     42  O   UNL     1     -18.192  54.382   3.619  0.00  0.00    +0.000 OA
ATOM     43  H   UNL     1     -17.805  54.491   2.732  0.00  0.00    +0.000 HD
ENDBRANCH  18  42
TORSDOF 12
ENDMDL
MODEL 7
REMARK VINA RESULT:      -6.3     19.746     24.844
REMARK  Name = Fulvestrant.pdbqt.pdb
REMARK  12 active torsions:
REMARK  status: ('A' for Active; 'I' for Inactive)
REMARK    1  A    between atoms: C_6  and  O_40
REMARK    2  A    between atoms: C_8  and  C_19
REMARK    3  A    between atoms: C_18  and  O_42
REMARK    4  A    between atoms: C_20  and  C_21
REMARK    5  A    between atoms: C_22  and  C_23
REMARK    6  A    between atoms: C_23  and  C_24
REMARK    7  A    between atoms: C_25  and  C_26
REMARK    8  A    between atoms: C_27  and  S_28
REMARK    9  A    between atoms: S_28  and  C_30
REMARK   10  A    between atoms: C_30  and  C_31
REMARK   11  A    between atoms: C_32  and  C_33
REMARK   12  A    between atoms: C_33  and  C_36
REMARK                            x       y       z     vdW  Elec       q    Type
REMARK                         _______ _______ _______ _____ _____    ______ ____
ROOT
ATOM      1  C   UNL     1     -13.722  46.237  -2.680  0.00  0.00    +0.000 C 
ATOM      2  C   UNL     1     -12.326  46.691  -3.328  0.00  0.00    +0.000 C 
ATOM      3  C   UNL     1     -14.074  46.439  -1.237  0.00  0.00    +0.000 A 
ATOM      4  C   UNL     1     -13.311  47.451  -0.357  0.00  0.00    +0.000 A 
ATOM      5  C   UNL     1     -11.782  47.703  -2.429  0.00  0.00    +0.000 C 
ATOM      6  C   UNL     1     -12.751  47.254  -4.702  0.00  0.00    +0.000 C 
ATOM      7  C   UNL     1     -14.723  46.429  -3.686  0.00  0.00    +0.000 C 
ATOM      8  C   UNL     1     -15.183  45.693  -0.586  0.00  0.00    +0.000 A 
ATOM      9  C   UNL     1     -12.228  48.056  -1.038  0.00  0.00    +0.000 C 
ATOM     10  C   UNL     1     -14.144  47.073  -4.919  0.00  0.00    +0.000 C 
ATOM     11  C   UNL     1     -11.429  45.439  -3.502  0.00  0.00    +0.000 C 
ATOM     12  C   UNL     1     -13.648  47.720   1.069  0.00  0.00    +0.000 A 
ATOM     13  C   UNL     1     -15.348  46.097   0.761  0.00  0.00    +0.000 A 
ATOM     14  C   UNL     1     -14.722  47.005   1.652  0.00  0.00    +0.000 A 
ATOM     15  C   UNL     1     -12.952  48.638   1.852  0.00  0.00    +0.000 A 
ATOM     16  C   UNL     1     -15.102  47.190   2.971  0.00  0.00    +0.000 A 
ATOM     17  C   UNL     1     -13.324  48.835   3.183  0.00  0.00    +0.000 A 
ATOM     18  C   UNL     1     -14.388  48.114   3.727  0.00  0.00    +0.000 A 
ENDROOT
BRANCH   8  19
ATOM     19  C   UNL     1     -15.850  44.597  -1.185  0.00  0.00    +0.000 C 
ATOM     20  C   UNL     1     -16.588  43.414  -1.820  0.00  0.00    +0.000 C 
BRANCH  20  21
ATOM     21  C   UNL     1     -17.348  42.237  -2.437  0.00  0.00    +0.000 C 
ATOM     22  C   UNL     1     -18.119  41.079  -3.078  0.00  0.00    +0.000 C 
BRANCH  22  23
ATOM     23  C   UNL     1     -18.904  39.943  -3.741  0.00  0.00    +0.000 C 
BRANCH  23  24
ATOM     24  C   UNL     1     -19.701  38.830  -4.428  0.00  0.00    +0.000 C 
ATOM     25  C   UNL     1     -20.528  37.729  -5.100  0.00  0.00    +0.000 C 
BRANCH  25  26
ATOM     26  C   UNL     1     -21.384  36.639  -5.754  0.00  0.00    +0.000 C 
ATOM     27  C   UNL     1     -22.264  35.576  -6.418  0.00  0.00    +0.000 C 
BRANCH  27  28
ATOM     28  S   UNL     1     -23.299  34.378  -7.187  0.00  0.00    +0.000 S 
ATOM     29  O   UNL     1     -24.241  34.357  -6.019  0.00  0.00    +0.000 OA
BRANCH  28  30
ATOM     30  C   UNL     1     -24.267  35.586  -8.026  0.00  0.00    +0.000 C 
BRANCH  30  31
ATOM     31  C   UNL     1     -25.089  36.645  -8.769  0.00  0.00    +0.000 C 
ATOM     32  C   UNL     1     -25.914  37.713  -9.495  0.00  0.00    +0.000 C 
BRANCH  32  33
ATOM     33  C   UNL     1     -26.704  38.739 -10.181  0.00  0.00    +0.000 C 
ATOM     34  F   UNL     1     -27.781  39.032  -9.399  0.00  0.00    +0.000 F 
ATOM     35  F   UNL     1     -27.210  38.183 -11.318  0.00  0.00    +0.000 F 
BRANCH  33  36
ATOM     36  C   UNL     1     -25.905  40.005 -10.504  0.00  0.00    +0.000 C 
ATOM     37  F   UNL     1     -24.666  39.717 -10.981  0.00  0.00    +0.000 F 
ATOM     38  F   UNL     1     -25.734  40.795  -9.415  0.00  0.00    +0.000 F 
ATOM     39  F   UNL     1     -26.521  40.764 -11.447  0.00  0.00    +0.000 F 
ENDBRANCH  33  36
ENDBRANCH  32  33
ENDBRANCH  30  31
ENDBRANCH  28  30
ENDBRANCH  27  28
ENDBRANCH  25  26
ENDBRANCH  23  24
ENDBRANCH  22  23
ENDBRANCH  20  21
ENDBRANCH   8  19
BRANCH   6  40
ATOM     40  O   UNL     1     -12.020  48.209  -5.376  0.00  0.00    +0.000 OA
ATOM     41  H   UNL     1     -11.405  48.678  -4.783  0.00  0.00    +0.000 HD
ENDBRANCH   6  40
BRANCH  18  42
ATOM     42  O   UNL     1     -14.715  48.340   5.035  0.00  0.00    +0.000 OA
ATOM     43  H   UNL     1     -14.643  47.499   5.519  0.00  0.00    +0.000 HD
ENDBRANCH  18  42
TORSDOF 12
ENDMDL
MODEL 8
REMARK VINA RESULT:      -6.2     17.700     22.089
REMARK  Name = Fulvestrant.pdbqt.pdb
REMARK  12 active torsions:
REMARK  status: ('A' for Active; 'I' for Inactive)
REMARK    1  A    between atoms: C_6  and  O_40
REMARK    2  A    between atoms: C_8  and  C_19
REMARK    3  A    between atoms: C_18  and  O_42
REMARK    4  A    between atoms: C_20  and  C_21
REMARK    5  A    between atoms: C_22  and  C_23
REMARK    6  A    between atoms: C_23  and  C_24
REMARK    7  A    between atoms: C_25  and  C_26
REMARK    8  A    between atoms: C_27  and  S_28
REMARK    9  A    between atoms: S_28  and  C_30
REMARK   10  A    between atoms: C_30  and  C_31
REMARK   11  A    between atoms: C_32  and  C_33
REMARK   12  A    between atoms: C_33  and  C_36
REMARK                            x       y       z     vdW  Elec       q    Type
REMARK                         _______ _______ _______ _____ _____    ______ ____
ROOT
ATOM      1  C   UNL     1     -13.415  47.619  -4.401  0.00  0.00    +0.000 C 
ATOM      2  C   UNL     1     -13.706  48.639  -5.605  0.00  0.00    +0.000 C 
ATOM      3  C   UNL     1     -13.303  46.135  -4.576  0.00  0.00    +0.000 A 
ATOM      4  C   UNL     1     -13.051  45.506  -5.963  0.00  0.00    +0.000 A 
ATOM      5  C   UNL     1     -13.337  47.929  -6.825  0.00  0.00    +0.000 C 
ATOM      6  C   UNL     1     -12.776  49.829  -5.281  0.00  0.00    +0.000 C 
ATOM      7  C   UNL     1     -12.531  48.293  -3.497  0.00  0.00    +0.000 C 
ATOM      8  C   UNL     1     -13.409  45.197  -3.428  0.00  0.00    +0.000 A 
ATOM      9  C   UNL     1     -13.041  46.466  -7.003  0.00  0.00    +0.000 C 
ATOM     10  C   UNL     1     -12.115  49.637  -4.038  0.00  0.00    +0.000 C 
ATOM     11  C   UNL     1     -15.193  49.072  -5.541  0.00  0.00    +0.000 C 
ATOM     12  C   UNL     1     -12.891  44.042  -6.185  0.00  0.00    +0.000 A 
ATOM     13  C   UNL     1     -13.220  43.857  -3.844  0.00  0.00    +0.000 A 
ATOM     14  C   UNL     1     -12.979  43.179  -5.067  0.00  0.00    +0.000 A 
ATOM     15  C   UNL     1     -12.662  43.486  -7.442  0.00  0.00    +0.000 A 
ATOM     16  C   UNL     1     -12.845  41.805  -5.181  0.00  0.00    +0.000 A 
ATOM     17  C   UNL     1     -12.524  42.103  -7.573  0.00  0.00    +0.000 A 
ATOM     18  C   UNL     1     -12.617  41.280  -6.450  0.00  0.00    +0.000 A 
ENDROOT
BRANCH   8  19
ATOM     19  C   UNL     1     -13.831  45.585  -2.134  0.00  0.00    +0.000 C 
ATOM     20  C   UNL     1     -14.290  46.026  -0.740  0.00  0.00    +0.000 C 
BRANCH  20  21
ATOM     21  C   UNL     1     -14.752  46.494   0.642  0.00  0.00    +0.000 C 
ATOM     22  C   UNL     1     -15.186  46.953   2.038  0.00  0.00    +0.000 C 
BRANCH  22  23
ATOM     23  C   UNL     1     -15.590  47.400   3.446  0.00  0.00    +0.000 C 
BRANCH  23  24
ATOM     24  C   UNL     1     -15.985  47.881   4.846  0.00  0.00    +0.000 C 
ATOM     25  C   UNL     1     -16.348  48.379   6.248  0.00  0.00    +0.000 C 
BRANCH  25  26
ATOM     26  C   UNL     1     -16.679  48.891   7.654  0.00  0.00    +0.000 C 
ATOM     27  C   UNL     1     -16.996  49.436   9.050  0.00  0.00    +0.000 C 
BRANCH  27  28
ATOM     28  S   UNL     1     -17.345  50.092  10.646  0.00  0.00    +0.000 S 
ATOM     29  O   UNL     1     -16.190  51.045  10.570  0.00  0.00    +0.000 OA
BRANCH  28  30
ATOM     30  C   UNL     1     -18.466  51.302  10.029  0.00  0.00    +0.000 C 
BRANCH  30  31
ATOM     31  C   UNL     1     -19.447  52.341   9.474  0.00  0.00    +0.000 C 
ATOM     32  C   UNL     1     -20.423  53.375   8.901  0.00  0.00    +0.000 C 
BRANCH  32  33
ATOM     33  C   UNL     1     -21.352  54.362   8.345  0.00  0.00    +0.000 C 
ATOM     34  F   UNL     1     -21.555  54.055   7.033  0.00  0.00    +0.000 F 
ATOM     35  F   UNL     1     -20.726  55.573   8.353  0.00  0.00    +0.000 F 
BRANCH  33  36
ATOM     36  C   UNL     1     -22.683  54.435   9.100  0.00  0.00    +0.000 C 
ATOM     37  F   UNL     1     -23.690  54.892   8.313  0.00  0.00    +0.000 F 
ATOM     38  F   UNL     1     -22.618  55.259  10.175  0.00  0.00    +0.000 F 
ATOM     39  F   UNL     1     -23.068  53.217   9.561  0.00  0.00    +0.000 F 
ENDBRANCH  33  36
ENDBRANCH  32  33
ENDBRANCH  30  31
ENDBRANCH  28  30
ENDBRANCH  27  28
ENDBRANCH  25  26
ENDBRANCH  23  24
ENDBRANCH  22  23
ENDBRANCH  20  21
ENDBRANCH   8  19
BRANCH   6  40
ATOM     40  O   UNL     1     -12.286  50.679  -6.251  0.00  0.00    +0.000 OA
ATOM     41  H   UNL     1     -12.615  50.444  -7.137  0.00  0.00    +0.000 HD
ENDBRANCH   6  40
BRANCH  18  42
ATOM     42  O   UNL     1     -12.476  39.933  -6.627  0.00  0.00    +0.000 OA
ATOM     43  H   UNL     1     -11.633  39.770  -7.085  0.00  0.00    +0.000 HD
ENDBRANCH  18  42
TORSDOF 12
ENDMDL
MODEL 9
REMARK VINA RESULT:      -6.1     13.997     20.334
REMARK  Name = Fulvestrant.pdbqt.pdb
REMARK  12 active torsions:
REMARK  status: ('A' for Active; 'I' for Inactive)
REMARK    1  A    between atoms: C_6  and  O_40
REMARK    2  A    between atoms: C_8  and  C_19
REMARK    3  A    between atoms: C_18  and  O_42
REMARK    4  A    between atoms: C_20  and  C_21
REMARK    5  A    between atoms: C_22  and  C_23
REMARK    6  A    between atoms: C_23  and  C_24
REMARK    7  A    between atoms: C_25  and  C_26
REMARK    8  A    between atoms: C_27  and  S_28
REMARK    9  A    between atoms: S_28  and  C_30
REMARK   10  A    between atoms: C_30  and  C_31
REMARK   11  A    between atoms: C_32  and  C_33
REMARK   12  A    between atoms: C_33  and  C_36
REMARK                            x       y       z     vdW  Elec       q    Type
REMARK                         _______ _______ _______ _____ _____    ______ ____
ROOT
ATOM      1  C   UNL     1     -14.103  40.426 -10.897  0.00  0.00    +0.000 C 
ATOM      2  C   UNL     1     -13.988  39.106  -9.991  0.00  0.00    +0.000 C 
ATOM      3  C   UNL     1     -14.019  41.819 -10.352  0.00  0.00    +0.000 A 
ATOM      4  C   UNL     1     -13.415  42.104  -8.961  0.00  0.00    +0.000 A 
ATOM      5  C   UNL     1     -13.323  39.526  -8.762  0.00  0.00    +0.000 C 
ATOM      6  C   UNL     1     -13.131  38.163 -10.863  0.00  0.00    +0.000 C 
ATOM      7  C   UNL     1     -13.481  40.118 -12.150  0.00  0.00    +0.000 C 
ATOM      8  C   UNL     1     -14.495  42.997 -11.126  0.00  0.00    +0.000 A 
ATOM      9  C   UNL     1     -13.061  40.921  -8.269  0.00  0.00    +0.000 C 
ATOM     10  C   UNL     1     -12.863  38.744 -12.131  0.00  0.00    +0.000 C 
ATOM     11  C   UNL     1     -15.408  38.522  -9.782  0.00  0.00    +0.000 C 
ATOM     12  C   UNL     1     -13.271  43.473  -8.391  0.00  0.00    +0.000 A 
ATOM     13  C   UNL     1     -14.261  44.200 -10.418  0.00  0.00    +0.000 A 
ATOM     14  C   UNL     1     -13.716  44.572  -9.163  0.00  0.00    +0.000 A 
ATOM     15  C   UNL     1     -12.721  43.716  -7.135  0.00  0.00    +0.000 A 
ATOM     16  C   UNL     1     -13.623  45.878  -8.711  0.00  0.00    +0.000 A 
ATOM     17  C   UNL     1     -12.620  45.027  -6.665  0.00  0.00    +0.000 A 
ATOM     18  C   UNL     1     -13.070  46.089  -7.452  0.00  0.00    +0.000 A 
ENDROOT
BRANCH   8  19
ATOM     19  C   UNL     1     -15.248  42.898 -12.321  0.00  0.00    +0.000 C 
ATOM     20  C   UNL     1     -16.077  42.778 -13.603  0.00  0.00    +0.000 C 
BRANCH  20  21
ATOM     21  C   UNL     1     -16.921  42.638 -14.873  0.00  0.00    +0.000 C 
ATOM     22  C   UNL     1     -17.787  42.519 -16.131  0.00  0.00    +0.000 C 
BRANCH  22  23
ATOM     23  C   UNL     1     -18.676  42.421 -17.375  0.00  0.00    +0.000 C 
BRANCH  23  24
ATOM     24  C   UNL     1     -19.592  42.337 -18.600  0.00  0.00    +0.000 C 
ATOM     25  C   UNL     1     -20.489  42.278 -19.840  0.00  0.00    +0.000 C 
BRANCH  25  26
ATOM     26  C   UNL     1     -21.370  42.247 -21.093  0.00  0.00    +0.000 C 
ATOM     27  C   UNL     1     -22.243  42.253 -22.352  0.00  0.00    +0.000 C 
BRANCH  27  28
ATOM     28  S   UNL     1     -23.242  42.294 -23.801  0.00  0.00    +0.000 S 
ATOM     29  O   UNL     1     -24.122  43.368 -23.233  0.00  0.00    +0.000 OA
BRANCH  28  30
ATOM     30  C   UNL     1     -22.217  43.474 -24.612  0.00  0.00    +0.000 C 
BRANCH  30  31
ATOM     31  C   UNL     1     -21.325  44.515 -25.298  0.00  0.00    +0.000 C 
ATOM     32  C   UNL     1     -20.448  45.567 -25.985  0.00  0.00    +0.000 C 
BRANCH  32  33
ATOM     33  C   UNL     1     -19.618  46.579 -26.644  0.00  0.00    +0.000 C 
ATOM     34  F   UNL     1     -20.426  47.331 -27.442  0.00  0.00    +0.000 F 
ATOM     35  F   UNL     1     -18.762  45.932 -27.484  0.00  0.00    +0.000 F 
BRANCH  33  36
ATOM     36  C   UNL     1     -18.847  47.465 -25.660  0.00  0.00    +0.000 C 
ATOM     37  F   UNL     1     -17.516  47.198 -25.669  0.00  0.00    +0.000 F 
ATOM     38  F   UNL     1     -19.273  47.302 -24.383  0.00  0.00    +0.000 F 
ATOM     39  F   UNL     1     -18.984  48.783 -25.955  0.00  0.00    +0.000 F 
ENDBRANCH  33  36
ENDBRANCH  32  33
ENDBRANCH  30  31
ENDBRANCH  28  30
ENDBRANCH  27  28
ENDBRANCH  25  26
ENDBRANCH  23  24
ENDBRANCH  22  23
ENDBRANCH  20  21
ENDBRANCH   8  19
BRANCH   6  40
ATOM     40  O   UNL     1     -12.344  37.164 -10.330  0.00  0.00    +0.000 OA
ATOM     41  H   UNL     1     -12.155  36.466 -10.983  0.00  0.00    +0.000 HD
ENDBRANCH   6  40
BRANCH  18  42
ATOM     42  O   UNL     1     -12.951  47.355  -6.950  0.00  0.00    +0.000 OA
ATOM     43  H   UNL     1     -12.410  47.880  -7.565  0.00  0.00    +0.000 HD
ENDBRANCH  18  42
TORSDOF 12
ENDMDL
