MODEL 1
REMARK VINA RESULT:      -6.1      0.000      0.000
REMARK  Name = Gefitinib.pdbqt.pdb
REMARK  6 active torsions:
REMARK  status: ('A' for Active; 'I' for Inactive)
REMARK    1  A    between atoms: C_3  and  O_11
REMARK    2  A    between atoms: C_6  and  O_21
REMARK    3  A    between atoms: O_11  and  C_12
REMARK    4  A    between atoms: C_13  and  C_14
REMARK    5  A    between atoms: C_14  and  N_15
REMARK    6  A    between atoms: N_23  and  C_25
REMARK                            x       y       z     vdW  Elec       q    Type
REMARK                         _______ _______ _______ _____ _____    ______ ____
ROOT
ATOM      1  N   UNL     1     -38.832  48.686  -9.236  0.00  0.00    +0.000 NA
ATOM      2  N   UNL     1     -37.150  47.542  -7.996  0.00  0.00    +0.000 NA
ATOM      3  C   UNL     1     -37.812  46.615 -12.696  0.00  0.00    +0.000 A 
ATOM      4  C   UNL     1     -37.465  47.048 -10.315  0.00  0.00    +0.000 A 
ATOM      5  C   UNL     1     -37.137  46.367 -11.500  0.00  0.00    +0.000 A 
ATOM      6  C   UNL     1     -38.839  47.559 -12.707  0.00  0.00    +0.000 A 
ATOM      7  C   UNL     1     -38.486  48.001 -10.326  0.00  0.00    +0.000 A 
ATOM      8  C   UNL     1     -39.153  48.233 -11.521  0.00  0.00    +0.000 A 
ATOM      9  C   UNL     1     -36.815  46.841  -9.091  0.00  0.00    +0.000 A 
ATOM     10  C   UNL     1     -38.143  48.430  -8.117  0.00  0.00    +0.000 A 
ATOM     11  N   UNL     1     -35.754  45.901  -9.025  0.00  0.00    +0.000 N 
ATOM     12  H   UNL     1     -36.007  45.033  -9.487  0.00  0.00    +0.000 HD
ENDROOT
BRANCH  11  13
ATOM     13  C   UNL     1     -34.847  45.689  -7.964  0.00  0.00    +0.000 A 
ATOM     14  C   UNL     1     -35.086  44.639  -7.069  0.00  0.00    +0.000 A 
ATOM     15  C   UNL     1     -34.167  44.326  -6.071  0.00  0.00    +0.000 A 
ATOM     16 CL   UNL     1     -34.530  43.048  -4.982  0.00  0.00    +0.000 Cl
ATOM     17  C   UNL     1     -32.980  45.044  -5.973  0.00  0.00    +0.000 A 
ATOM     18  F   UNL     1     -32.083  44.757  -5.018  0.00  0.00    +0.000 F 
ATOM     19  C   UNL     1     -32.702  46.065  -6.872  0.00  0.00    +0.000 A 
ATOM     20  C   UNL     1     -33.627  46.367  -7.869  0.00  0.00    +0.000 A 
ENDBRANCH  11  13
BRANCH   6  21
ATOM     21  O   UNL     1     -39.478  47.773 -13.906  0.00  0.00    +0.000 OA
ATOM     22  C   UNL     1     -39.938  49.077 -14.124  0.00  0.00    +0.000 C 
ENDBRANCH   6  21
BRANCH   3  23
ATOM     23  O   UNL     1     -37.521  45.970 -13.874  0.00  0.00    +0.000 OA
BRANCH  23  24
ATOM     24  C   UNL     1     -36.706  46.638 -14.687  0.00  0.00    +0.000 C 
ATOM     25  C   UNL     1     -35.760  47.393 -15.628  0.00  0.00    +0.000 C 
BRANCH  25  26
ATOM     26  C   UNL     1     -34.803  48.116 -16.581  0.00  0.00    +0.000 C 
BRANCH  26  27
ATOM     27  N   UNL     1     -33.904  48.807 -17.496  0.00  0.00    +0.000 N 
ATOM     28  C   UNL     1     -33.776  47.939 -18.706  0.00  0.00    +0.000 C 
ATOM     29  C   UNL     1     -34.333  48.178 -20.147  0.00  0.00    +0.000 C 
ATOM     30  O   UNL     1     -35.059  49.155 -20.734  0.00  0.00    +0.000 OA
ATOM     31  C   UNL     1     -35.177  49.937 -19.643  0.00  0.00    +0.000 C 
ATOM     32  C   UNL     1     -34.708  49.878 -18.158  0.00  0.00    +0.000 C 
ENDBRANCH  26  27
ENDBRANCH  25  26
ENDBRANCH  23  24
ENDBRANCH   3  23
TORSDOF 6
ENDMDL
MODEL 2
REMARK VINA RESULT:      -6.0      2.791      3.087
REMARK  Name = Gefitinib.pdbqt.pdb
REMARK  6 active torsions:
REMARK  status: ('A' for Active; 'I' for Inactive)
REMARK    1  A    between atoms: C_3  and  O_11
REMARK    2  A    between atoms: C_6  and  O_21
REMARK    3  A    between atoms: O_11  and  C_12
REMARK    4  A    between atoms: C_13  and  C_14
REMARK    5  A    between atoms: C_14  and  N_15
REMARK    6  A    between atoms: N_23  and  C_25
REMARK                            x       y       z     vdW  Elec       q    Type
REMARK                         _______ _______ _______ _____ _____    ______ ____
ROOT
ATOM      1  N   UNL     1     -39.096  48.404  -8.898  0.00  0.00    +0.000 NA
ATOM      2  N   UNL     1     -37.306  47.202  -7.882  0.00  0.00    +0.000 NA
ATOM      3  C   UNL     1     -37.749  47.367 -12.695  0.00  0.00    +0.000 A 
ATOM      4  C   UNL     1     -37.509  47.249 -10.265  0.00  0.00    +0.000 A 
ATOM      5  C   UNL     1     -37.072  46.919 -11.560  0.00  0.00    +0.000 A 
ATOM      6  C   UNL     1     -38.888  48.156 -12.534  0.00  0.00    +0.000 A 
ATOM      7  C   UNL     1     -38.643  48.049 -10.101  0.00  0.00    +0.000 A 
ATOM      8  C   UNL     1     -39.309  48.482 -11.239  0.00  0.00    +0.000 A 
ATOM      9  C   UNL     1     -36.862  46.832  -9.094  0.00  0.00    +0.000 A 
ATOM     10  C   UNL     1     -38.403  47.968  -7.839  0.00  0.00    +0.000 A 
ATOM     11  N   UNL     1     -35.692  46.036  -9.200  0.00  0.00    +0.000 N 
ATOM     12  H   UNL     1     -35.823  45.282  -9.867  0.00  0.00    +0.000 HD
ENDROOT
BRANCH  11  13
ATOM     13  C   UNL     1     -34.788  45.683  -8.175  0.00  0.00    +0.000 A 
ATOM     14  C   UNL     1     -34.930  44.442  -7.544  0.00  0.00    +0.000 A 
ATOM     15  C   UNL     1     -34.002  44.006  -6.602  0.00  0.00    +0.000 A 
ATOM     16 CL   UNL     1     -34.248  42.487  -5.837  0.00  0.00    +0.000 Cl
ATOM     17  C   UNL     1     -32.899  44.797  -6.300  0.00  0.00    +0.000 A 
ATOM     18  F   UNL     1     -31.995  44.395  -5.395  0.00  0.00    +0.000 F 
ATOM     19  C   UNL     1     -32.714  46.016  -6.939  0.00  0.00    +0.000 A 
ATOM     20  C   UNL     1     -33.648  46.441  -7.882  0.00  0.00    +0.000 A 
ENDBRANCH  11  13
BRANCH   6  21
ATOM     21  O   UNL     1     -39.524  48.577 -13.678  0.00  0.00    +0.000 OA
ATOM     22  C   UNL     1     -40.218  49.789 -13.577  0.00  0.00    +0.000 C 
ENDBRANCH   6  21
BRANCH   3  23
ATOM     23  O   UNL     1     -37.354  47.066 -13.977  0.00  0.00    +0.000 OA
BRANCH  23  24
ATOM     24  C   UNL     1     -36.185  46.436 -14.065  0.00  0.00    +0.000 C 
ATOM     25  C   UNL     1     -34.845  45.701 -14.180  0.00  0.00    +0.000 C 
BRANCH  25  26
ATOM     26  C   UNL     1     -33.516  44.951 -14.324  0.00  0.00    +0.000 C 
BRANCH  26  27
ATOM     27  N   UNL     1     -32.252  44.244 -14.475  0.00  0.00    +0.000 N 
ATOM     28  C   UNL     1     -32.531  43.048 -15.328  0.00  0.00    +0.000 C 
ATOM     29  C   UNL     1     -32.086  42.769 -16.801  0.00  0.00    +0.000 C 
ATOM     30  O   UNL     1     -31.371  43.452 -17.722  0.00  0.00    +0.000 OA
ATOM     31  C   UNL     1     -31.121  44.531 -16.954  0.00  0.00    +0.000 C 
ATOM     32  C   UNL     1     -31.465  44.988 -15.504  0.00  0.00    +0.000 C 
ENDBRANCH  26  27
ENDBRANCH  25  26
ENDBRANCH  23  24
ENDBRANCH   3  23
TORSDOF 6
ENDMDL
MODEL 3
REMARK VINA RESULT:      -5.8      3.860      4.739
REMARK  Name = Gefitinib.pdbqt.pdb
REMARK  6 active torsions:
REMARK  status: ('A' for Active; 'I' for Inactive)
REMARK    1  A    between atoms: C_3  and  O_11
REMARK    2  A    between atoms: C_6  and  O_21
REMARK    3  A    between atoms: O_11  and  C_12
REMARK    4  A    between atoms: C_13  and  C_14
REMARK    5  A    between atoms: C_14  and  N_15
REMARK    6  A    between atoms: N_23  and  C_25
REMARK                            x       y       z     vdW  Elec       q    Type
REMARK                         _______ _______ _______ _____ _____    ______ ____
ROOT
ATOM      1  N   UNL     1     -38.468  47.077 -12.313  0.00  0.00    +0.000 NA
ATOM      2  N   UNL     1     -37.096  45.704 -10.932  0.00  0.00    +0.000 NA
ATOM      3  C   UNL     1     -35.262  47.894 -14.834  0.00  0.00    +0.000 A 
ATOM      4  C   UNL     1     -36.163  46.759 -12.866  0.00  0.00    +0.000 A 
ATOM      5  C   UNL     1     -35.096  47.057 -13.731  0.00  0.00    +0.000 A 
ATOM      6  C   UNL     1     -36.521  48.442 -15.082  0.00  0.00    +0.000 A 
ATOM      7  C   UNL     1     -37.423  47.314 -13.105  0.00  0.00    +0.000 A 
ATOM      8  C   UNL     1     -37.575  48.142 -14.210  0.00  0.00    +0.000 A 
ATOM      9  C   UNL     1     -36.049  45.930 -11.742  0.00  0.00    +0.000 A 
ATOM     10  C   UNL     1     -38.257  46.285 -11.255  0.00  0.00    +0.000 A 
ATOM     11  N   UNL     1     -34.788  45.356 -11.436  0.00  0.00    +0.000 N 
ATOM     12  H   UNL     1     -34.358  44.955 -12.264  0.00  0.00    +0.000 HD
ENDROOT
BRANCH  11  13
ATOM     13  C   UNL     1     -34.409  44.669 -10.262  0.00  0.00    +0.000 A 
ATOM     14  C   UNL     1     -33.835  45.392  -9.209  0.00  0.00    +0.000 A 
ATOM     15  C   UNL     1     -33.542  44.777  -7.994  0.00  0.00    +0.000 A 
ATOM     16 CL   UNL     1     -32.808  45.709  -6.751  0.00  0.00    +0.000 Cl
ATOM     17  C   UNL     1     -33.848  43.434  -7.807  0.00  0.00    +0.000 A 
ATOM     18  F   UNL     1     -33.574  42.825  -6.644  0.00  0.00    +0.000 F 
ATOM     19  C   UNL     1     -34.453  42.704  -8.821  0.00  0.00    +0.000 A 
ATOM     20  C   UNL     1     -34.744  43.329 -10.032  0.00  0.00    +0.000 A 
ENDBRANCH  11  13
BRANCH   6  21
ATOM     21  O   UNL     1     -36.641  49.263 -16.179  0.00  0.00    +0.000 OA
ATOM     22  C   UNL     1     -37.731  49.000 -17.017  0.00  0.00    +0.000 C 
ENDBRANCH   6  21
BRANCH   3  23
ATOM     23  O   UNL     1     -34.244  48.209 -15.702  0.00  0.00    +0.000 OA
BRANCH  23  24
ATOM     24  C   UNL     1     -33.606  47.159 -16.215  0.00  0.00    +0.000 C 
ATOM     25  C   UNL     1     -32.856  45.957 -16.799  0.00  0.00    +0.000 C 
BRANCH  25  26
ATOM     26  C   UNL     1     -32.077  44.766 -17.366  0.00  0.00    +0.000 C 
BRANCH  26  27
ATOM     27  N   UNL     1     -31.346  43.632 -17.915  0.00  0.00    +0.000 N 
ATOM     28  C   UNL     1     -29.906  43.848 -17.579  0.00  0.00    +0.000 C 
ATOM     29  C   UNL     1     -29.009  43.068 -16.563  0.00  0.00    +0.000 C 
ATOM     30  O   UNL     1     -29.211  42.034 -15.717  0.00  0.00    +0.000 OA
ATOM     31  C   UNL     1     -30.510  41.840 -16.019  0.00  0.00    +0.000 C 
ATOM     32  C   UNL     1     -31.556  42.491 -16.974  0.00  0.00    +0.000 C 
ENDBRANCH  26  27
ENDBRANCH  25  26
ENDBRANCH  23  24
ENDBRANCH   3  23
TORSDOF 6
ENDMDL
MODEL 4
REMARK VINA RESULT:      -5.7      3.720      4.332
REMARK  Name = Gefitinib.pdbqt.pdb
REMARK  6 active torsions:
REMARK  status: ('A' for Active; 'I' for Inactive)
REMARK    1  A    between atoms: C_3  and  O_11
REMARK    2  A    between atoms: C_6  and  O_21
REMARK    3  A    between atoms: O_11  and  C_12
REMARK    4  A    between atoms: C_13  and  C_14
REMARK    5  A    between atoms: C_14  and  N_15
REMARK    6  A    between atoms: N_23  and  C_25
REMARK                            x       y       z     vdW  Elec       q    Type
REMARK                         _______ _______ _______ _____ _____    ______ ____
ROOT
ATOM      1  N   UNL     1     -38.228  45.422 -11.400  0.00  0.00    +0.000 NA
ATOM      2  N   UNL     1     -36.682  45.016  -9.633  0.00  0.00    +0.000 NA
ATOM      3  C   UNL     1     -35.180  46.816 -13.864  0.00  0.00    +0.000 A 
ATOM      4  C   UNL     1     -35.905  45.890 -11.721  0.00  0.00    +0.000 A 
ATOM      5  C   UNL     1     -34.896  46.372 -12.572  0.00  0.00    +0.000 A 
ATOM      6  C   UNL     1     -36.499  46.774 -14.316  0.00  0.00    +0.000 A 
ATOM      7  C   UNL     1     -37.228  45.857 -12.167  0.00  0.00    +0.000 A 
ATOM      8  C   UNL     1     -37.496  46.297 -13.457  0.00  0.00    +0.000 A 
ATOM      9  C   UNL     1     -35.674  45.438 -10.414  0.00  0.00    +0.000 A 
ATOM     10  C   UNL     1     -37.911  45.025 -10.161  0.00  0.00    +0.000 A 
ATOM     11  N   UNL     1     -34.352  45.470  -9.899  0.00  0.00    +0.000 N 
ATOM     12  H   UNL     1     -33.690  45.090 -10.568  0.00  0.00    +0.000 HD
ENDROOT
BRANCH  11  13
ATOM     13  C   UNL     1     -33.935  45.257  -8.566  0.00  0.00    +0.000 A 
ATOM     14  C   UNL     1     -34.112  43.991  -7.996  0.00  0.00    +0.000 A 
ATOM     15  C   UNL     1     -33.623  43.704  -6.724  0.00  0.00    +0.000 A 
ATOM     16 CL   UNL     1     -33.899  42.142  -6.063  0.00  0.00    +0.000 Cl
ATOM     17  C   UNL     1     -32.924  44.675  -6.016  0.00  0.00    +0.000 A 
ATOM     18  F   UNL     1     -32.445  44.418  -4.790  0.00  0.00    +0.000 F 
ATOM     19  C   UNL     1     -32.701  45.927  -6.575  0.00  0.00    +0.000 A 
ATOM     20  C   UNL     1     -33.192  46.202  -7.850  0.00  0.00    +0.000 A 
ENDBRANCH  11  13
BRANCH   6  21
ATOM     21  O   UNL     1     -36.736  47.223 -15.594  0.00  0.00    +0.000 OA
ATOM     22  C   UNL     1     -37.929  47.932 -15.777  0.00  0.00    +0.000 C 
ENDBRANCH   6  21
BRANCH   3  23
ATOM     23  O   UNL     1     -34.222  47.293 -14.725  0.00  0.00    +0.000 OA
BRANCH  23  24
ATOM     24  C   UNL     1     -33.278  46.413 -15.051  0.00  0.00    +0.000 C 
ATOM     25  C   UNL     1     -32.180  45.409 -15.418  0.00  0.00    +0.000 C 
BRANCH  25  26
ATOM     26  C   UNL     1     -31.059  44.424 -15.765  0.00  0.00    +0.000 C 
BRANCH  26  27
ATOM     27  N   UNL     1     -29.983  43.497 -16.090  0.00  0.00    +0.000 N 
ATOM     28  C   UNL     1     -30.615  42.154 -16.268  0.00  0.00    +0.000 C 
ATOM     29  C   UNL     1     -30.810  41.329 -17.581  0.00  0.00    +0.000 C 
ATOM     30  O   UNL     1     -30.509  41.530 -18.883  0.00  0.00    +0.000 OA
ATOM     31  C   UNL     1     -29.940  42.742 -18.724  0.00  0.00    +0.000 C 
ATOM     32  C   UNL     1     -29.658  43.707 -17.533  0.00  0.00    +0.000 C 
ENDBRANCH  26  27
ENDBRANCH  25  26
ENDBRANCH  23  24
ENDBRANCH   3  23
TORSDOF 6
ENDMDL
MODEL 5
REMARK VINA RESULT:      -5.7     17.052     18.979
REMARK  Name = Gefitinib.pdbqt.pdb
REMARK  6 active torsions:
REMARK  status: ('A' for Active; 'I' for Inactive)
REMARK    1  A    between atoms: C_3  and  O_11
REMARK    2  A    between atoms: C_6  and  O_21
REMARK    3  A    between atoms: O_11  and  C_12
REMARK    4  A    between atoms: C_13  and  C_14
REMARK    5  A    between atoms: C_14  and  N_15
REMARK    6  A    between atoms: N_23  and  C_25
REMARK                            x       y       z     vdW  Elec       q    Type
REMARK                         _______ _______ _______ _____ _____    ______ ____
ROOT
ATOM      1  N   UNL     1     -30.574  66.786  -4.719  0.00  0.00    +0.000 NA
ATOM      2  N   UNL     1     -30.332  65.760  -2.582  0.00  0.00    +0.000 NA
ATOM      3  C   UNL     1     -32.152  63.284  -6.317  0.00  0.00    +0.000 A 
ATOM      4  C   UNL     1     -31.253  64.514  -4.405  0.00  0.00    +0.000 A 
ATOM      5  C   UNL     1     -31.783  63.343  -4.972  0.00  0.00    +0.000 A 
ATOM      6  C   UNL     1     -31.993  64.421  -7.110  0.00  0.00    +0.000 A 
ATOM      7  C   UNL     1     -31.083  65.651  -5.199  0.00  0.00    +0.000 A 
ATOM      8  C   UNL     1     -31.459  65.580  -6.534  0.00  0.00    +0.000 A 
ATOM      9  C   UNL     1     -30.861  64.624  -3.064  0.00  0.00    +0.000 A 
ATOM     10  C   UNL     1     -30.214  66.789  -3.429  0.00  0.00    +0.000 A 
ATOM     11  N   UNL     1     -30.991  63.494  -2.215  0.00  0.00    +0.000 N 
ATOM     12  H   UNL     1     -31.901  63.058  -2.323  0.00  0.00    +0.000 HD
ENDROOT
BRANCH  11  13
ATOM     13  C   UNL     1     -30.478  63.327  -0.909  0.00  0.00    +0.000 A 
ATOM     14  C   UNL     1     -31.375  63.193   0.158  0.00  0.00    +0.000 A 
ATOM     15  C   UNL     1     -30.920  62.922   1.446  0.00  0.00    +0.000 A 
ATOM     16 CL   UNL     1     -32.065  62.801   2.720  0.00  0.00    +0.000 Cl
ATOM     17  C   UNL     1     -29.559  62.753   1.677  0.00  0.00    +0.000 A 
ATOM     18  F   UNL     1     -29.102  62.491   2.911  0.00  0.00    +0.000 F 
ATOM     19  C   UNL     1     -28.653  62.842   0.630  0.00  0.00    +0.000 A 
ATOM     20  C   UNL     1     -29.119  63.111  -0.656  0.00  0.00    +0.000 A 
ENDBRANCH  11  13
BRANCH   6  21
ATOM     21  O   UNL     1     -32.368  64.320  -8.429  0.00  0.00    +0.000 OA
ATOM     22  C   UNL     1     -33.325  65.247  -8.860  0.00  0.00    +0.000 C 
ENDBRANCH   6  21
BRANCH   3  23
ATOM     23  O   UNL     1     -32.674  62.158  -6.907  0.00  0.00    +0.000 OA
BRANCH  23  24
ATOM     24  C   UNL     1     -33.913  61.854  -6.527  0.00  0.00    +0.000 C 
ATOM     25  C   UNL     1     -35.333  61.500  -6.074  0.00  0.00    +0.000 C 
BRANCH  25  26
ATOM     26  C   UNL     1     -36.741  61.142  -5.587  0.00  0.00    +0.000 C 
BRANCH  26  27
ATOM     27  N   UNL     1     -38.083  60.816  -5.124  0.00  0.00    +0.000 N 
ATOM     28  C   UNL     1     -38.789  60.178  -6.276  0.00  0.00    +0.000 C 
ATOM     29  C   UNL     1     -39.221  58.686  -6.457  0.00  0.00    +0.000 C 
ATOM     30  O   UNL     1     -39.108  57.567  -5.707  0.00  0.00    +0.000 OA
ATOM     31  C   UNL     1     -38.470  58.142  -4.668  0.00  0.00    +0.000 C 
ATOM     32  C   UNL     1     -37.964  59.571  -4.306  0.00  0.00    +0.000 C 
ENDBRANCH  26  27
ENDBRANCH  25  26
ENDBRANCH  23  24
ENDBRANCH   3  23
TORSDOF 6
ENDMDL
MODEL 6
REMARK VINA RESULT:      -5.4     20.893     22.567
REMARK  Name = Gefitinib.pdbqt.pdb
REMARK  6 active torsions:
REMARK  status: ('A' for Active; 'I' for Inactive)
REMARK    1  A    between atoms: C_3  and  O_11
REMARK    2  A    between atoms: C_6  and  O_21
REMARK    3  A    between atoms: O_11  and  C_12
REMARK    4  A    between atoms: C_13  and  C_14
REMARK    5  A    between atoms: C_14  and  N_15
REMARK    6  A    between atoms: N_23  and  C_25
REMARK                            x       y       z     vdW  Elec       q    Type
REMARK                         _______ _______ _______ _____ _____    ______ ____
ROOT
ATOM      1  N   UNL     1     -26.496  63.614 -22.128  0.00  0.00    +0.000 NA
ATOM      2  N   UNL     1     -26.495  62.751 -24.349  0.00  0.00    +0.000 NA
ATOM      3  C   UNL     1     -30.655  63.598 -22.032  0.00  0.00    +0.000 A 
ATOM      4  C   UNL     1     -28.569  63.141 -23.223  0.00  0.00    +0.000 A 
ATOM      5  C   UNL     1     -29.974  63.153 -23.165  0.00  0.00    +0.000 A 
ATOM      6  C   UNL     1     -29.918  64.036 -20.931  0.00  0.00    +0.000 A 
ATOM      7  C   UNL     1     -27.829  63.590 -22.126  0.00  0.00    +0.000 A 
ATOM      8  C   UNL     1     -28.520  64.025 -21.003  0.00  0.00    +0.000 A 
ATOM      9  C   UNL     1     -27.837  62.711 -24.338  0.00  0.00    +0.000 A 
ATOM     10  C   UNL     1     -25.886  63.197 -23.244  0.00  0.00    +0.000 A 
ATOM     11  N   UNL     1     -28.536  62.266 -25.489  0.00  0.00    +0.000 N 
ATOM     12  H   UNL     1     -29.283  61.625 -25.239  0.00  0.00    +0.000 HD
ENDROOT
BRANCH  11  13
ATOM     13  C   UNL     1     -28.009  61.986 -26.770  0.00  0.00    +0.000 A 
ATOM     14  C   UNL     1     -27.702  63.053 -27.623  0.00  0.00    +0.000 A 
ATOM     15  C   UNL     1     -27.085  62.832 -28.852  0.00  0.00    +0.000 A 
ATOM     16 CL   UNL     1     -26.762  64.178 -29.870  0.00  0.00    +0.000 Cl
ATOM     17  C   UNL     1     -26.740  61.540 -29.230  0.00  0.00    +0.000 A 
ATOM     18  F   UNL     1     -26.145  61.307 -30.409  0.00  0.00    +0.000 F 
ATOM     19  C   UNL     1     -26.999  60.468 -28.385  0.00  0.00    +0.000 A 
ATOM     20  C   UNL     1     -27.614  60.701 -27.157  0.00  0.00    +0.000 A 
ENDBRANCH  11  13
BRANCH   6  21
ATOM     21  O   UNL     1     -30.629  64.467 -19.836  0.00  0.00    +0.000 OA
ATOM     22  C   UNL     1     -29.894  65.171 -18.874  0.00  0.00    +0.000 C 
ENDBRANCH   6  21
BRANCH   3  23
ATOM     23  O   UNL     1     -32.026  63.624 -21.938  0.00  0.00    +0.000 OA
BRANCH  23  24
ATOM     24  C   UNL     1     -32.665  63.074 -22.968  0.00  0.00    +0.000 C 
ATOM     25  C   UNL     1     -33.385  62.434 -24.160  0.00  0.00    +0.000 C 
BRANCH  25  26
ATOM     26  C   UNL     1     -34.075  61.779 -25.361  0.00  0.00    +0.000 C 
BRANCH  26  27
ATOM     27  N   UNL     1     -34.720  61.146 -26.503  0.00  0.00    +0.000 N 
ATOM     28  C   UNL     1     -34.542  62.072 -27.662  0.00  0.00    +0.000 C 
ATOM     29  C   UNL     1     -33.645  61.893 -28.931  0.00  0.00    +0.000 C 
ATOM     30  O   UNL     1     -32.798  60.935 -29.367  0.00  0.00    +0.000 OA
ATOM     31  C   UNL     1     -32.958  60.100 -28.321  0.00  0.00    +0.000 C 
ATOM     32  C   UNL     1     -33.781  60.095 -26.998  0.00  0.00    +0.000 C 
ENDBRANCH  26  27
ENDBRANCH  25  26
ENDBRANCH  23  24
ENDBRANCH   3  23
TORSDOF 6
ENDMDL
MODEL 7
REMARK VINA RESULT:      -5.2     20.047     23.251
REMARK  Name = Gefitinib.pdbqt.pdb
REMARK  6 active torsions:
REMARK  status: ('A' for Active; 'I' for Inactive)
REMARK    1  A    between atoms: C_3  and  O_11
REMARK    2  A    between atoms: C_6  and  O_21
REMARK    3  A    between atoms: O_11  and  C_12
REMARK    4  A    between atoms: C_13  and  C_14
REMARK    5  A    between atoms: C_14  and  N_15
REMARK    6  A    between atoms: N_23  and  C_25
REMARK                            x       y       z     vdW  Elec       q    Type
REMARK                         _______ _______ _______ _____ _____    ______ ____
ROOT
ATOM      1  N   UNL     1     -25.988  63.429 -27.354  0.00  0.00    +0.000 NA
ATOM      2  N   UNL     1     -28.009  62.179 -27.180  0.00  0.00    +0.000 NA
ATOM      3  C   UNL     1     -25.683  63.675 -23.213  0.00  0.00    +0.000 A 
ATOM      4  C   UNL     1     -26.872  62.888 -25.199  0.00  0.00    +0.000 A 
ATOM      5  C   UNL     1     -26.748  62.992 -23.803  0.00  0.00    +0.000 A 
ATOM      6  C   UNL     1     -24.721  64.262 -24.034  0.00  0.00    +0.000 A 
ATOM      7  C   UNL     1     -25.916  63.485 -26.024  0.00  0.00    +0.000 A 
ATOM      8  C   UNL     1     -24.859  64.156 -25.423  0.00  0.00    +0.000 A 
ATOM      9  C   UNL     1     -27.924  62.221 -25.841  0.00  0.00    +0.000 A 
ATOM     10  C   UNL     1     -27.038  62.782 -27.876  0.00  0.00    +0.000 A 
ATOM     11  N   UNL     1     -28.937  61.615 -25.054  0.00  0.00    +0.000 N 
ATOM     12  H   UNL     1     -28.535  61.075 -24.293  0.00  0.00    +0.000 HD
ENDROOT
BRANCH  11  13
ATOM     13  C   UNL     1     -30.168  61.078 -25.489  0.00  0.00    +0.000 A 
ATOM     14  C   UNL     1     -31.259  61.938 -25.663  0.00  0.00    +0.000 A 
ATOM     15  C   UNL     1     -32.462  61.472 -26.189  0.00  0.00    +0.000 A 
ATOM     16 CL   UNL     1     -33.775  62.568 -26.348  0.00  0.00    +0.000 Cl
ATOM     17  C   UNL     1     -32.579  60.142 -26.575  0.00  0.00    +0.000 A 
ATOM     18  F   UNL     1     -33.729  59.675 -27.084  0.00  0.00    +0.000 F 
ATOM     19  C   UNL     1     -31.500  59.277 -26.449  0.00  0.00    +0.000 A 
ATOM     20  C   UNL     1     -30.300  59.754 -25.924  0.00  0.00    +0.000 A 
ENDBRANCH  11  13
BRANCH   6  21
ATOM     21  O   UNL     1     -23.689  64.926 -23.412  0.00  0.00    +0.000 OA
ATOM     22  C   UNL     1     -22.418  64.364 -23.580  0.00  0.00    +0.000 C 
ENDBRANCH   6  21
BRANCH   3  23
ATOM     23  O   UNL     1     -25.527  63.798 -21.853  0.00  0.00    +0.000 OA
BRANCH  23  24
ATOM     24  C   UNL     1     -26.662  63.945 -21.174  0.00  0.00    +0.000 C 
ATOM     25  C   UNL     1     -27.974  64.126 -20.403  0.00  0.00    +0.000 C 
BRANCH  25  26
ATOM     26  C   UNL     1     -29.299  64.327 -19.659  0.00  0.00    +0.000 C 
BRANCH  26  27
ATOM     27  N   UNL     1     -30.558  64.505 -18.949  0.00  0.00    +0.000 N 
ATOM     28  C   UNL     1     -30.216  64.628 -17.499  0.00  0.00    +0.000 C 
ATOM     29  C   UNL     1     -30.299  65.888 -16.576  0.00  0.00    +0.000 C 
ATOM     30  O   UNL     1     -30.664  67.176 -16.759  0.00  0.00    +0.000 OA
ATOM     31  C   UNL     1     -30.971  67.065 -18.067  0.00  0.00    +0.000 C 
ATOM     32  C   UNL     1     -30.958  65.931 -19.136  0.00  0.00    +0.000 C 
ENDBRANCH  26  27
ENDBRANCH  25  26
ENDBRANCH  23  24
ENDBRANCH   3  23
TORSDOF 6
ENDMDL
MODEL 8
REMARK VINA RESULT:      -5.2     25.046     27.712
REMARK  Name = Gefitinib.pdbqt.pdb
REMARK  6 active torsions:
REMARK  status: ('A' for Active; 'I' for Inactive)
REMARK    1  A    between atoms: C_3  and  O_11
REMARK    2  A    between atoms: C_6  and  O_21
REMARK    3  A    between atoms: O_11  and  C_12
REMARK    4  A    between atoms: C_13  and  C_14
REMARK    5  A    between atoms: C_14  and  N_15
REMARK    6  A    between atoms: N_23  and  C_25
REMARK                            x       y       z     vdW  Elec       q    Type
REMARK                         _______ _______ _______ _____ _____    ______ ____
ROOT
ATOM      1  N   UNL     1     -16.199  45.148   4.912  0.00  0.00    +0.000 NA
ATOM      2  N   UNL     1     -16.171  47.226   3.747  0.00  0.00    +0.000 NA
ATOM      3  C   UNL     1     -16.711  47.097   8.551  0.00  0.00    +0.000 A 
ATOM      4  C   UNL     1     -16.458  47.195   6.122  0.00  0.00    +0.000 A 
ATOM      5  C   UNL     1     -16.625  47.827   7.366  0.00  0.00    +0.000 A 
ATOM      6  C   UNL     1     -16.633  45.705   8.493  0.00  0.00    +0.000 A 
ATOM      7  C   UNL     1     -16.370  45.802   6.061  0.00  0.00    +0.000 A 
ATOM      8  C   UNL     1     -16.462  45.087   7.248  0.00  0.00    +0.000 A 
ATOM      9  C   UNL     1     -16.360  47.881   4.904  0.00  0.00    +0.000 A 
ATOM     10  C   UNL     1     -16.102  45.891   3.803  0.00  0.00    +0.000 A 
ATOM     11  N   UNL     1     -16.421  49.298   4.907  0.00  0.00    +0.000 N 
ATOM     12  H   UNL     1     -17.188  49.630   5.484  0.00  0.00    +0.000 HD
ENDROOT
BRANCH  11  13
ATOM     13  C   UNL     1     -16.145  50.181   3.839  0.00  0.00    +0.000 A 
ATOM     14  C   UNL     1     -14.817  50.547   3.589  0.00  0.00    +0.000 A 
ATOM     15  C   UNL     1     -14.486  51.330   2.485  0.00  0.00    +0.000 A 
ATOM     16 CL   UNL     1     -12.844  51.775   2.250  0.00  0.00    +0.000 Cl
ATOM     17  C   UNL     1     -15.479  51.732   1.599  0.00  0.00    +0.000 A 
ATOM     18  F   UNL     1     -15.179  52.485   0.531  0.00  0.00    +0.000 F 
ATOM     19  C   UNL     1     -16.798  51.349   1.803  0.00  0.00    +0.000 A 
ATOM     20  C   UNL     1     -17.118  50.564   2.908  0.00  0.00    +0.000 A 
ENDBRANCH  11  13
BRANCH   6  21
ATOM     21  O   UNL     1     -16.721  45.024   9.684  0.00  0.00    +0.000 OA
ATOM     22  C   UNL     1     -17.857  44.221   9.842  0.00  0.00    +0.000 C 
ENDBRANCH   6  21
BRANCH   3  23
ATOM     23  O   UNL     1     -16.874  47.678   9.786  0.00  0.00    +0.000 OA
BRANCH  23  24
ATOM     24  C   UNL     1     -17.365  48.915   9.757  0.00  0.00    +0.000 C 
ATOM     25  C   UNL     1     -17.916  50.344   9.715  0.00  0.00    +0.000 C 
BRANCH  25  26
ATOM     26  C   UNL     1     -18.441  51.783   9.651  0.00  0.00    +0.000 C 
BRANCH  26  27
ATOM     27  N   UNL     1     -18.954  53.144   9.590  0.00  0.00    +0.000 N 
ATOM     28  C   UNL     1     -18.947  53.539   8.148  0.00  0.00    +0.000 C 
ATOM     29  C   UNL     1     -20.159  53.761   7.186  0.00  0.00    +0.000 C 
ATOM     30  O   UNL     1     -21.501  53.672   7.315  0.00  0.00    +0.000 OA
ATOM     31  C   UNL     1     -21.509  53.315   8.615  0.00  0.00    +0.000 C 
ATOM     32  C   UNL     1     -20.439  53.050   9.717  0.00  0.00    +0.000 C 
ENDBRANCH  26  27
ENDBRANCH  25  26
ENDBRANCH  23  24
ENDBRANCH   3  23
TORSDOF 6
ENDMDL
MODEL 9
REMARK VINA RESULT:      -5.2     22.598     24.794
REMARK  Name = Gefitinib.pdbqt.pdb
REMARK  6 active torsions:
REMARK  status: ('A' for Active; 'I' for Inactive)
REMARK    1  A    between atoms: C_3  and  O_11
REMARK    2  A    between atoms: C_6  and  O_21
REMARK    3  A    between atoms: O_11  and  C_12
REMARK    4  A    between atoms: C_13  and  C_14
REMARK    5  A    between atoms: C_14  and  N_15
REMARK    6  A    between atoms: N_23  and  C_25
REMARK                            x       y       z     vdW  Elec       q    Type
REMARK                         _______ _______ _______ _____ _____    ______ ____
ROOT
ATOM      1  N   UNL     1     -15.379  57.323 -19.719  0.00  0.00    +0.000 NA
ATOM      2  N   UNL     1     -16.688  58.785 -18.367  0.00  0.00    +0.000 NA
ATOM      3  C   UNL     1     -14.666  54.820 -16.474  0.00  0.00    +0.000 A 
ATOM      4  C   UNL     1     -15.716  56.822 -17.405  0.00  0.00    +0.000 A 
ATOM      5  C   UNL     1     -15.454  55.962 -16.325  0.00  0.00    +0.000 A 
ATOM      6  C   UNL     1     -14.133  54.528 -17.730  0.00  0.00    +0.000 A 
ATOM      7  C   UNL     1     -15.175  56.538 -18.661  0.00  0.00    +0.000 A 
ATOM      8  C   UNL     1     -14.397  55.395 -18.797  0.00  0.00    +0.000 A 
ATOM      9  C   UNL     1     -16.495  57.983 -17.307  0.00  0.00    +0.000 A 
ATOM     10  C   UNL     1     -16.124  58.418 -19.524  0.00  0.00    +0.000 A 
ATOM     11  N   UNL     1     -17.052  58.334 -16.050  0.00  0.00    +0.000 N 
ATOM     12  H   UNL     1     -17.487  57.531 -15.607  0.00  0.00    +0.000 HD
ENDROOT
BRANCH  11  13
ATOM     13  C   UNL     1     -17.686  59.543 -15.690  0.00  0.00    +0.000 A 
ATOM     14  C   UNL     1     -16.895  60.657 -15.385  0.00  0.00    +0.000 A 
ATOM     15  C   UNL     1     -17.474  61.897 -15.126  0.00  0.00    +0.000 A 
ATOM     16 CL   UNL     1     -16.454  63.220 -14.726  0.00  0.00    +0.000 Cl
ATOM     17  C   UNL     1     -18.854  62.045 -15.197  0.00  0.00    +0.000 A 
ATOM     18  F   UNL     1     -19.431  63.230 -14.951  0.00  0.00    +0.000 F 
ATOM     19  C   UNL     1     -19.659  60.964 -15.535  0.00  0.00    +0.000 A 
ATOM     20  C   UNL     1     -19.069  59.729 -15.795  0.00  0.00    +0.000 A 
ENDBRANCH  11  13
BRANCH   6  21
ATOM     21  O   UNL     1     -13.361  53.395 -17.833  0.00  0.00    +0.000 OA
ATOM     22  C   UNL     1     -12.162  53.539 -18.540  0.00  0.00    +0.000 C 
ENDBRANCH   6  21
BRANCH   3  23
ATOM     23  O   UNL     1     -14.387  53.955 -15.443  0.00  0.00    +0.000 OA
BRANCH  23  24
ATOM     24  C   UNL     1     -14.233  54.537 -14.256  0.00  0.00    +0.000 C 
ATOM     25  C   UNL     1     -14.053  55.223 -12.897  0.00  0.00    +0.000 C 
BRANCH  25  26
ATOM     26  C   UNL     1     -13.870  55.939 -11.555  0.00  0.00    +0.000 C 
BRANCH  26  27
ATOM     27  N   UNL     1     -13.700  56.633 -10.285  0.00  0.00    +0.000 N 
ATOM     28  C   UNL     1     -13.716  58.095 -10.592  0.00  0.00    +0.000 C 
ATOM     29  C   UNL     1     -14.812  59.157 -10.252  0.00  0.00    +0.000 C 
ATOM     30  O   UNL     1     -16.011  59.117  -9.629  0.00  0.00    +0.000 OA
ATOM     31  C   UNL     1     -15.998  57.798  -9.353  0.00  0.00    +0.000 C 
ATOM     32  C   UNL     1     -15.027  56.604  -9.600  0.00  0.00    +0.000 C 
ENDBRANCH  26  27
ENDBRANCH  25  26
ENDBRANCH  23  24
ENDBRANCH   3  23
TORSDOF 6
ENDMDL
