MODEL 1
REMARK VINA RESULT:      -6.5      0.000      0.000
REMARK  Name = Genistein.pdbqt.pdb
REMARK  4 active torsions:
REMARK  status: ('A' for Active; 'I' for Inactive)
REMARK    1  A    between atoms: C_4  and  C_12
REMARK    2  A    between atoms: C_7  and  O_20
REMARK    3  A    between atoms: C_11  and  O_22
REMARK    4  A    between atoms: C_17  and  O_18
REMARK                            x       y       z     vdW  Elec       q    Type
REMARK                         _______ _______ _______ _____ _____    ______ ____
ROOT
ATOM      1  O   UNL     1     -36.093  46.408  -7.197  0.00  0.00    +0.000 OA
ATOM      2  O   UNL     1     -33.530  44.984 -10.181  0.00  0.00    +0.000 OA
ATOM      3  C   UNL     1     -33.981  45.289  -7.867  0.00  0.00    +0.000 A 
ATOM      4  C   UNL     1     -35.613  46.083  -9.645  0.00  0.00    +0.000 A 
ATOM      5  C   UNL     1     -34.885  45.789  -6.883  0.00  0.00    +0.000 A 
ATOM      6  C   UNL     1     -34.307  45.414  -9.337  0.00  0.00    +0.000 A 
ATOM      7  C   UNL     1     -32.791  44.682  -7.456  0.00  0.00    +0.000 A 
ATOM      8  C   UNL     1     -36.163  46.405  -8.517  0.00  0.00    +0.000 A 
ATOM      9  C   UNL     1     -34.584  45.675  -5.528  0.00  0.00    +0.000 A 
ATOM     10  C   UNL     1     -32.497  44.571  -6.098  0.00  0.00    +0.000 A 
ATOM     11  C   UNL     1     -33.392  45.065  -5.151  0.00  0.00    +0.000 A 
ENDROOT
BRANCH   4  12
ATOM     12  C   UNL     1     -36.177  46.337 -10.969  0.00  0.00    +0.000 A 
ATOM     13  C   UNL     1     -35.472  46.005 -12.129  0.00  0.00    +0.000 A 
ATOM     14  C   UNL     1     -37.442  46.921 -11.104  0.00  0.00    +0.000 A 
ATOM     15  C   UNL     1     -36.009  46.246 -13.392  0.00  0.00    +0.000 A 
ATOM     16  C   UNL     1     -37.991  47.168 -12.361  0.00  0.00    +0.000 A 
ATOM     17  C   UNL     1     -37.268  46.827 -13.497  0.00  0.00    +0.000 A 
BRANCH  17  18
ATOM     18  O   UNL     1     -37.822  47.076 -14.718  0.00  0.00    +0.000 OA
ATOM     19  H   UNL     1     -38.001  48.031 -14.782  0.00  0.00    +0.000 HD
ENDBRANCH  17  18
ENDBRANCH   4  12
BRANCH   7  20
ATOM     20  O   UNL     1     -31.866  44.174  -8.326  0.00  0.00    +0.000 OA
ATOM     21  H   UNL     1     -31.583  44.890  -8.940  0.00  0.00    +0.000 HD
ENDBRANCH   7  20
BRANCH  11  22
ATOM     22  O   UNL     1     -33.115  44.962  -3.818  0.00  0.00    +0.000 OA
ATOM     23  H   UNL     1     -33.667  44.250  -3.447  0.00  0.00    +0.000 HD
ENDBRANCH  11  22
TORSDOF 4
ENDMDL
MODEL 2
REMARK VINA RESULT:      -6.3      6.885      9.874
REMARK  Name = Genistein.pdbqt.pdb
REMARK  4 active torsions:
REMARK  status: ('A' for Active; 'I' for Inactive)
REMARK    1  A    between atoms: C_4  and  C_12
REMARK    2  A    between atoms: C_7  and  O_20
REMARK    3  A    between atoms: C_11  and  O_22
REMARK    4  A    between atoms: C_17  and  O_18
REMARK                            x       y       z     vdW  Elec       q    Type
REMARK                         _______ _______ _______ _____ _____    ______ ____
ROOT
ATOM      1  O   UNL     1     -32.382  45.978 -18.382  0.00  0.00    +0.000 OA
ATOM      2  O   UNL     1     -32.499  44.928 -14.333  0.00  0.00    +0.000 OA
ATOM      3  C   UNL     1     -33.196  46.391 -16.073  0.00  0.00    +0.000 A 
ATOM      4  C   UNL     1     -31.647  44.432 -16.539  0.00  0.00    +0.000 A 
ATOM      5  C   UNL     1     -33.127  46.713 -17.461  0.00  0.00    +0.000 A 
ATOM      6  C   UNL     1     -32.440  45.203 -15.526  0.00  0.00    +0.000 A 
ATOM      7  C   UNL     1     -33.971  47.188 -15.225  0.00  0.00    +0.000 A 
ATOM      8  C   UNL     1     -31.817  45.006 -17.688  0.00  0.00    +0.000 A 
ATOM      9  C   UNL     1     -33.824  47.808 -17.965  0.00  0.00    +0.000 A 
ATOM     10  C   UNL     1     -34.665  48.282 -15.737  0.00  0.00    +0.000 A 
ATOM     11  C   UNL     1     -34.586  48.581 -17.095  0.00  0.00    +0.000 A 
ENDROOT
BRANCH   4  12
ATOM     12  C   UNL     1     -30.827  43.248 -16.292  0.00  0.00    +0.000 A 
ATOM     13  C   UNL     1     -29.435  43.339 -16.208  0.00  0.00    +0.000 A 
ATOM     14  C   UNL     1     -31.422  41.991 -16.132  0.00  0.00    +0.000 A 
ATOM     15  C   UNL     1     -28.652  42.210 -15.972  0.00  0.00    +0.000 A 
ATOM     16  C   UNL     1     -30.650  40.854 -15.896  0.00  0.00    +0.000 A 
ATOM     17  C   UNL     1     -29.269  40.974 -15.818  0.00  0.00    +0.000 A 
BRANCH  17  18
ATOM     18  O   UNL     1     -28.531  39.850 -15.586  0.00  0.00    +0.000 OA
ATOM     19  H   UNL     1     -28.509  39.326 -16.406  0.00  0.00    +0.000 HD
ENDBRANCH  17  18
ENDBRANCH   4  12
BRANCH   7  20
ATOM     20  O   UNL     1     -34.096  46.956 -13.882  0.00  0.00    +0.000 OA
ATOM     21  H   UNL     1     -33.808  47.761 -13.394  0.00  0.00    +0.000 HD
ENDBRANCH   7  20
BRANCH  11  22
ATOM     22  O   UNL     1     -35.262  49.650 -17.608  0.00  0.00    +0.000 OA
ATOM     23  H   UNL     1     -34.875  50.462 -17.235  0.00  0.00    +0.000 HD
ENDBRANCH  11  22
TORSDOF 4
ENDMDL
MODEL 3
REMARK VINA RESULT:      -6.2      6.577      9.453
REMARK  Name = Genistein.pdbqt.pdb
REMARK  4 active torsions:
REMARK  status: ('A' for Active; 'I' for Inactive)
REMARK    1  A    between atoms: C_4  and  C_12
REMARK    2  A    between atoms: C_7  and  O_20
REMARK    3  A    between atoms: C_11  and  O_22
REMARK    4  A    between atoms: C_17  and  O_18
REMARK                            x       y       z     vdW  Elec       q    Type
REMARK                         _______ _______ _______ _____ _____    ______ ____
ROOT
ATOM      1  O   UNL     1     -34.078  46.021 -14.342  0.00  0.00    +0.000 OA
ATOM      2  O   UNL     1     -32.038  45.945 -17.994  0.00  0.00    +0.000 OA
ATOM      3  C   UNL     1     -33.644  46.990 -16.586  0.00  0.00    +0.000 A 
ATOM      4  C   UNL     1     -32.379  44.918 -15.835  0.00  0.00    +0.000 A 
ATOM      5  C   UNL     1     -34.315  46.977 -15.328  0.00  0.00    +0.000 A 
ATOM      6  C   UNL     1     -32.614  45.934 -16.913  0.00  0.00    +0.000 A 
ATOM      7  C   UNL     1     -33.948  47.991 -17.513  0.00  0.00    +0.000 A 
ATOM      8  C   UNL     1     -33.157  45.215 -14.842  0.00  0.00    +0.000 A 
ATOM      9  C   UNL     1     -35.264  47.950 -15.026  0.00  0.00    +0.000 A 
ATOM     10  C   UNL     1     -34.900  48.962 -17.204  0.00  0.00    +0.000 A 
ATOM     11  C   UNL     1     -35.545  48.933 -15.970  0.00  0.00    +0.000 A 
ENDROOT
BRANCH   4  12
ATOM     12  C   UNL     1     -31.448  43.793 -15.879  0.00  0.00    +0.000 A 
ATOM     13  C   UNL     1     -31.901  42.476 -15.762  0.00  0.00    +0.000 A 
ATOM     14  C   UNL     1     -30.075  44.011 -16.043  0.00  0.00    +0.000 A 
ATOM     15  C   UNL     1     -31.014  41.402 -15.805  0.00  0.00    +0.000 A 
ATOM     16  C   UNL     1     -29.176  42.946 -16.088  0.00  0.00    +0.000 A 
ATOM     17  C   UNL     1     -29.655  41.648 -15.968  0.00  0.00    +0.000 A 
BRANCH  17  18
ATOM     18  O   UNL     1     -28.761  40.619 -16.014  0.00  0.00    +0.000 OA
ATOM     19  H   UNL     1     -29.184  39.830 -15.632  0.00  0.00    +0.000 HD
ENDBRANCH  17  18
ENDBRANCH   4  12
BRANCH   7  20
ATOM     20  O   UNL     1     -33.356  48.083 -18.743  0.00  0.00    +0.000 OA
ATOM     21  H   UNL     1     -34.050  48.271 -19.415  0.00  0.00    +0.000 HD
ENDBRANCH   7  20
BRANCH  11  22
ATOM     22  O   UNL     1     -36.478  49.879 -15.656  0.00  0.00    +0.000 OA
ATOM     23  H   UNL     1     -37.045  49.524 -14.948  0.00  0.00    +0.000 HD
ENDBRANCH  11  22
TORSDOF 4
ENDMDL
MODEL 4
REMARK VINA RESULT:      -6.1     25.250     27.504
REMARK  Name = Genistein.pdbqt.pdb
REMARK  4 active torsions:
REMARK  status: ('A' for Active; 'I' for Inactive)
REMARK    1  A    between atoms: C_4  and  C_12
REMARK    2  A    between atoms: C_7  and  O_20
REMARK    3  A    between atoms: C_11  and  O_22
REMARK    4  A    between atoms: C_17  and  O_18
REMARK                            x       y       z     vdW  Elec       q    Type
REMARK                         _______ _______ _______ _____ _____    ______ ____
ROOT
ATOM      1  O   UNL     1     -17.237  57.120 -27.849  0.00  0.00    +0.000 OA
ATOM      2  O   UNL     1     -17.932  53.091 -26.957  0.00  0.00    +0.000 OA
ATOM      3  C   UNL     1     -18.164  54.904 -28.478  0.00  0.00    +0.000 A 
ATOM      4  C   UNL     1     -16.994  55.199 -26.242  0.00  0.00    +0.000 A 
ATOM      5  C   UNL     1     -17.905  56.282 -28.740  0.00  0.00    +0.000 A 
ATOM      6  C   UNL     1     -17.709  54.275 -27.181  0.00  0.00    +0.000 A 
ATOM      7  C   UNL     1     -18.841  54.142 -29.434  0.00  0.00    +0.000 A 
ATOM      8  C   UNL     1     -16.941  56.365 -26.804  0.00  0.00    +0.000 A 
ATOM      9  C   UNL     1     -18.324  56.862 -29.934  0.00  0.00    +0.000 A 
ATOM     10  C   UNL     1     -19.258  54.730 -30.627  0.00  0.00    +0.000 A 
ATOM     11  C   UNL     1     -18.996  56.077 -30.866  0.00  0.00    +0.000 A 
ENDROOT
BRANCH   4  12
ATOM     12  C   UNL     1     -16.450  54.864 -24.928  0.00  0.00    +0.000 A 
ATOM     13  C   UNL     1     -15.859  53.620 -24.687  0.00  0.00    +0.000 A 
ATOM     14  C   UNL     1     -16.508  55.786 -23.877  0.00  0.00    +0.000 A 
ATOM     15  C   UNL     1     -15.339  53.300 -23.434  0.00  0.00    +0.000 A 
ATOM     16  C   UNL     1     -15.993  55.478 -22.618  0.00  0.00    +0.000 A 
ATOM     17  C   UNL     1     -15.411  54.235 -22.408  0.00  0.00    +0.000 A 
BRANCH  17  18
ATOM     18  O   UNL     1     -14.912  53.953 -21.170  0.00  0.00    +0.000 OA
ATOM     19  H   UNL     1     -13.945  54.067 -21.199  0.00  0.00    +0.000 HD
ENDBRANCH  17  18
ENDBRANCH   4  12
BRANCH   7  20
ATOM     20  O   UNL     1     -19.133  52.815 -29.270  0.00  0.00    +0.000 OA
ATOM     21  H   UNL     1     -19.891  52.733 -28.647  0.00  0.00    +0.000 HD
ENDBRANCH   7  20
BRANCH  11  22
ATOM     22  O   UNL     1     -19.399  56.663 -32.031  0.00  0.00    +0.000 OA
ATOM     23  H   UNL     1     -20.170  57.226 -31.838  0.00  0.00    +0.000 HD
ENDBRANCH  11  22
TORSDOF 4
ENDMDL
MODEL 5
REMARK VINA RESULT:      -6.0     22.485     24.089
REMARK  Name = Genistein.pdbqt.pdb
REMARK  4 active torsions:
REMARK  status: ('A' for Active; 'I' for Inactive)
REMARK    1  A    between atoms: C_4  and  C_12
REMARK    2  A    between atoms: C_7  and  O_20
REMARK    3  A    between atoms: C_11  and  O_22
REMARK    4  A    between atoms: C_17  and  O_18
REMARK                            x       y       z     vdW  Elec       q    Type
REMARK                         _______ _______ _______ _____ _____    ______ ____
ROOT
ATOM      1  O   UNL     1     -30.141  64.724 -24.215  0.00  0.00    +0.000 OA
ATOM      2  O   UNL     1     -31.806  61.076 -25.409  0.00  0.00    +0.000 OA
ATOM      3  C   UNL     1     -32.009  63.090 -24.162  0.00  0.00    +0.000 A 
ATOM      4  C   UNL     1     -29.929  62.592 -25.534  0.00  0.00    +0.000 A 
ATOM      5  C   UNL     1     -31.402  64.324 -23.780  0.00  0.00    +0.000 A 
ATOM      6  C   UNL     1     -31.284  62.136 -25.082  0.00  0.00    +0.000 A 
ATOM      7  C   UNL     1     -33.280  62.774 -23.674  0.00  0.00    +0.000 A 
ATOM      8  C   UNL     1     -29.706  63.749 -24.995  0.00  0.00    +0.000 A 
ATOM      9  C   UNL     1     -32.070  65.203 -22.932  0.00  0.00    +0.000 A 
ATOM     10  C   UNL     1     -33.942  63.659 -22.825  0.00  0.00    +0.000 A 
ATOM     11  C   UNL     1     -33.334  64.860 -22.464  0.00  0.00    +0.000 A 
ENDROOT
BRANCH   4  12
ATOM     12  C   UNL     1     -29.014  61.876 -26.419  0.00  0.00    +0.000 A 
ATOM     13  C   UNL     1     -27.995  61.070 -25.905  0.00  0.00    +0.000 A 
ATOM     14  C   UNL     1     -29.140  61.981 -27.809  0.00  0.00    +0.000 A 
ATOM     15  C   UNL     1     -27.122  60.386 -26.748  0.00  0.00    +0.000 A 
ATOM     16  C   UNL     1     -28.272  61.302 -28.665  0.00  0.00    +0.000 A 
ATOM     17  C   UNL     1     -27.269  60.509 -28.125  0.00  0.00    +0.000 A 
BRANCH  17  18
ATOM     18  O   UNL     1     -26.431  59.852 -28.978  0.00  0.00    +0.000 OA
ATOM     19  H   UNL     1     -25.637  60.401 -29.108  0.00  0.00    +0.000 HD
ENDBRANCH  17  18
ENDBRANCH   4  12
BRANCH   7  20
ATOM     20  O   UNL     1     -33.939  61.616 -23.986  0.00  0.00    +0.000 OA
ATOM     21  H   UNL     1     -34.570  61.406 -23.259  0.00  0.00    +0.000 HD
ENDBRANCH   7  20
BRANCH  11  22
ATOM     22  O   UNL     1     -33.973  65.735 -21.633  0.00  0.00    +0.000 OA
ATOM     23  H   UNL     1     -33.844  66.635 -21.982  0.00  0.00    +0.000 HD
ENDBRANCH  11  22
TORSDOF 4
ENDMDL
MODEL 6
REMARK VINA RESULT:      -5.9     20.437     22.421
REMARK  Name = Genistein.pdbqt.pdb
REMARK  4 active torsions:
REMARK  status: ('A' for Active; 'I' for Inactive)
REMARK    1  A    between atoms: C_4  and  C_12
REMARK    2  A    between atoms: C_7  and  O_20
REMARK    3  A    between atoms: C_11  and  O_22
REMARK    4  A    between atoms: C_17  and  O_18
REMARK                            x       y       z     vdW  Elec       q    Type
REMARK                         _______ _______ _______ _____ _____    ______ ____
ROOT
ATOM      1  O   UNL     1     -11.771  47.104  -4.537  0.00  0.00    +0.000 OA
ATOM      2  O   UNL     1     -15.944  47.394  -4.609  0.00  0.00    +0.000 OA
ATOM      3  C   UNL     1     -13.834  48.310  -5.210  0.00  0.00    +0.000 A 
ATOM      4  C   UNL     1     -14.006  46.137  -3.904  0.00  0.00    +0.000 A 
ATOM      5  C   UNL     1     -12.415  48.171  -5.160  0.00  0.00    +0.000 A 
ATOM      6  C   UNL     1     -14.725  47.274  -4.567  0.00  0.00    +0.000 A 
ATOM      7  C   UNL     1     -14.390  49.416  -5.859  0.00  0.00    +0.000 A 
ATOM      8  C   UNL     1     -12.735  46.339  -4.054  0.00  0.00    +0.000 A 
ATOM      9  C   UNL     1     -11.594  49.127  -5.752  0.00  0.00    +0.000 A 
ATOM     10  C   UNL     1     -13.561  50.368  -6.449  0.00  0.00    +0.000 A 
ATOM     11  C   UNL     1     -12.177  50.216  -6.391  0.00  0.00    +0.000 A 
ENDROOT
BRANCH   4  12
ATOM     12  C   UNL     1     -14.611  45.003  -3.209  0.00  0.00    +0.000 A 
ATOM     13  C   UNL     1     -15.736  45.170  -2.398  0.00  0.00    +0.000 A 
ATOM     14  C   UNL     1     -14.073  43.718  -3.342  0.00  0.00    +0.000 A 
ATOM     15  C   UNL     1     -16.314  44.089  -1.735  0.00  0.00    +0.000 A 
ATOM     16  C   UNL     1     -14.641  42.627  -2.684  0.00  0.00    +0.000 A 
ATOM     17  C   UNL     1     -15.759  42.824  -1.885  0.00  0.00    +0.000 A 
BRANCH  17  18
ATOM     18  O   UNL     1     -16.301  41.745  -1.250  0.00  0.00    +0.000 OA
ATOM     19  H   UNL     1     -16.765  42.061  -0.455  0.00  0.00    +0.000 HD
ENDBRANCH  17  18
ENDBRANCH   4  12
BRANCH   7  20
ATOM     20  O   UNL     1     -15.738  49.632  -5.957  0.00  0.00    +0.000 OA
ATOM     21  H   UNL     1     -16.089  49.100  -6.706  0.00  0.00    +0.000 HD
ENDBRANCH   7  20
BRANCH  11  22
ATOM     22  O   UNL     1     -11.355  51.142  -6.966  0.00  0.00    +0.000 OA
ATOM     23  H   UNL     1     -11.364  51.942  -6.411  0.00  0.00    +0.000 HD
ENDBRANCH  11  22
TORSDOF 4
ENDMDL
MODEL 7
REMARK VINA RESULT:      -5.7      1.460      6.785
REMARK  Name = Genistein.pdbqt.pdb
REMARK  4 active torsions:
REMARK  status: ('A' for Active; 'I' for Inactive)
REMARK    1  A    between atoms: C_4  and  C_12
REMARK    2  A    between atoms: C_7  and  O_20
REMARK    3  A    between atoms: C_11  and  O_22
REMARK    4  A    between atoms: C_17  and  O_18
REMARK                            x       y       z     vdW  Elec       q    Type
REMARK                         _______ _______ _______ _____ _____    ______ ____
ROOT
ATOM      1  O   UNL     1     -36.368  46.598 -10.521  0.00  0.00    +0.000 OA
ATOM      2  O   UNL     1     -32.990  44.141 -10.273  0.00  0.00    +0.000 OA
ATOM      3  C   UNL     1     -34.606  45.242 -11.626  0.00  0.00    +0.000 A 
ATOM      4  C   UNL     1     -34.656  45.432  -9.093  0.00  0.00    +0.000 A 
ATOM      5  C   UNL     1     -35.758  46.083 -11.663  0.00  0.00    +0.000 A 
ATOM      6  C   UNL     1     -33.980  44.863 -10.304  0.00  0.00    +0.000 A 
ATOM      7  C   UNL     1     -34.064  44.773 -12.826  0.00  0.00    +0.000 A 
ATOM      8  C   UNL     1     -35.660  46.141  -9.502  0.00  0.00    +0.000 A 
ATOM      9  C   UNL     1     -36.336  46.431 -12.881  0.00  0.00    +0.000 A 
ATOM     10  C   UNL     1     -34.648  45.126 -14.041  0.00  0.00    +0.000 A 
ATOM     11  C   UNL     1     -35.773  45.949 -14.058  0.00  0.00    +0.000 A 
ENDROOT
BRANCH   4  12
ATOM     12  C   UNL     1     -34.268  45.231  -7.698  0.00  0.00    +0.000 A 
ATOM     13  C   UNL     1     -35.007  44.395  -6.856  0.00  0.00    +0.000 A 
ATOM     14  C   UNL     1     -33.142  45.875  -7.173  0.00  0.00    +0.000 A 
ATOM     15  C   UNL     1     -34.637  44.203  -5.527  0.00  0.00    +0.000 A 
ATOM     16  C   UNL     1     -32.762  45.692  -5.844  0.00  0.00    +0.000 A 
ATOM     17  C   UNL     1     -33.515  44.856  -5.031  0.00  0.00    +0.000 A 
BRANCH  17  18
ATOM     18  O   UNL     1     -33.126  44.689  -3.734  0.00  0.00    +0.000 OA
ATOM     19  H   UNL     1     -32.523  45.417  -3.501  0.00  0.00    +0.000 HD
ENDBRANCH  17  18
ENDBRANCH   4  12
BRANCH   7  20
ATOM     20  O   UNL     1     -32.962  43.963 -12.888  0.00  0.00    +0.000 OA
ATOM     21  H   UNL     1     -33.061  43.355 -13.656  0.00  0.00    +0.000 HD
ENDBRANCH   7  20
BRANCH  11  22
ATOM     22  O   UNL     1     -36.353  46.302 -15.242  0.00  0.00    +0.000 OA
ATOM     23  H   UNL     1     -36.535  47.258 -15.218  0.00  0.00    +0.000 HD
ENDBRANCH  11  22
TORSDOF 4
ENDMDL
MODEL 8
REMARK VINA RESULT:      -5.7      1.738      2.400
REMARK  Name = Genistein.pdbqt.pdb
REMARK  4 active torsions:
REMARK  status: ('A' for Active; 'I' for Inactive)
REMARK    1  A    between atoms: C_4  and  C_12
REMARK    2  A    between atoms: C_7  and  O_20
REMARK    3  A    between atoms: C_11  and  O_22
REMARK    4  A    between atoms: C_17  and  O_18
REMARK                            x       y       z     vdW  Elec       q    Type
REMARK                         _______ _______ _______ _____ _____    ______ ____
ROOT
ATOM      1  O   UNL     1     -36.206  46.467  -9.442  0.00  0.00    +0.000 OA
ATOM      2  O   UNL     1     -32.881  44.378 -10.888  0.00  0.00    +0.000 OA
ATOM      3  C   UNL     1     -34.073  45.266  -9.031  0.00  0.00    +0.000 A 
ATOM      4  C   UNL     1     -34.943  45.526 -11.404  0.00  0.00    +0.000 A 
ATOM      5  C   UNL     1     -35.222  45.983  -8.583  0.00  0.00    +0.000 A 
ATOM      6  C   UNL     1     -33.869  44.993 -10.503  0.00  0.00    +0.000 A 
ATOM      7  C   UNL     1     -33.138  44.818  -8.094  0.00  0.00    +0.000 A 
ATOM      8  C   UNL     1     -35.822  46.117 -10.658  0.00  0.00    +0.000 A 
ATOM      9  C   UNL     1     -35.409  46.234  -7.227  0.00  0.00    +0.000 A 
ATOM     10  C   UNL     1     -33.333  45.073  -6.737  0.00  0.00    +0.000 A 
ATOM     11  C   UNL     1     -34.461  45.775  -6.318  0.00  0.00    +0.000 A 
ENDROOT
BRANCH   4  12
ATOM     12  C   UNL     1     -35.003  45.410 -12.860  0.00  0.00    +0.000 A 
ATOM     13  C   UNL     1     -35.540  44.275 -13.473  0.00  0.00    +0.000 A 
ATOM     14  C   UNL     1     -34.523  46.441 -13.676  0.00  0.00    +0.000 A 
ATOM     15  C   UNL     1     -35.598  44.164 -14.860  0.00  0.00    +0.000 A 
ATOM     16  C   UNL     1     -34.574  46.343 -15.066  0.00  0.00    +0.000 A 
ATOM     17  C   UNL     1     -35.113  45.203 -15.646  0.00  0.00    +0.000 A 
BRANCH  17  18
ATOM     18  O   UNL     1     -35.155  45.126 -17.008  0.00  0.00    +0.000 OA
ATOM     19  H   UNL     1     -35.946  44.617 -17.260  0.00  0.00    +0.000 HD
ENDBRANCH  17  18
ENDBRANCH   4  12
BRANCH   7  20
ATOM     20  O   UNL     1     -32.008  44.123  -8.430  0.00  0.00    +0.000 OA
ATOM     21  H   UNL     1     -31.581  43.797  -7.605  0.00  0.00    +0.000 HD
ENDBRANCH   7  20
BRANCH  11  22
ATOM     22  O   UNL     1     -34.663  46.031  -4.992  0.00  0.00    +0.000 OA
ATOM     23  H   UNL     1     -33.879  46.497  -4.650  0.00  0.00    +0.000 HD
ENDBRANCH  11  22
TORSDOF 4
ENDMDL
MODEL 9
REMARK VINA RESULT:      -5.7     21.830     23.129
REMARK  Name = Genistein.pdbqt.pdb
REMARK  4 active torsions:
REMARK  status: ('A' for Active; 'I' for Inactive)
REMARK    1  A    between atoms: C_4  and  C_12
REMARK    2  A    between atoms: C_7  and  O_20
REMARK    3  A    between atoms: C_11  and  O_22
REMARK    4  A    between atoms: C_17  and  O_18
REMARK                            x       y       z     vdW  Elec       q    Type
REMARK                         _______ _______ _______ _____ _____    ______ ____
ROOT
ATOM      1  O   UNL     1     -17.282  51.689   2.352  0.00  0.00    +0.000 OA
ATOM      2  O   UNL     1     -16.245  48.572   4.943  0.00  0.00    +0.000 OA
ATOM      3  C   UNL     1     -17.092  50.775   4.652  0.00  0.00    +0.000 A 
ATOM      4  C   UNL     1     -16.387  49.358   2.664  0.00  0.00    +0.000 A 
ATOM      5  C   UNL     1     -17.432  51.810   3.732  0.00  0.00    +0.000 A 
ATOM      6  C   UNL     1     -16.537  49.461   4.152  0.00  0.00    +0.000 A 
ATOM      7  C   UNL     1     -17.278  50.989   6.020  0.00  0.00    +0.000 A 
ATOM      8  C   UNL     1     -16.789  50.478   2.152  0.00  0.00    +0.000 A 
ATOM      9  C   UNL     1     -17.942  53.021   4.192  0.00  0.00    +0.000 A 
ATOM     10  C   UNL     1     -17.789  52.203   6.474  0.00  0.00    +0.000 A 
ATOM     11  C   UNL     1     -18.116  53.204   5.560  0.00  0.00    +0.000 A 
ENDROOT
BRANCH   4  12
ATOM     12  C   UNL     1     -15.879  48.213   1.912  0.00  0.00    +0.000 A 
ATOM     13  C   UNL     1     -14.582  48.209   1.391  0.00  0.00    +0.000 A 
ATOM     14  C   UNL     1     -16.685  47.089   1.697  0.00  0.00    +0.000 A 
ATOM     15  C   UNL     1     -14.097  47.117   0.674  0.00  0.00    +0.000 A 
ATOM     16  C   UNL     1     -16.212  45.990   0.981  0.00  0.00    +0.000 A 
ATOM     17  C   UNL     1     -14.919  46.014   0.475  0.00  0.00    +0.000 A 
BRANCH  17  18
ATOM     18  O   UNL     1     -14.474  44.929  -0.222  0.00  0.00    +0.000 OA
ATOM     19  H   UNL     1     -15.076  44.185  -0.043  0.00  0.00    +0.000 HD
ENDBRANCH  17  18
ENDBRANCH   4  12
BRANCH   7  20
ATOM     20  O   UNL     1     -16.980  50.055   6.976  0.00  0.00    +0.000 OA
ATOM     21  H   UNL     1     -16.914  49.172   6.544  0.00  0.00    +0.000 HD
ENDBRANCH   7  20
BRANCH  11  22
ATOM     22  O   UNL     1     -18.618  54.397   5.992  0.00  0.00    +0.000 OA
ATOM     23  H   UNL     1     -18.734  54.976   5.218  0.00  0.00    +0.000 HD
ENDBRANCH  11  22
TORSDOF 4
ENDMDL
