MODEL 1
REMARK VINA RESULT:      -5.3      0.000      0.000
REMARK  Name = Hyoscyamine.pdbqt.pdb
REMARK  6 active torsions:
REMARK  status: ('A' for Active; 'I' for Inactive)
REMARK    1  A    between atoms: C_2  and  O_3
REMARK    2  A    between atoms: C_2  and  C_13
REMARK    3  A    between atoms: O_3  and  C_4
REMARK    4  A    between atoms: C_13  and  C_14
REMARK    5  A    between atoms: C_13  and  C_20
REMARK    6  A    between atoms: C_20  and  O_21
REMARK                            x       y       z     vdW  Elec       q    Type
REMARK                         _______ _______ _______ _____ _____    ______ ____
ROOT
ATOM      1  O   UNL     1     -17.660  53.988   4.322  0.00  0.00    +0.000 OA
ATOM      2  C   UNL     1     -16.790  53.156   4.097  0.00  0.00    +0.000 C 
ENDROOT
BRANCH   2   3
ATOM      3  O   UNL     1     -15.478  53.401   3.812  0.00  0.00    +0.000 OA
BRANCH   3   4
ATOM      4  C   UNL     1     -15.285  53.895   2.522  0.00  0.00    +0.000 C 
ATOM      5  C   UNL     1     -14.679  53.071   1.491  0.00  0.00    +0.000 C 
ATOM      6  C   UNL     1     -13.698  53.499   0.485  0.00  0.00    +0.000 C 
ATOM      7  N   UNL     1     -12.750  54.427   1.258  0.00  0.00    +0.000 NA
ATOM      8  C   UNL     1     -14.270  54.353  -0.542  0.00  0.00    +0.000 C 
ATOM      9  C   UNL     1     -13.707  55.625   1.363  0.00  0.00    +0.000 C 
ATOM     10  C   UNL     1     -11.558  54.760   0.465  0.00  0.00    +0.000 C 
ATOM     11  C   UNL     1     -14.277  55.770   0.031  0.00  0.00    +0.000 C 
ATOM     12  C   UNL     1     -14.694  55.210   2.372  0.00  0.00    +0.000 C 
ENDBRANCH   3   4
ENDBRANCH   2   3
BRANCH   2  13
ATOM     13  C   UNL     1     -17.062  51.688   4.062  0.00  0.00    +0.000 C 
BRANCH  13  14
ATOM     14  C   UNL     1     -16.992  50.814   5.248  0.00  0.00    +0.000 A 
ATOM     15  C   UNL     1     -17.326  51.310   6.512  0.00  0.00    +0.000 A 
ATOM     16  C   UNL     1     -17.230  50.505   7.647  0.00  0.00    +0.000 A 
ATOM     17  C   UNL     1     -16.787  49.192   7.530  0.00  0.00    +0.000 A 
ATOM     18  C   UNL     1     -16.442  48.685   6.282  0.00  0.00    +0.000 A 
ATOM     19  C   UNL     1     -16.540  49.495   5.151  0.00  0.00    +0.000 A 
ENDBRANCH  13  14
BRANCH  13  20
ATOM     20  C   UNL     1     -17.477  51.137   2.809  0.00  0.00    +0.000 C 
BRANCH  20  21
ATOM     21  O   UNL     1     -17.861  50.625   1.645  0.00  0.00    +0.000 OA
ATOM     22  H   UNL     1     -18.044  49.673   1.734  0.00  0.00    +0.000 HD
ENDBRANCH  20  21
ENDBRANCH  13  20
ENDBRANCH   2  13
TORSDOF 6
ENDMDL
MODEL 2
REMARK VINA RESULT:      -5.3     26.299     29.715
REMARK  Name = Hyoscyamine.pdbqt.pdb
REMARK  6 active torsions:
REMARK  status: ('A' for Active; 'I' for Inactive)
REMARK    1  A    between atoms: C_2  and  O_3
REMARK    2  A    between atoms: C_2  and  C_13
REMARK    3  A    between atoms: O_3  and  C_4
REMARK    4  A    between atoms: C_13  and  C_14
REMARK    5  A    between atoms: C_13  and  C_20
REMARK    6  A    between atoms: C_20  and  O_21
REMARK                            x       y       z     vdW  Elec       q    Type
REMARK                         _______ _______ _______ _____ _____    ______ ____
ROOT
ATOM      1  O   UNL     1     -14.677  53.628 -26.621  0.00  0.00    +0.000 OA
ATOM      2  C   UNL     1     -15.430  53.007 -25.880  0.00  0.00    +0.000 C 
ENDROOT
BRANCH   2   3
ATOM      3  O   UNL     1     -16.349  52.067 -26.248  0.00  0.00    +0.000 OA
BRANCH   3   4
ATOM      4  C   UNL     1     -17.096  52.444 -27.364  0.00  0.00    +0.000 C 
ATOM      5  C   UNL     1     -16.483  52.528 -28.678  0.00  0.00    +0.000 C 
ATOM      6  C   UNL     1     -16.717  53.563 -29.694  0.00  0.00    +0.000 C 
ATOM      7  N   UNL     1     -16.785  54.868 -28.890  0.00  0.00    +0.000 NA
ATOM      8  C   UNL     1     -18.025  53.462 -30.318  0.00  0.00    +0.000 C 
ATOM      9  C   UNL     1     -18.176  54.639 -28.279  0.00  0.00    +0.000 C 
ATOM     10  C   UNL     1     -16.773  56.045 -29.772  0.00  0.00    +0.000 C 
ATOM     11  C   UNL     1     -19.003  54.179 -29.386  0.00  0.00    +0.000 C 
ATOM     12  C   UNL     1     -17.954  53.607 -27.255  0.00  0.00    +0.000 C 
ENDBRANCH   3   4
ENDBRANCH   2   3
BRANCH   2  13
ATOM     13  C   UNL     1     -15.479  53.230 -24.405  0.00  0.00    +0.000 C 
BRANCH  13  14
ATOM     14  C   UNL     1     -15.901  54.497 -23.780  0.00  0.00    +0.000 A 
ATOM     15  C   UNL     1     -15.787  54.675 -22.397  0.00  0.00    +0.000 A 
ATOM     16  C   UNL     1     -16.216  55.854 -21.789  0.00  0.00    +0.000 A 
ATOM     17  C   UNL     1     -16.774  56.870 -22.558  0.00  0.00    +0.000 A 
ATOM     18  C   UNL     1     -16.903  56.705 -23.933  0.00  0.00    +0.000 A 
ATOM     19  C   UNL     1     -16.473  55.524 -24.536  0.00  0.00    +0.000 A 
ENDBRANCH  13  14
BRANCH  13  20
ATOM     20  C   UNL     1     -15.155  52.112 -23.572  0.00  0.00    +0.000 C 
BRANCH  20  21
ATOM     21  O   UNL     1     -14.855  51.075 -22.798  0.00  0.00    +0.000 OA
ATOM     22  H   UNL     1     -14.423  50.375 -23.318  0.00  0.00    +0.000 HD
ENDBRANCH  20  21
ENDBRANCH  13  20
ENDBRANCH   2  13
TORSDOF 6
ENDMDL
MODEL 3
REMARK VINA RESULT:      -5.2     22.535     24.984
REMARK  Name = Hyoscyamine.pdbqt.pdb
REMARK  6 active torsions:
REMARK  status: ('A' for Active; 'I' for Inactive)
REMARK    1  A    between atoms: C_2  and  O_3
REMARK    2  A    between atoms: C_2  and  C_13
REMARK    3  A    between atoms: O_3  and  C_4
REMARK    4  A    between atoms: C_13  and  C_14
REMARK    5  A    between atoms: C_13  and  C_20
REMARK    6  A    between atoms: C_20  and  O_21
REMARK                            x       y       z     vdW  Elec       q    Type
REMARK                         _______ _______ _______ _____ _____    ______ ____
ROOT
ATOM      1  O   UNL     1     -38.959  45.674  -7.303  0.00  0.00    +0.000 OA
ATOM      2  C   UNL     1     -38.033  46.476  -7.296  0.00  0.00    +0.000 C 
ENDROOT
BRANCH   2   3
ATOM      3  O   UNL     1     -37.000  46.526  -6.406  0.00  0.00    +0.000 OA
BRANCH   3   4
ATOM      4  C   UNL     1     -35.980  45.623  -6.705  0.00  0.00    +0.000 C 
ATOM      5  C   UNL     1     -35.947  44.307  -6.092  0.00  0.00    +0.000 C 
ATOM      6  C   UNL     1     -34.761  43.599  -5.591  0.00  0.00    +0.000 C 
ATOM      7  N   UNL     1     -33.938  44.693  -4.897  0.00  0.00    +0.000 NA
ATOM      8  C   UNL     1     -33.892  43.121  -6.652  0.00  0.00    +0.000 C 
ATOM      9  C   UNL     1     -33.434  45.385  -6.174  0.00  0.00    +0.000 C 
ATOM     10  C   UNL     1     -32.827  44.120  -4.122  0.00  0.00    +0.000 C 
ATOM     11  C   UNL     1     -33.002  44.300  -7.045  0.00  0.00    +0.000 C 
ATOM     12  C   UNL     1     -34.612  46.102  -6.684  0.00  0.00    +0.000 C 
ENDBRANCH   3   4
ENDBRANCH   2   3
BRANCH   2  13
ATOM     13  C   UNL     1     -37.919  47.589  -8.285  0.00  0.00    +0.000 C 
BRANCH  13  14
ATOM     14  C   UNL     1     -37.674  47.385  -9.725  0.00  0.00    +0.000 A 
ATOM     15  C   UNL     1     -38.576  47.882 -10.672  0.00  0.00    +0.000 A 
ATOM     16  C   UNL     1     -38.376  47.665 -12.034  0.00  0.00    +0.000 A 
ATOM     17  C   UNL     1     -37.272  46.938 -12.467  0.00  0.00    +0.000 A 
ATOM     18  C   UNL     1     -36.372  46.428 -11.538  0.00  0.00    +0.000 A 
ATOM     19  C   UNL     1     -36.577  46.648 -10.177  0.00  0.00    +0.000 A 
ENDBRANCH  13  14
BRANCH  13  20
ATOM     20  C   UNL     1     -38.129  48.916  -7.791  0.00  0.00    +0.000 C 
BRANCH  20  21
ATOM     21  O   UNL     1     -38.324  50.148  -7.333  0.00  0.00    +0.000 OA
ATOM     22  H   UNL     1     -37.663  50.759  -7.704  0.00  0.00    +0.000 HD
ENDBRANCH  20  21
ENDBRANCH  13  20
ENDBRANCH   2  13
TORSDOF 6
ENDMDL
MODEL 4
REMARK VINA RESULT:      -5.2     21.116     23.664
REMARK  Name = Hyoscyamine.pdbqt.pdb
REMARK  6 active torsions:
REMARK  status: ('A' for Active; 'I' for Inactive)
REMARK    1  A    between atoms: C_2  and  O_3
REMARK    2  A    between atoms: C_2  and  C_13
REMARK    3  A    between atoms: O_3  and  C_4
REMARK    4  A    between atoms: C_13  and  C_14
REMARK    5  A    between atoms: C_13  and  C_20
REMARK    6  A    between atoms: C_20  and  O_21
REMARK                            x       y       z     vdW  Elec       q    Type
REMARK                         _______ _______ _______ _____ _____    ______ ____
ROOT
ATOM      1  O   UNL     1     -35.425  42.484  -4.055  0.00  0.00    +0.000 OA
ATOM      2  C   UNL     1     -34.308  42.541  -4.554  0.00  0.00    +0.000 C 
ENDROOT
BRANCH   2   3
ATOM      3  O   UNL     1     -33.591  41.503  -5.074  0.00  0.00    +0.000 OA
BRANCH   3   4
ATOM      4  C   UNL     1     -34.214  40.906  -6.170  0.00  0.00    +0.000 C 
ATOM      5  C   UNL     1     -34.154  39.469  -6.370  0.00  0.00    +0.000 C 
ATOM      6  C   UNL     1     -33.963  38.765  -7.645  0.00  0.00    +0.000 C 
ATOM      7  N   UNL     1     -32.902  39.598  -8.378  0.00  0.00    +0.000 NA
ATOM      8  C   UNL     1     -35.127  38.831  -8.512  0.00  0.00    +0.000 C 
ATOM      9  C   UNL     1     -33.815  40.777  -8.749  0.00  0.00    +0.000 C 
ATOM     10  C   UNL     1     -32.407  38.905  -9.576  0.00  0.00    +0.000 C 
ATOM     11  C   UNL     1     -35.036  40.165  -9.254  0.00  0.00    +0.000 C 
ATOM     12  C   UNL     1     -34.011  41.495  -7.479  0.00  0.00    +0.000 C 
ENDBRANCH   3   4
ENDBRANCH   2   3
BRANCH   2  13
ATOM     13  C   UNL     1     -33.520  43.807  -4.634  0.00  0.00    +0.000 C 
BRANCH  13  14
ATOM     14  C   UNL     1     -33.677  44.803  -5.709  0.00  0.00    +0.000 A 
ATOM     15  C   UNL     1     -34.946  45.099  -6.218  0.00  0.00    +0.000 A 
ATOM     16  C   UNL     1     -35.105  46.012  -7.260  0.00  0.00    +0.000 A 
ATOM     17  C   UNL     1     -33.992  46.636  -7.813  0.00  0.00    +0.000 A 
ATOM     18  C   UNL     1     -32.722  46.346  -7.326  0.00  0.00    +0.000 A 
ATOM     19  C   UNL     1     -32.569  45.431  -6.284  0.00  0.00    +0.000 A 
ENDBRANCH  13  14
BRANCH  13  20
ATOM     20  C   UNL     1     -32.616  44.074  -3.558  0.00  0.00    +0.000 C 
BRANCH  20  21
ATOM     21  O   UNL     1     -31.775  44.321  -2.559  0.00  0.00    +0.000 OA
ATOM     22  H   UNL     1     -31.987  43.765  -1.789  0.00  0.00    +0.000 HD
ENDBRANCH  20  21
ENDBRANCH  13  20
ENDBRANCH   2  13
TORSDOF 6
ENDMDL
MODEL 5
REMARK VINA RESULT:      -5.2     25.967     28.156
REMARK  Name = Hyoscyamine.pdbqt.pdb
REMARK  6 active torsions:
REMARK  status: ('A' for Active; 'I' for Inactive)
REMARK    1  A    between atoms: C_2  and  O_3
REMARK    2  A    between atoms: C_2  and  C_13
REMARK    3  A    between atoms: O_3  and  C_4
REMARK    4  A    between atoms: C_13  and  C_14
REMARK    5  A    between atoms: C_13  and  C_20
REMARK    6  A    between atoms: C_20  and  O_21
REMARK                            x       y       z     vdW  Elec       q    Type
REMARK                         _______ _______ _______ _____ _____    ______ ____
ROOT
ATOM      1  O   UNL     1     -33.457  44.292 -17.714  0.00  0.00    +0.000 OA
ATOM      2  C   UNL     1     -32.847  45.349 -17.818  0.00  0.00    +0.000 C 
ENDROOT
BRANCH   2   3
ATOM      3  O   UNL     1     -31.638  45.540 -18.422  0.00  0.00    +0.000 OA
BRANCH   3   4
ATOM      4  C   UNL     1     -30.667  44.633 -17.995  0.00  0.00    +0.000 C 
ATOM      5  C   UNL     1     -30.580  43.305 -18.577  0.00  0.00    +0.000 C 
ATOM      6  C   UNL     1     -30.318  42.048 -17.865  0.00  0.00    +0.000 C 
ATOM      7  N   UNL     1     -31.137  42.171 -16.574  0.00  0.00    +0.000 NA
ATOM      8  C   UNL     1     -28.945  41.929 -17.405  0.00  0.00    +0.000 C 
ATOM      9  C   UNL     1     -30.222  43.183 -15.868  0.00  0.00    +0.000 C 
ATOM     10  C   UNL     1     -31.189  40.894 -15.846  0.00  0.00    +0.000 C 
ATOM     11  C   UNL     1     -28.872  42.678 -16.073  0.00  0.00    +0.000 C 
ATOM     12  C   UNL     1     -30.479  44.451 -16.569  0.00  0.00    +0.000 C 
ENDBRANCH   3   4
ENDBRANCH   2   3
BRANCH   2  13
ATOM     13  C   UNL     1     -33.344  46.632 -17.239  0.00  0.00    +0.000 C 
BRANCH  13  14
ATOM     14  C   UNL     1     -33.887  47.740 -18.047  0.00  0.00    +0.000 A 
ATOM     15  C   UNL     1     -34.207  48.962 -17.445  0.00  0.00    +0.000 A 
ATOM     16  C   UNL     1     -34.755  50.006 -18.190  0.00  0.00    +0.000 A 
ATOM     17  C   UNL     1     -34.999  49.837 -19.548  0.00  0.00    +0.000 A 
ATOM     18  C   UNL     1     -34.696  48.625 -20.160  0.00  0.00    +0.000 A 
ATOM     19  C   UNL     1     -34.149  47.585 -19.411  0.00  0.00    +0.000 A 
ENDBRANCH  13  14
BRANCH  13  20
ATOM     20  C   UNL     1     -33.343  46.741 -15.813  0.00  0.00    +0.000 C 
BRANCH  20  21
ATOM     21  O   UNL     1     -33.343  46.841 -14.488  0.00  0.00    +0.000 OA
ATOM     22  H   UNL     1     -33.480  45.968 -14.079  0.00  0.00    +0.000 HD
ENDBRANCH  20  21
ENDBRANCH  13  20
ENDBRANCH   2  13
TORSDOF 6
ENDMDL
MODEL 6
REMARK VINA RESULT:      -5.1     22.699     24.720
REMARK  Name = Hyoscyamine.pdbqt.pdb
REMARK  6 active torsions:
REMARK  status: ('A' for Active; 'I' for Inactive)
REMARK    1  A    between atoms: C_2  and  O_3
REMARK    2  A    between atoms: C_2  and  C_13
REMARK    3  A    between atoms: O_3  and  C_4
REMARK    4  A    between atoms: C_13  and  C_14
REMARK    5  A    between atoms: C_13  and  C_20
REMARK    6  A    between atoms: C_20  and  O_21
REMARK                            x       y       z     vdW  Elec       q    Type
REMARK                         _______ _______ _______ _____ _____    ______ ____
ROOT
ATOM      1  O   UNL     1     -36.378  44.064  -9.823  0.00  0.00    +0.000 OA
ATOM      2  C   UNL     1     -35.830  45.159  -9.872  0.00  0.00    +0.000 C 
ENDROOT
BRANCH   2   3
ATOM      3  O   UNL     1     -35.334  45.777 -10.983  0.00  0.00    +0.000 OA
BRANCH   3   4
ATOM      4  C   UNL     1     -34.880  44.879 -11.949  0.00  0.00    +0.000 C 
ATOM      5  C   UNL     1     -33.460  44.710 -12.201  0.00  0.00    +0.000 C 
ATOM      6  C   UNL     1     -32.811  44.553 -13.509  0.00  0.00    +0.000 C 
ATOM      7  N   UNL     1     -33.548  45.549 -14.414  0.00  0.00    +0.000 NA
ATOM      8  C   UNL     1     -33.066  43.261 -14.121  0.00  0.00    +0.000 C 
ATOM      9  C   UNL     1     -34.849  44.744 -14.558  0.00  0.00    +0.000 C 
ATOM     10  C   UNL     1     -32.867  45.706 -15.709  0.00  0.00    +0.000 C 
ATOM     11  C   UNL     1     -34.419  43.378 -14.825  0.00  0.00    +0.000 C 
ATOM     12  C   UNL     1     -35.512  44.896 -13.253  0.00  0.00    +0.000 C 
ENDBRANCH   3   4
ENDBRANCH   2   3
BRANCH   2  13
ATOM     13  C   UNL     1     -35.580  45.994  -8.660  0.00  0.00    +0.000 C 
BRANCH  13  14
ATOM     14  C   UNL     1     -34.554  45.682  -7.648  0.00  0.00    +0.000 A 
ATOM     15  C   UNL     1     -33.311  45.171  -8.036  0.00  0.00    +0.000 A 
ATOM     16  C   UNL     1     -32.344  44.838  -7.088  0.00  0.00    +0.000 A 
ATOM     17  C   UNL     1     -32.614  45.004  -5.734  0.00  0.00    +0.000 A 
ATOM     18  C   UNL     1     -33.849  45.502  -5.330  0.00  0.00    +0.000 A 
ATOM     19  C   UNL     1     -34.811  45.833  -6.283  0.00  0.00    +0.000 A 
ENDBRANCH  13  14
BRANCH  13  20
ATOM     20  C   UNL     1     -36.349  47.194  -8.532  0.00  0.00    +0.000 C 
BRANCH  20  21
ATOM     21  O   UNL     1     -37.062  48.308  -8.413  0.00  0.00    +0.000 OA
ATOM     22  H   UNL     1     -37.219  48.514  -7.474  0.00  0.00    +0.000 HD
ENDBRANCH  20  21
ENDBRANCH  13  20
ENDBRANCH   2  13
TORSDOF 6
ENDMDL
MODEL 7
REMARK VINA RESULT:      -5.1     33.932     37.145
REMARK  Name = Hyoscyamine.pdbqt.pdb
REMARK  6 active torsions:
REMARK  status: ('A' for Active; 'I' for Inactive)
REMARK    1  A    between atoms: C_2  and  O_3
REMARK    2  A    between atoms: C_2  and  C_13
REMARK    3  A    between atoms: O_3  and  C_4
REMARK    4  A    between atoms: C_13  and  C_14
REMARK    5  A    between atoms: C_13  and  C_20
REMARK    6  A    between atoms: C_20  and  O_21
REMARK                            x       y       z     vdW  Elec       q    Type
REMARK                         _______ _______ _______ _____ _____    ______ ____
ROOT
ATOM      1  O   UNL     1     -22.294  54.733 -32.907  0.00  0.00    +0.000 OA
ATOM      2  C   UNL     1     -22.150  53.578 -32.526  0.00  0.00    +0.000 C 
ENDROOT
BRANCH   2   3
ATOM      3  O   UNL     1     -23.095  52.786 -31.941  0.00  0.00    +0.000 OA
BRANCH   3   4
ATOM      4  C   UNL     1     -24.288  52.739 -32.663  0.00  0.00    +0.000 C 
ATOM      5  C   UNL     1     -25.352  51.825 -32.286  0.00  0.00    +0.000 C 
ATOM      6  C   UNL     1     -26.197  51.036 -33.192  0.00  0.00    +0.000 C 
ATOM      7  N   UNL     1     -25.226  50.541 -34.273  0.00  0.00    +0.000 NA
ATOM      8  C   UNL     1     -27.158  51.845 -33.923  0.00  0.00    +0.000 C 
ATOM      9  C   UNL     1     -25.062  51.882 -35.006  0.00  0.00    +0.000 C 
ATOM     10  C   UNL     1     -25.853  49.529 -35.136  0.00  0.00    +0.000 C 
ATOM     11  C   UNL     1     -26.414  52.409 -35.134  0.00  0.00    +0.000 C 
ATOM     12  C   UNL     1     -24.213  52.681 -34.109  0.00  0.00    +0.000 C 
ENDBRANCH   3   4
ENDBRANCH   2   3
BRANCH   2  13
ATOM     13  C   UNL     1     -20.848  52.853 -32.614  0.00  0.00    +0.000 C 
BRANCH  13  14
ATOM     14  C   UNL     1     -19.673  53.173 -31.782  0.00  0.00    +0.000 A 
ATOM     15  C   UNL     1     -19.733  53.034 -30.391  0.00  0.00    +0.000 A 
ATOM     16  C   UNL     1     -18.643  53.368 -29.590  0.00  0.00    +0.000 A 
ATOM     17  C   UNL     1     -17.477  53.856 -30.171  0.00  0.00    +0.000 A 
ATOM     18  C   UNL     1     -17.404  54.011 -31.551  0.00  0.00    +0.000 A 
ATOM     19  C   UNL     1     -18.498  53.675 -32.348  0.00  0.00    +0.000 A 
ENDBRANCH  13  14
BRANCH  13  20
ATOM     20  C   UNL     1     -20.785  51.746 -33.518  0.00  0.00    +0.000 C 
BRANCH  20  21
ATOM     21  O   UNL     1     -20.726  50.718 -34.358  0.00  0.00    +0.000 OA
ATOM     22  H   UNL     1     -21.263  49.976 -34.028  0.00  0.00    +0.000 HD
ENDBRANCH  20  21
ENDBRANCH  13  20
ENDBRANCH   2  13
TORSDOF 6
ENDMDL
MODEL 8
REMARK VINA RESULT:      -5.0     26.054     27.994
REMARK  Name = Hyoscyamine.pdbqt.pdb
REMARK  6 active torsions:
REMARK  status: ('A' for Active; 'I' for Inactive)
REMARK    1  A    between atoms: C_2  and  O_3
REMARK    2  A    between atoms: C_2  and  C_13
REMARK    3  A    between atoms: O_3  and  C_4
REMARK    4  A    between atoms: C_13  and  C_14
REMARK    5  A    between atoms: C_13  and  C_20
REMARK    6  A    between atoms: C_20  and  O_21
REMARK                            x       y       z     vdW  Elec       q    Type
REMARK                         _______ _______ _______ _____ _____    ______ ____
ROOT
ATOM      1  O   UNL     1     -34.205  47.116 -19.681  0.00  0.00    +0.000 OA
ATOM      2  C   UNL     1     -33.854  47.382 -18.538  0.00  0.00    +0.000 C 
ENDROOT
BRANCH   2   3
ATOM      3  O   UNL     1     -32.673  47.041 -17.945  0.00  0.00    +0.000 OA
BRANCH   3   4
ATOM      4  C   UNL     1     -32.639  45.712 -17.523  0.00  0.00    +0.000 C 
ATOM      5  C   UNL     1     -32.344  45.376 -16.142  0.00  0.00    +0.000 C 
ATOM      6  C   UNL     1     -31.503  44.270 -15.665  0.00  0.00    +0.000 C 
ATOM      7  N   UNL     1     -30.314  44.260 -16.636  0.00  0.00    +0.000 NA
ATOM      8  C   UNL     1     -32.119  42.967 -15.845  0.00  0.00    +0.000 C 
ATOM      9  C   UNL     1     -31.059  43.656 -17.837  0.00  0.00    +0.000 C 
ATOM     10  C   UNL     1     -29.243  43.370 -16.165  0.00  0.00    +0.000 C 
ATOM     11  C   UNL     1     -31.826  42.547 -17.286  0.00  0.00    +0.000 C 
ATOM     12  C   UNL     1     -31.904  44.756 -18.327  0.00  0.00    +0.000 C 
ENDBRANCH   3   4
ENDBRANCH   2   3
BRANCH   2  13
ATOM     13  C   UNL     1     -34.725  48.117 -17.574  0.00  0.00    +0.000 C 
BRANCH  13  14
ATOM     14  C   UNL     1     -35.325  47.500 -16.376  0.00  0.00    +0.000 A 
ATOM     15  C   UNL     1     -35.045  48.010 -15.104  0.00  0.00    +0.000 A 
ATOM     16  C   UNL     1     -35.576  47.415 -13.960  0.00  0.00    +0.000 A 
ATOM     17  C   UNL     1     -36.388  46.292 -14.075  0.00  0.00    +0.000 A 
ATOM     18  C   UNL     1     -36.668  45.765 -15.332  0.00  0.00    +0.000 A 
ATOM     19  C   UNL     1     -36.134  46.365 -16.472  0.00  0.00    +0.000 A 
ENDBRANCH  13  14
BRANCH  13  20
ATOM     20  C   UNL     1     -34.919  49.514 -17.814  0.00  0.00    +0.000 C 
BRANCH  20  21
ATOM     21  O   UNL     1     -35.100  50.811 -18.036  0.00  0.00    +0.000 OA
ATOM     22  H   UNL     1     -34.363  51.327 -17.662  0.00  0.00    +0.000 HD
ENDBRANCH  20  21
ENDBRANCH  13  20
ENDBRANCH   2  13
TORSDOF 6
ENDMDL
MODEL 9
REMARK VINA RESULT:      -5.0     23.324     25.649
REMARK  Name = Hyoscyamine.pdbqt.pdb
REMARK  6 active torsions:
REMARK  status: ('A' for Active; 'I' for Inactive)
REMARK    1  A    between atoms: C_2  and  O_3
REMARK    2  A    between atoms: C_2  and  C_13
REMARK    3  A    between atoms: O_3  and  C_4
REMARK    4  A    between atoms: C_13  and  C_14
REMARK    5  A    between atoms: C_13  and  C_20
REMARK    6  A    between atoms: C_20  and  O_21
REMARK                            x       y       z     vdW  Elec       q    Type
REMARK                         _______ _______ _______ _____ _____    ______ ____
ROOT
ATOM      1  O   UNL     1     -39.535  46.243  -7.501  0.00  0.00    +0.000 OA
ATOM      2  C   UNL     1     -38.585  47.013  -7.573  0.00  0.00    +0.000 C 
ENDROOT
BRANCH   2   3
ATOM      3  O   UNL     1     -37.370  46.872  -6.969  0.00  0.00    +0.000 OA
BRANCH   3   4
ATOM      4  C   UNL     1     -36.475  46.108  -7.719  0.00  0.00    +0.000 C 
ATOM      5  C   UNL     1     -36.079  44.782  -7.282  0.00  0.00    +0.000 C 
ATOM      6  C   UNL     1     -34.732  44.199  -7.347  0.00  0.00    +0.000 C 
ATOM      7  N   UNL     1     -33.805  45.353  -6.942  0.00  0.00    +0.000 NA
ATOM      8  C   UNL     1     -34.319  43.869  -8.700  0.00  0.00    +0.000 C 
ATOM      9  C   UNL     1     -33.918  46.150  -8.251  0.00  0.00    +0.000 C 
ATOM     10  C   UNL     1     -32.430  44.884  -6.716  0.00  0.00    +0.000 C 
ATOM     11  C   UNL     1     -33.772  45.161  -9.309  0.00  0.00    +0.000 C 
ATOM     12  C   UNL     1     -35.263  46.744  -8.196  0.00  0.00    +0.000 C 
ENDBRANCH   3   4
ENDBRANCH   2   3
BRANCH   2  13
ATOM     13  C   UNL     1     -38.639  48.295  -8.336  0.00  0.00    +0.000 C 
BRANCH  13  14
ATOM     14  C   UNL     1     -38.778  48.371  -9.802  0.00  0.00    +0.000 A 
ATOM     15  C   UNL     1     -39.627  49.319 -10.383  0.00  0.00    +0.000 A 
ATOM     16  C   UNL     1     -39.796  49.379 -11.766  0.00  0.00    +0.000 A 
ATOM     17  C   UNL     1     -39.122  48.481 -12.587  0.00  0.00    +0.000 A 
ATOM     18  C   UNL     1     -38.281  47.526 -12.025  0.00  0.00    +0.000 A 
ATOM     19  C   UNL     1     -38.117  47.471 -10.642  0.00  0.00    +0.000 A 
ENDBRANCH  13  14
BRANCH  13  20
ATOM     20  C   UNL     1     -38.619  49.504  -7.571  0.00  0.00    +0.000 C 
BRANCH  20  21
ATOM     21  O   UNL     1     -38.600  50.627  -6.860  0.00  0.00    +0.000 OA
ATOM     22  H   UNL     1     -38.654  50.429  -5.909  0.00  0.00    +0.000 HD
ENDBRANCH  20  21
ENDBRANCH  13  20
ENDBRANCH   2  13
TORSDOF 6
ENDMDL
