MODEL 1
REMARK VINA RESULT:      -6.9      0.000      0.000
REMARK  Name = 
REMARK  21 active torsions:
REMARK  status: ('A' for Active; 'I' for Inactive)
REMARK    1  A    between atoms: O_3  and  C_22
REMARK    2  A    between atoms: O_3  and  C_28
REMARK    3  A    between atoms: O_4  and  C_25
REMARK    4  A    between atoms: O_4  and  C_30
REMARK    5  A    between atoms: O_5  and  C_16
REMARK    6  A    between atoms: O_6  and  C_17
REMARK    7  A    between atoms: O_7  and  C_18
REMARK    8  A    between atoms: O_8  and  C_20
REMARK    9  A    between atoms: O_9  and  C_21
REMARK   10  A    between atoms: O_10  and  C_23
REMARK   11  A    between atoms: O_11  and  C_26
REMARK   12  A    between atoms: O_13  and  C_36
REMARK   13  A    between atoms: O_15  and  C_45
REMARK   14  A    between atoms: O_15  and  C_48
REMARK   15  A    between atoms: C_19  and  C_26
REMARK   16  A    between atoms: C_24  and  C_27
REMARK   17  A    between atoms: C_29  and  C_37
REMARK   18  A    between atoms: C_35  and  C_38
REMARK   19  A    between atoms: C_37  and  C_39
REMARK   20  A    between atoms: C_42  and  C_46
REMARK   21  A    between atoms: C_42  and  C_47
REMARK                            x       y       z     vdW  Elec       q    Type
REMARK                         _______ _______ _______ _____ _____    ______ ____
ROOT
ATOM      1  O   UNL     1     -36.630  46.157 -12.077  0.00  0.00    +0.000 OA
ATOM      2  O   UNL     1     -32.835  44.931 -11.316  0.00  0.00    +0.000 OA
ATOM      3  C   UNL     1     -35.454  45.711 -15.513  0.00  0.00    +0.000 A 
ATOM      4  C   UNL     1     -36.301  46.005 -14.429  0.00  0.00    +0.000 A 
ATOM      5  C   UNL     1     -34.919  45.670 -10.441  0.00  0.00    +0.000 A 
ATOM      6  C   UNL     1     -35.788  45.865 -13.123  0.00  0.00    +0.000 A 
ATOM      7  C   UNL     1     -34.477  45.437 -12.915  0.00  0.00    +0.000 A 
ATOM      8  C   UNL     1     -33.982  45.317 -11.537  0.00  0.00    +0.000 A 
ATOM      9  C   UNL     1     -34.154  45.242 -15.303  0.00  0.00    +0.000 A 
ATOM     10  C   UNL     1     -36.150  46.090 -10.783  0.00  0.00    +0.000 A 
ATOM     11  C   UNL     1     -33.665  45.121 -14.007  0.00  0.00    +0.000 A 
ENDROOT
BRANCH  10  12
ATOM     12  C   UNL     1     -37.150  46.487  -9.780  0.00  0.00    +0.000 A 
ATOM     13  C   UNL     1     -36.987  47.679  -9.066  0.00  0.00    +0.000 A 
ATOM     14  C   UNL     1     -38.267  45.685  -9.513  0.00  0.00    +0.000 A 
ATOM     15  C   UNL     1     -37.935  48.065  -8.115  0.00  0.00    +0.000 A 
ATOM     16  C   UNL     1     -39.216  46.076  -8.561  0.00  0.00    +0.000 A 
ATOM     17  C   UNL     1     -39.056  47.272  -7.862  0.00  0.00    +0.000 A 
BRANCH  17  18
ATOM     18  O   UNL     1     -39.906  47.769  -6.914  0.00  0.00    +0.000 OA
ATOM     19  C   UNL     1     -39.607  49.060  -6.397  0.00  0.00    +0.000 C 
ENDBRANCH  17  18
ENDBRANCH  10  12
BRANCH  11  20
ATOM     20  O   UNL     1     -32.377  44.674 -13.880  0.00  0.00    +0.000 OA
ATOM     21  H   UNL     1     -32.402  43.741 -13.573  0.00  0.00    +0.000 HD
ENDBRANCH  11  20
BRANCH   4  22
ATOM     22  C   UNL     1     -37.718  46.500 -14.645  0.00  0.00    +0.000 C 
BRANCH  22  23
ATOM     23  C   UNL     1     -37.796  48.002 -14.721  0.00  0.00    +0.000 C 
ATOM     24  C   UNL     1     -38.308  48.867 -13.822  0.00  0.00    +0.000 C 
ATOM     25  C   UNL     1     -38.926  48.494 -12.503  0.00  0.00    +0.000 C 
ATOM     26  C   UNL     1     -38.285  50.348 -14.094  0.00  0.00    +0.000 C 
ENDBRANCH  22  23
ENDBRANCH   4  22
BRANCH   5  27
ATOM     27  O   UNL     1     -34.474  45.632  -9.132  0.00  0.00    +0.000 OA
BRANCH  27  33
ATOM     28  O   UNL     1     -35.801  44.412  -7.594  0.00  0.00    +0.000 OA
ATOM     29  C   UNL     1     -33.124  44.787  -6.589  0.00  0.00    +0.000 C 
ATOM     30  C   UNL     1     -34.350  44.853  -5.669  0.00  0.00    +0.000 C 
ATOM     31  C   UNL     1     -33.398  43.909  -7.810  0.00  0.00    +0.000 C 
ATOM     32  C   UNL     1     -35.581  45.284  -6.477  0.00  0.00    +0.000 C 
ATOM     33  C   UNL     1     -34.697  44.360  -8.510  0.00  0.00    +0.000 C 
ATOM     34  C   UNL     1     -36.845  45.262  -5.624  0.00  0.00    +0.000 C 
BRANCH  29  35
ATOM     35  O   UNL     1     -32.021  44.254  -5.833  0.00  0.00    +0.000 OA
ATOM     36  H   UNL     1     -31.844  43.376  -6.232  0.00  0.00    +0.000 HD
ENDBRANCH  29  35
BRANCH  30  37
ATOM     37  O   UNL     1     -34.080  45.774  -4.606  0.00  0.00    +0.000 OA
ATOM     38  H   UNL     1     -34.564  45.420  -3.832  0.00  0.00    +0.000 HD
ENDBRANCH  30  37
BRANCH  31  39
ATOM     39  O   UNL     1     -33.468  42.541  -7.355  0.00  0.00    +0.000 OA
ATOM     40  H   UNL     1     -33.181  42.533  -6.423  0.00  0.00    +0.000 HD
ENDBRANCH  31  39
ENDBRANCH  27  33
ENDBRANCH   5  27
BRANCH   3  41
ATOM     41  O   UNL     1     -35.949  45.789 -16.790  0.00  0.00    +0.000 OA
BRANCH  41  47
ATOM     42  O   UNL     1     -35.320  47.947 -17.530  0.00  0.00    +0.000 OA
ATOM     43  C   UNL     1     -34.641  46.919 -20.107  0.00  0.00    +0.000 C 
ATOM     44  C   UNL     1     -34.806  48.420 -19.856  0.00  0.00    +0.000 C 
ATOM     45  C   UNL     1     -35.451  46.103 -19.100  0.00  0.00    +0.000 C 
ATOM     46  C   UNL     1     -34.477  48.733 -18.390  0.00  0.00    +0.000 C 
ATOM     47  C   UNL     1     -35.091  46.545 -17.669  0.00  0.00    +0.000 C 
BRANCH  44  48
ATOM     48  O   UNL     1     -33.952  49.139 -20.748  0.00  0.00    +0.000 OA
ATOM     49  H   UNL     1     -33.835  50.020 -20.336  0.00  0.00    +0.000 HD
ENDBRANCH  44  48
BRANCH  45  50
ATOM     50  O   UNL     1     -35.178  44.709 -19.319  0.00  0.00    +0.000 OA
ATOM     51  H   UNL     1     -35.435  44.253 -18.493  0.00  0.00    +0.000 HD
ENDBRANCH  45  50
BRANCH  43  52
ATOM     52  O   UNL     1     -35.065  46.620 -21.447  0.00  0.00    +0.000 OA
ATOM     53  H   UNL     1     -34.517  45.859 -21.724  0.00  0.00    +0.000 HD
ENDBRANCH  43  52
BRANCH  46  54
ATOM     54  C   UNL     1     -34.710  50.217 -18.075  0.00  0.00    +0.000 C 
BRANCH  54  55
ATOM     55  O   UNL     1     -35.688  50.753 -18.969  0.00  0.00    +0.000 OA
ATOM     56  H   UNL     1     -35.398  50.531 -19.870  0.00  0.00    +0.000 HD
ENDBRANCH  54  55
ENDBRANCH  46  54
ENDBRANCH  41  47
ENDBRANCH   3  41
TORSDOF 17
ENDMDL
MODEL 2
REMARK VINA RESULT:      -6.8      2.028      9.727
REMARK  Name = 
REMARK  21 active torsions:
REMARK  status: ('A' for Active; 'I' for Inactive)
REMARK    1  A    between atoms: O_3  and  C_22
REMARK    2  A    between atoms: O_3  and  C_28
REMARK    3  A    between atoms: O_4  and  C_25
REMARK    4  A    between atoms: O_4  and  C_30
REMARK    5  A    between atoms: O_5  and  C_16
REMARK    6  A    between atoms: O_6  and  C_17
REMARK    7  A    between atoms: O_7  and  C_18
REMARK    8  A    between atoms: O_8  and  C_20
REMARK    9  A    between atoms: O_9  and  C_21
REMARK   10  A    between atoms: O_10  and  C_23
REMARK   11  A    between atoms: O_11  and  C_26
REMARK   12  A    between atoms: O_13  and  C_36
REMARK   13  A    between atoms: O_15  and  C_45
REMARK   14  A    between atoms: O_15  and  C_48
REMARK   15  A    between atoms: C_19  and  C_26
REMARK   16  A    between atoms: C_24  and  C_27
REMARK   17  A    between atoms: C_29  and  C_37
REMARK   18  A    between atoms: C_35  and  C_38
REMARK   19  A    between atoms: C_37  and  C_39
REMARK   20  A    between atoms: C_42  and  C_46
REMARK   21  A    between atoms: C_42  and  C_47
REMARK                            x       y       z     vdW  Elec       q    Type
REMARK                         _______ _______ _______ _____ _____    ______ ____
ROOT
ATOM      1  O   UNL     1     -37.476  47.548 -12.817  0.00  0.00    +0.000 OA
ATOM      2  O   UNL     1     -33.966  47.315 -14.843  0.00  0.00    +0.000 OA
ATOM      3  C   UNL     1     -35.805  44.986 -10.809  0.00  0.00    +0.000 A 
ATOM      4  C   UNL     1     -36.786  45.889 -11.256  0.00  0.00    +0.000 A 
ATOM      5  C   UNL     1     -36.126  48.294 -14.678  0.00  0.00    +0.000 A 
ATOM      6  C   UNL     1     -36.505  46.671 -12.395  0.00  0.00    +0.000 A 
ATOM      7  C   UNL     1     -35.281  46.556 -13.054  0.00  0.00    +0.000 A 
ATOM      8  C   UNL     1     -35.037  47.382 -14.244  0.00  0.00    +0.000 A 
ATOM      9  C   UNL     1     -34.563  44.901 -11.446  0.00  0.00    +0.000 A 
ATOM     10  C   UNL     1     -37.265  48.290 -13.963  0.00  0.00    +0.000 A 
ATOM     11  C   UNL     1     -34.310  45.674 -12.573  0.00  0.00    +0.000 A 
ENDROOT
BRANCH  10  12
ATOM     12  C   UNL     1     -38.415  49.136 -14.317  0.00  0.00    +0.000 A 
ATOM     13  C   UNL     1     -39.595  48.549 -14.789  0.00  0.00    +0.000 A 
ATOM     14  C   UNL     1     -38.353  50.530 -14.203  0.00  0.00    +0.000 A 
ATOM     15  C   UNL     1     -40.693  49.344 -15.122  0.00  0.00    +0.000 A 
ATOM     16  C   UNL     1     -39.456  51.325 -14.535  0.00  0.00    +0.000 A 
ATOM     17  C   UNL     1     -40.634  50.734 -14.992  0.00  0.00    +0.000 A 
BRANCH  17  18
ATOM     18  O   UNL     1     -41.779  51.391 -15.346  0.00  0.00    +0.000 OA
ATOM     19  C   UNL     1     -42.124  52.537 -14.579  0.00  0.00    +0.000 C 
ENDBRANCH  17  18
ENDBRANCH  10  12
BRANCH  11  20
ATOM     20  O   UNL     1     -33.080  45.522 -13.153  0.00  0.00    +0.000 OA
ATOM     21  H   UNL     1     -33.100  44.715 -13.714  0.00  0.00    +0.000 HD
ENDBRANCH  11  20
BRANCH   4  22
ATOM     22  C   UNL     1     -38.131  46.001 -10.565  0.00  0.00    +0.000 C 
BRANCH  22  23
ATOM     23  C   UNL     1     -38.166  47.119  -9.556  0.00  0.00    +0.000 C 
ATOM     24  C   UNL     1     -38.835  48.287  -9.615  0.00  0.00    +0.000 C 
ATOM     25  C   UNL     1     -39.724  48.731 -10.744  0.00  0.00    +0.000 C 
ATOM     26  C   UNL     1     -38.735  49.279  -8.486  0.00  0.00    +0.000 C 
ENDBRANCH  22  23
ENDBRANCH   4  22
BRANCH   5  27
ATOM     27  O   UNL     1     -35.963  49.043 -15.829  0.00  0.00    +0.000 OA
BRANCH  27  33
ATOM     28  O   UNL     1     -35.711  47.723 -17.781  0.00  0.00    +0.000 OA
ATOM     29  C   UNL     1     -36.282  50.470 -18.450  0.00  0.00    +0.000 C 
ATOM     30  C   UNL     1     -35.296  49.626 -19.268  0.00  0.00    +0.000 C 
ATOM     31  C   UNL     1     -37.323  49.588 -17.760  0.00  0.00    +0.000 C 
ATOM     32  C   UNL     1     -34.690  48.532 -18.380  0.00  0.00    +0.000 C 
ATOM     33  C   UNL     1     -36.625  48.466 -16.962  0.00  0.00    +0.000 C 
ATOM     34  C   UNL     1     -33.782  47.603 -19.181  0.00  0.00    +0.000 C 
BRANCH  29  35
ATOM     35  O   UNL     1     -36.930  51.398 -19.339  0.00  0.00    +0.000 OA
ATOM     36  H   UNL     1     -36.320  52.164 -19.390  0.00  0.00    +0.000 HD
ENDBRANCH  29  35
BRANCH  30  37
ATOM     37  O   UNL     1     -34.281  50.487 -19.797  0.00  0.00    +0.000 OA
ATOM     38  H   UNL     1     -33.682  50.670 -19.045  0.00  0.00    +0.000 HD
ENDBRANCH  30  37
BRANCH  31  39
ATOM     39  O   UNL     1     -38.198  49.067 -18.783  0.00  0.00    +0.000 OA
ATOM     40  H   UNL     1     -37.696  49.068 -19.619  0.00  0.00    +0.000 HD
ENDBRANCH  31  39
ENDBRANCH  27  33
ENDBRANCH   5  27
BRANCH   3  41
ATOM     41  O   UNL     1     -36.037  44.254  -9.672  0.00  0.00    +0.000 OA
BRANCH  41  47
ATOM     42  O   UNL     1     -34.199  44.700  -8.250  0.00  0.00    +0.000 OA
ATOM     43  C   UNL     1     -35.938  44.944  -5.998  0.00  0.00    +0.000 C 
ATOM     44  C   UNL     1     -34.423  44.793  -5.833  0.00  0.00    +0.000 C 
ATOM     45  C   UNL     1     -36.409  44.339  -7.318  0.00  0.00    +0.000 C 
ATOM     46  C   UNL     1     -33.715  45.365  -7.070  0.00  0.00    +0.000 C 
ATOM     47  C   UNL     1     -35.588  44.931  -8.479  0.00  0.00    +0.000 C 
BRANCH  44  48
ATOM     48  O   UNL     1     -34.014  45.464  -4.640  0.00  0.00    +0.000 OA
ATOM     49  H   UNL     1     -33.058  45.643  -4.762  0.00  0.00    +0.000 HD
ENDBRANCH  44  48
BRANCH  45  50
ATOM     50  O   UNL     1     -37.815  44.599  -7.463  0.00  0.00    +0.000 OA
ATOM     51  H   UNL     1     -37.906  45.131  -8.279  0.00  0.00    +0.000 HD
ENDBRANCH  45  50
BRANCH  43  52
ATOM     52  O   UNL     1     -36.593  44.301  -4.892  0.00  0.00    +0.000 OA
ATOM     53  H   UNL     1     -37.452  44.762  -4.802  0.00  0.00    +0.000 HD
ENDBRANCH  43  52
BRANCH  46  54
ATOM     54  C   UNL     1     -32.197  45.158  -6.984  0.00  0.00    +0.000 C 
BRANCH  54  55
ATOM     55  O   UNL     1     -31.775  44.248  -8.002  0.00  0.00    +0.000 OA
ATOM     56  H   UNL     1     -32.475  43.579  -8.091  0.00  0.00    +0.000 HD
ENDBRANCH  54  55
ENDBRANCH  46  54
ENDBRANCH  41  47
ENDBRANCH   3  41
TORSDOF 17
ENDMDL
MODEL 3
REMARK VINA RESULT:      -6.5      1.990      9.956
REMARK  Name = 
REMARK  21 active torsions:
REMARK  status: ('A' for Active; 'I' for Inactive)
REMARK    1  A    between atoms: O_3  and  C_22
REMARK    2  A    between atoms: O_3  and  C_28
REMARK    3  A    between atoms: O_4  and  C_25
REMARK    4  A    between atoms: O_4  and  C_30
REMARK    5  A    between atoms: O_5  and  C_16
REMARK    6  A    between atoms: O_6  and  C_17
REMARK    7  A    between atoms: O_7  and  C_18
REMARK    8  A    between atoms: O_8  and  C_20
REMARK    9  A    between atoms: O_9  and  C_21
REMARK   10  A    between atoms: O_10  and  C_23
REMARK   11  A    between atoms: O_11  and  C_26
REMARK   12  A    between atoms: O_13  and  C_36
REMARK   13  A    between atoms: O_15  and  C_45
REMARK   14  A    between atoms: O_15  and  C_48
REMARK   15  A    between atoms: C_19  and  C_26
REMARK   16  A    between atoms: C_24  and  C_27
REMARK   17  A    between atoms: C_29  and  C_37
REMARK   18  A    between atoms: C_35  and  C_38
REMARK   19  A    between atoms: C_37  and  C_39
REMARK   20  A    between atoms: C_42  and  C_46
REMARK   21  A    between atoms: C_42  and  C_47
REMARK                            x       y       z     vdW  Elec       q    Type
REMARK                         _______ _______ _______ _____ _____    ______ ____
ROOT
ATOM      1  O   UNL     1     -37.497  47.140 -12.921  0.00  0.00    +0.000 OA
ATOM      2  O   UNL     1     -33.940  46.275 -14.675  0.00  0.00    +0.000 OA
ATOM      3  C   UNL     1     -35.830  45.510 -10.101  0.00  0.00    +0.000 A 
ATOM      4  C   UNL     1     -36.815  46.169 -10.858  0.00  0.00    +0.000 A 
ATOM      5  C   UNL     1     -36.119  47.197 -14.906  0.00  0.00    +0.000 A 
ATOM      6  C   UNL     1     -36.522  46.495 -12.197  0.00  0.00    +0.000 A 
ATOM      7  C   UNL     1     -35.282  46.180 -12.753  0.00  0.00    +0.000 A 
ATOM      8  C   UNL     1     -35.026  46.528 -14.156  0.00  0.00    +0.000 A 
ATOM      9  C   UNL     1     -34.573  45.231 -10.646  0.00  0.00    +0.000 A 
ATOM     10  C   UNL     1     -37.274  47.424 -14.254  0.00  0.00    +0.000 A 
ATOM     11  C   UNL     1     -34.308  45.552 -11.972  0.00  0.00    +0.000 A 
ENDROOT
BRANCH  10  12
ATOM     12  C   UNL     1     -38.429  48.060 -14.905  0.00  0.00    +0.000 A 
ATOM     13  C   UNL     1     -38.807  49.358 -14.546  0.00  0.00    +0.000 A 
ATOM     14  C   UNL     1     -39.176  47.383 -15.878  0.00  0.00    +0.000 A 
ATOM     15  C   UNL     1     -39.900  49.970 -15.162  0.00  0.00    +0.000 A 
ATOM     16  C   UNL     1     -40.270  48.000 -16.497  0.00  0.00    +0.000 A 
ATOM     17  C   UNL     1     -40.633  49.300 -16.144  0.00  0.00    +0.000 A 
BRANCH  17  18
ATOM     18  O   UNL     1     -41.673  50.015 -16.670  0.00  0.00    +0.000 OA
ATOM     19  C   UNL     1     -41.529  51.429 -16.698  0.00  0.00    +0.000 C 
ENDBRANCH  17  18
ENDBRANCH  10  12
BRANCH  11  20
ATOM     20  O   UNL     1     -33.063  45.231 -12.441  0.00  0.00    +0.000 OA
ATOM     21  H   UNL     1     -32.535  46.058 -12.508  0.00  0.00    +0.000 HD
ENDBRANCH  11  20
BRANCH   4  22
ATOM     22  C   UNL     1     -38.177  46.491 -10.273  0.00  0.00    +0.000 C 
BRANCH  22  23
ATOM     23  C   UNL     1     -38.213  47.846  -9.615  0.00  0.00    +0.000 C 
ATOM     24  C   UNL     1     -38.487  48.153  -8.332  0.00  0.00    +0.000 C 
ATOM     25  C   UNL     1     -38.822  47.167  -7.248  0.00  0.00    +0.000 C 
ATOM     26  C   UNL     1     -38.468  49.588  -7.873  0.00  0.00    +0.000 C 
ENDBRANCH  22  23
ENDBRANCH   4  22
BRANCH   5  27
ATOM     27  O   UNL     1     -35.943  47.486 -16.247  0.00  0.00    +0.000 OA
BRANCH  27  33
ATOM     28  O   UNL     1     -36.196  49.782 -16.772  0.00  0.00    +0.000 OA
ATOM     29  C   UNL     1     -34.907  48.359 -18.924  0.00  0.00    +0.000 C 
ATOM     30  C   UNL     1     -35.926  49.475 -19.188  0.00  0.00    +0.000 C 
ATOM     31  C   UNL     1     -34.216  48.551 -17.574  0.00  0.00    +0.000 C 
ATOM     32  C   UNL     1     -36.897  49.580 -18.006  0.00  0.00    +0.000 C 
ATOM     33  C   UNL     1     -35.269  48.733 -16.459  0.00  0.00    +0.000 C 
ATOM     34  C   UNL     1     -37.864  50.747 -18.179  0.00  0.00    +0.000 C 
BRANCH  29  35
ATOM     35  O   UNL     1     -33.933  48.375 -19.985  0.00  0.00    +0.000 OA
ATOM     36  H   UNL     1     -33.727  47.431 -20.149  0.00  0.00    +0.000 HD
ENDBRANCH  29  35
BRANCH  30  37
ATOM     37  O   UNL     1     -36.621  49.187 -20.407  0.00  0.00    +0.000 OA
ATOM     38  H   UNL     1     -35.957  48.757 -20.985  0.00  0.00    +0.000 HD
ENDBRANCH  30  37
BRANCH  31  39
ATOM     39  O   UNL     1     -33.342  49.693 -17.691  0.00  0.00    +0.000 OA
ATOM     40  H   UNL     1     -32.431  49.351 -17.765  0.00  0.00    +0.000 HD
ENDBRANCH  31  39
ENDBRANCH  27  33
ENDBRANCH   5  27
BRANCH   3  41
ATOM     41  O   UNL     1     -36.074  45.231  -8.780  0.00  0.00    +0.000 OA
BRANCH  41  47
ATOM     42  O   UNL     1     -35.156  43.360  -7.660  0.00  0.00    +0.000 OA
ATOM     43  C   UNL     1     -33.504  45.062  -6.069  0.00  0.00    +0.000 C 
ATOM     44  C   UNL     1     -33.728  43.591  -5.709  0.00  0.00    +0.000 C 
ATOM     45  C   UNL     1     -34.669  45.609  -6.891  0.00  0.00    +0.000 C 
ATOM     46  C   UNL     1     -34.021  42.791  -6.985  0.00  0.00    +0.000 C 
ATOM     47  C   UNL     1     -34.917  44.695  -8.106  0.00  0.00    +0.000 C 
BRANCH  44  48
ATOM     48  O   UNL     1     -32.570  43.094  -5.034  0.00  0.00    +0.000 OA
ATOM     49  H   UNL     1     -32.756  42.146  -4.873  0.00  0.00    +0.000 HD
ENDBRANCH  44  48
BRANCH  45  50
ATOM     50  O   UNL     1     -34.357  46.955  -7.284  0.00  0.00    +0.000 OA
ATOM     51  H   UNL     1     -35.187  47.328  -7.645  0.00  0.00    +0.000 HD
ENDBRANCH  45  50
BRANCH  43  52
ATOM     52  O   UNL     1     -33.349  45.821  -4.858  0.00  0.00    +0.000 OA
ATOM     53  H   UNL     1     -33.193  46.741  -5.152  0.00  0.00    +0.000 HD
ENDBRANCH  43  52
BRANCH  46  54
ATOM     54  C   UNL     1     -34.334  41.324  -6.660  0.00  0.00    +0.000 C 
BRANCH  54  55
ATOM     55  O   UNL     1     -33.117  40.611  -6.427  0.00  0.00    +0.000 OA
ATOM     56  H   UNL     1     -32.635  41.094  -5.735  0.00  0.00    +0.000 HD
ENDBRANCH  54  55
ENDBRANCH  46  54
ENDBRANCH  41  47
ENDBRANCH   3  41
TORSDOF 17
ENDMDL
MODEL 4
REMARK VINA RESULT:      -6.0     17.377     19.864
REMARK  Name = 
REMARK  21 active torsions:
REMARK  status: ('A' for Active; 'I' for Inactive)
REMARK    1  A    between atoms: O_3  and  C_22
REMARK    2  A    between atoms: O_3  and  C_28
REMARK    3  A    between atoms: O_4  and  C_25
REMARK    4  A    between atoms: O_4  and  C_30
REMARK    5  A    between atoms: O_5  and  C_16
REMARK    6  A    between atoms: O_6  and  C_17
REMARK    7  A    between atoms: O_7  and  C_18
REMARK    8  A    between atoms: O_8  and  C_20
REMARK    9  A    between atoms: O_9  and  C_21
REMARK   10  A    between atoms: O_10  and  C_23
REMARK   11  A    between atoms: O_11  and  C_26
REMARK   12  A    between atoms: O_13  and  C_36
REMARK   13  A    between atoms: O_15  and  C_45
REMARK   14  A    between atoms: O_15  and  C_48
REMARK   15  A    between atoms: C_19  and  C_26
REMARK   16  A    between atoms: C_24  and  C_27
REMARK   17  A    between atoms: C_29  and  C_37
REMARK   18  A    between atoms: C_35  and  C_38
REMARK   19  A    between atoms: C_37  and  C_39
REMARK   20  A    between atoms: C_42  and  C_46
REMARK   21  A    between atoms: C_42  and  C_47
REMARK                            x       y       z     vdW  Elec       q    Type
REMARK                         _______ _______ _______ _____ _____    ______ ____
ROOT
ATOM      1  O   UNL     1     -32.392  65.409  -7.522  0.00  0.00    +0.000 OA
ATOM      2  O   UNL     1     -32.531  61.947  -5.406  0.00  0.00    +0.000 OA
ATOM      3  C   UNL     1     -34.624  63.483  -9.688  0.00  0.00    +0.000 A 
ATOM      4  C   UNL     1     -33.847  64.547  -9.196  0.00  0.00    +0.000 A 
ATOM      5  C   UNL     1     -31.649  64.147  -5.599  0.00  0.00    +0.000 A 
ATOM      6  C   UNL     1     -33.145  64.358  -7.988  0.00  0.00    +0.000 A 
ATOM      7  C   UNL     1     -33.229  63.150  -7.296  0.00  0.00    +0.000 A 
ATOM      8  C   UNL     1     -32.472  62.995  -6.047  0.00  0.00    +0.000 A 
ATOM      9  C   UNL     1     -34.740  62.287  -8.974  0.00  0.00    +0.000 A 
ATOM     10  C   UNL     1     -31.641  65.246  -6.373  0.00  0.00    +0.000 A 
ATOM     11  C   UNL     1     -34.032  62.118  -7.789  0.00  0.00    +0.000 A 
ENDROOT
BRANCH  10  12
ATOM     12  C   UNL     1     -30.845  66.436  -6.036  0.00  0.00    +0.000 A 
ATOM     13  C   UNL     1     -31.463  67.547  -5.450  0.00  0.00    +0.000 A 
ATOM     14  C   UNL     1     -29.471  66.488  -6.303  0.00  0.00    +0.000 A 
ATOM     15  C   UNL     1     -30.713  68.679  -5.124  0.00  0.00    +0.000 A 
ATOM     16  C   UNL     1     -28.721  67.623  -5.972  0.00  0.00    +0.000 A 
ATOM     17  C   UNL     1     -29.339  68.722  -5.375  0.00  0.00    +0.000 A 
BRANCH  17  18
ATOM     18  O   UNL     1     -28.726  69.885  -5.001  0.00  0.00    +0.000 OA
ATOM     19  C   UNL     1     -27.641  69.774  -4.089  0.00  0.00    +0.000 C 
ENDBRANCH  17  18
ENDBRANCH  10  12
BRANCH  11  20
ATOM     20  O   UNL     1     -34.181  60.914  -7.156  0.00  0.00    +0.000 OA
ATOM     21  H   UNL     1     -33.287  60.562  -6.948  0.00  0.00    +0.000 HD
ENDBRANCH  11  20
BRANCH   4  22
ATOM     22  C   UNL     1     -33.725  65.854  -9.954  0.00  0.00    +0.000 C 
BRANCH  22  23
ATOM     23  C   UNL     1     -33.256  65.653 -11.372  0.00  0.00    +0.000 C 
ATOM     24  C   UNL     1     -32.014  65.380 -11.818  0.00  0.00    +0.000 C 
ATOM     25  C   UNL     1     -30.793  65.208 -10.959  0.00  0.00    +0.000 C 
ATOM     26  C   UNL     1     -31.756  65.213 -13.293  0.00  0.00    +0.000 C 
ENDBRANCH  22  23
ENDBRANCH   4  22
BRANCH   5  27
ATOM     27  O   UNL     1     -30.870  64.021  -4.462  0.00  0.00    +0.000 OA
BRANCH  27  33
ATOM     28  O   UNL     1     -31.694  65.337  -2.673  0.00  0.00    +0.000 OA
ATOM     29  C   UNL     1     -29.707  63.459  -1.754  0.00  0.00    +0.000 C 
ATOM     30  C   UNL     1     -29.798  64.882  -1.189  0.00  0.00    +0.000 C 
ATOM     31  C   UNL     1     -31.063  62.987  -2.279  0.00  0.00    +0.000 C 
ATOM     32  C   UNL     1     -30.415  65.817  -2.236  0.00  0.00    +0.000 C 
ATOM     33  C   UNL     1     -31.647  64.027  -3.258  0.00  0.00    +0.000 C 
ATOM     34  C   UNL     1     -30.621  67.222  -1.678  0.00  0.00    +0.000 C 
BRANCH  29  35
ATOM     35  O   UNL     1     -29.250  62.584  -0.706  0.00  0.00    +0.000 OA
ATOM     36  H   UNL     1     -30.017  62.492  -0.103  0.00  0.00    +0.000 HD
ENDBRANCH  29  35
BRANCH  30  37
ATOM     37  O   UNL     1     -28.484  65.316  -0.817  0.00  0.00    +0.000 OA
ATOM     38  H   UNL     1     -28.567  66.278  -0.657  0.00  0.00    +0.000 HD
ENDBRANCH  30  37
BRANCH  31  39
ATOM     39  O   UNL     1     -31.919  62.770  -1.138  0.00  0.00    +0.000 OA
ATOM     40  H   UNL     1     -31.740  63.488  -0.503  0.00  0.00    +0.000 HD
ENDBRANCH  31  39
ENDBRANCH  27  33
ENDBRANCH   5  27
BRANCH   3  41
ATOM     41  O   UNL     1     -35.357  63.664 -10.834  0.00  0.00    +0.000 OA
BRANCH  41  47
ATOM     42  O   UNL     1     -37.323  62.366 -10.615  0.00  0.00    +0.000 OA
ATOM     43  C   UNL     1     -38.919  64.533 -11.570  0.00  0.00    +0.000 C 
ATOM     44  C   UNL     1     -39.468  63.107 -11.481  0.00  0.00    +0.000 C 
ATOM     45  C   UNL     1     -37.398  64.527 -11.712  0.00  0.00    +0.000 C 
ATOM     46  C   UNL     1     -38.739  62.347 -10.364  0.00  0.00    +0.000 C 
ATOM     47  C   UNL     1     -36.777  63.684 -10.583  0.00  0.00    +0.000 C 
BRANCH  44  48
ATOM     48  O   UNL     1     -40.876  63.162 -11.243  0.00  0.00    +0.000 OA
ATOM     49  H   UNL     1     -40.975  63.679 -10.417  0.00  0.00    +0.000 HD
ENDBRANCH  44  48
BRANCH  45  50
ATOM     50  O   UNL     1     -36.933  65.887 -11.689  0.00  0.00    +0.000 OA
ATOM     51  H   UNL     1     -36.113  65.880 -11.156  0.00  0.00    +0.000 HD
ENDBRANCH  45  50
BRANCH  43  52
ATOM     52  O   UNL     1     -39.522  65.196 -12.693  0.00  0.00    +0.000 OA
ATOM     53  H   UNL     1     -39.498  64.540 -13.419  0.00  0.00    +0.000 HD
ENDBRANCH  43  52
BRANCH  46  54
ATOM     54  C   UNL     1     -39.201  60.886 -10.295  0.00  0.00    +0.000 C 
BRANCH  54  55
ATOM     55  O   UNL     1     -38.072  60.031 -10.102  0.00  0.00    +0.000 OA
ATOM     56  H   UNL     1     -37.302  60.492 -10.474  0.00  0.00    +0.000 HD
ENDBRANCH  54  55
ENDBRANCH  46  54
ENDBRANCH  41  47
ENDBRANCH   3  41
TORSDOF 17
ENDMDL
MODEL 5
REMARK VINA RESULT:      -6.0     20.696     22.366
REMARK  Name = 
REMARK  21 active torsions:
REMARK  status: ('A' for Active; 'I' for Inactive)
REMARK    1  A    between atoms: O_3  and  C_22
REMARK    2  A    between atoms: O_3  and  C_28
REMARK    3  A    between atoms: O_4  and  C_25
REMARK    4  A    between atoms: O_4  and  C_30
REMARK    5  A    between atoms: O_5  and  C_16
REMARK    6  A    between atoms: O_6  and  C_17
REMARK    7  A    between atoms: O_7  and  C_18
REMARK    8  A    between atoms: O_8  and  C_20
REMARK    9  A    between atoms: O_9  and  C_21
REMARK   10  A    between atoms: O_10  and  C_23
REMARK   11  A    between atoms: O_11  and  C_26
REMARK   12  A    between atoms: O_13  and  C_36
REMARK   13  A    between atoms: O_15  and  C_45
REMARK   14  A    between atoms: O_15  and  C_48
REMARK   15  A    between atoms: C_19  and  C_26
REMARK   16  A    between atoms: C_24  and  C_27
REMARK   17  A    between atoms: C_29  and  C_37
REMARK   18  A    between atoms: C_35  and  C_38
REMARK   19  A    between atoms: C_37  and  C_39
REMARK   20  A    between atoms: C_42  and  C_46
REMARK   21  A    between atoms: C_42  and  C_47
REMARK                            x       y       z     vdW  Elec       q    Type
REMARK                         _______ _______ _______ _____ _____    ______ ____
ROOT
ATOM      1  O   UNL     1     -29.893  63.983 -21.999  0.00  0.00    +0.000 OA
ATOM      2  O   UNL     1     -33.616  64.689 -23.457  0.00  0.00    +0.000 OA
ATOM      3  C   UNL     1     -29.872  61.656 -24.822  0.00  0.00    +0.000 A 
ATOM      4  C   UNL     1     -29.442  62.369 -23.688  0.00  0.00    +0.000 A 
ATOM      5  C   UNL     1     -31.989  65.169 -21.790  0.00  0.00    +0.000 A 
ATOM      6  C   UNL     1     -30.331  63.296 -23.105  0.00  0.00    +0.000 A 
ATOM      7  C   UNL     1     -31.599  63.504 -23.648  0.00  0.00    +0.000 A 
ATOM      8  C   UNL     1     -32.495  64.472 -23.000  0.00  0.00    +0.000 A 
ATOM      9  C   UNL     1     -31.127  61.895 -25.389  0.00  0.00    +0.000 A 
ATOM     10  C   UNL     1     -30.753  64.857 -21.362  0.00  0.00    +0.000 A 
ATOM     11  C   UNL     1     -31.992  62.807 -24.793  0.00  0.00    +0.000 A 
ENDROOT
BRANCH  10  12
ATOM     12  C   UNL     1     -30.162  65.470 -20.163  0.00  0.00    +0.000 A 
ATOM     13  C   UNL     1     -30.600  65.081 -18.892  0.00  0.00    +0.000 A 
ATOM     14  C   UNL     1     -29.169  66.452 -20.265  0.00  0.00    +0.000 A 
ATOM     15  C   UNL     1     -30.040  65.654 -17.748  0.00  0.00    +0.000 A 
ATOM     16  C   UNL     1     -28.607  67.023 -19.116  0.00  0.00    +0.000 A 
ATOM     17  C   UNL     1     -29.038  66.622 -17.852  0.00  0.00    +0.000 A 
BRANCH  17  18
ATOM     18  O   UNL     1     -28.574  67.095 -16.656  0.00  0.00    +0.000 OA
ATOM     19  C   UNL     1     -29.505  67.151 -15.583  0.00  0.00    +0.000 C 
ENDBRANCH  17  18
ENDBRANCH  10  12
BRANCH  11  20
ATOM     20  O   UNL     1     -33.210  62.974 -25.393  0.00  0.00    +0.000 OA
ATOM     21  H   UNL     1     -33.483  63.912 -25.281  0.00  0.00    +0.000 HD
ENDBRANCH  11  20
BRANCH   4  22
ATOM     22  C   UNL     1     -28.077  62.128 -23.073  0.00  0.00    +0.000 C 
BRANCH  22  23
ATOM     23  C   UNL     1     -27.046  63.111 -23.564  0.00  0.00    +0.000 C 
ATOM     24  C   UNL     1     -26.327  64.003 -22.855  0.00  0.00    +0.000 C 
ATOM     25  C   UNL     1     -26.405  64.206 -21.367  0.00  0.00    +0.000 C 
ATOM     26  C   UNL     1     -25.335  64.902 -23.546  0.00  0.00    +0.000 C 
ENDBRANCH  22  23
ENDBRANCH   4  22
BRANCH   5  27
ATOM     27  O   UNL     1     -32.823  66.040 -21.113  0.00  0.00    +0.000 OA
BRANCH  27  33
ATOM     28  O   UNL     1     -32.018  68.267 -21.040  0.00  0.00    +0.000 OA
ATOM     29  C   UNL     1     -34.808  68.146 -20.321  0.00  0.00    +0.000 C 
ATOM     30  C   UNL     1     -33.833  69.099 -19.619  0.00  0.00    +0.000 C 
ATOM     31  C   UNL     1     -34.340  67.824 -21.740  0.00  0.00    +0.000 C 
ATOM     32  C   UNL     1     -32.411  68.527 -19.685  0.00  0.00    +0.000 C 
ATOM     33  C   UNL     1     -32.875  67.338 -21.719  0.00  0.00    +0.000 C 
ATOM     34  C   UNL     1     -31.392  69.493 -19.091  0.00  0.00    +0.000 C 
BRANCH  29  35
ATOM     35  O   UNL     1     -36.104  68.771 -20.357  0.00  0.00    +0.000 OA
ATOM     36  H   UNL     1     -36.204  69.090 -21.278  0.00  0.00    +0.000 HD
ENDBRANCH  29  35
BRANCH  30  37
ATOM     37  O   UNL     1     -34.257  69.277 -18.262  0.00  0.00    +0.000 OA
ATOM     38  H   UNL     1     -34.141  68.401 -17.840  0.00  0.00    +0.000 HD
ENDBRANCH  30  37
BRANCH  31  39
ATOM     39  O   UNL     1     -34.509  69.016 -22.534  0.00  0.00    +0.000 OA
ATOM     40  H   UNL     1     -35.467  69.183 -22.603  0.00  0.00    +0.000 HD
ENDBRANCH  31  39
ENDBRANCH  27  33
ENDBRANCH   5  27
BRANCH   3  41
ATOM     41  O   UNL     1     -29.004  60.789 -25.436  0.00  0.00    +0.000 OA
BRANCH  41  47
ATOM     42  O   UNL     1     -29.956  60.432 -27.572  0.00  0.00    +0.000 OA
ATOM     43  C   UNL     1     -27.378  60.552 -28.796  0.00  0.00    +0.000 C 
ATOM     44  C   UNL     1     -28.599  60.007 -29.541  0.00  0.00    +0.000 C 
ATOM     45  C   UNL     1     -27.548  60.405 -27.285  0.00  0.00    +0.000 C 
ATOM     46  C   UNL     1     -29.871  60.664 -28.989  0.00  0.00    +0.000 C 
ATOM     47  C   UNL     1     -28.884  61.038 -26.852  0.00  0.00    +0.000 C 
BRANCH  44  48
ATOM     48  O   UNL     1     -28.444  60.260 -30.939  0.00  0.00    +0.000 OA
ATOM     49  H   UNL     1     -27.667  59.728 -31.211  0.00  0.00    +0.000 HD
ENDBRANCH  44  48
BRANCH  45  50
ATOM     50  O   UNL     1     -26.424  61.023 -26.638  0.00  0.00    +0.000 OA
ATOM     51  H   UNL     1     -26.425  60.687 -25.719  0.00  0.00    +0.000 HD
ENDBRANCH  45  50
BRANCH  43  52
ATOM     52  O   UNL     1     -26.208  59.845 -29.237  0.00  0.00    +0.000 OA
ATOM     53  H   UNL     1     -26.524  59.242 -29.939  0.00  0.00    +0.000 HD
ENDBRANCH  43  52
BRANCH  46  54
ATOM     54  C   UNL     1     -31.127  60.084 -29.653  0.00  0.00    +0.000 C 
BRANCH  54  55
ATOM     55  O   UNL     1     -30.891  58.725 -30.028  0.00  0.00    +0.000 OA
ATOM     56  H   UNL     1     -31.715  58.238 -29.857  0.00  0.00    +0.000 HD
ENDBRANCH  54  55
ENDBRANCH  46  54
ENDBRANCH  41  47
ENDBRANCH   3  41
TORSDOF 17
ENDMDL
MODEL 6
REMARK VINA RESULT:      -5.9      7.258     14.994
REMARK  Name = 
REMARK  21 active torsions:
REMARK  status: ('A' for Active; 'I' for Inactive)
REMARK    1  A    between atoms: O_3  and  C_22
REMARK    2  A    between atoms: O_3  and  C_28
REMARK    3  A    between atoms: O_4  and  C_25
REMARK    4  A    between atoms: O_4  and  C_30
REMARK    5  A    between atoms: O_5  and  C_16
REMARK    6  A    between atoms: O_6  and  C_17
REMARK    7  A    between atoms: O_7  and  C_18
REMARK    8  A    between atoms: O_8  and  C_20
REMARK    9  A    between atoms: O_9  and  C_21
REMARK   10  A    between atoms: O_10  and  C_23
REMARK   11  A    between atoms: O_11  and  C_26
REMARK   12  A    between atoms: O_13  and  C_36
REMARK   13  A    between atoms: O_15  and  C_45
REMARK   14  A    between atoms: O_15  and  C_48
REMARK   15  A    between atoms: C_19  and  C_26
REMARK   16  A    between atoms: C_24  and  C_27
REMARK   17  A    between atoms: C_29  and  C_37
REMARK   18  A    between atoms: C_35  and  C_38
REMARK   19  A    between atoms: C_37  and  C_39
REMARK   20  A    between atoms: C_42  and  C_46
REMARK   21  A    between atoms: C_42  and  C_47
REMARK                            x       y       z     vdW  Elec       q    Type
REMARK                         _______ _______ _______ _____ _____    ______ ____
ROOT
ATOM      1  O   UNL     1     -38.669  53.228 -21.513  0.00  0.00    +0.000 OA
ATOM      2  O   UNL     1     -39.027  56.524 -19.170  0.00  0.00    +0.000 OA
ATOM      3  C   UNL     1     -38.568  51.627 -18.224  0.00  0.00    +0.000 A 
ATOM      4  C   UNL     1     -38.562  51.788 -19.622  0.00  0.00    +0.000 A 
ATOM      5  C   UNL     1     -38.864  55.633 -21.369  0.00  0.00    +0.000 A 
ATOM      6  C   UNL     1     -38.676  53.091 -20.146  0.00  0.00    +0.000 A 
ATOM      7  C   UNL     1     -38.801  54.192 -19.297  0.00  0.00    +0.000 A 
ATOM      8  C   UNL     1     -38.905  55.532 -19.887  0.00  0.00    +0.000 A 
ATOM      9  C   UNL     1     -38.734  52.726 -17.376  0.00  0.00    +0.000 A 
ATOM     10  C   UNL     1     -38.719  54.493 -22.067  0.00  0.00    +0.000 A 
ATOM     11  C   UNL     1     -38.835  54.005 -17.913  0.00  0.00    +0.000 A 
ENDROOT
BRANCH  10  12
ATOM     12  C   UNL     1     -38.644  54.477 -23.536  0.00  0.00    +0.000 A 
ATOM     13  C   UNL     1     -37.436  54.776 -24.176  0.00  0.00    +0.000 A 
ATOM     14  C   UNL     1     -39.768  54.180 -24.317  0.00  0.00    +0.000 A 
ATOM     15  C   UNL     1     -37.354  54.760 -25.570  0.00  0.00    +0.000 A 
ATOM     16  C   UNL     1     -39.683  54.161 -25.714  0.00  0.00    +0.000 A 
ATOM     17  C   UNL     1     -38.472  54.446 -26.346  0.00  0.00    +0.000 A 
BRANCH  17  18
ATOM     18  O   UNL     1     -38.254  54.460 -27.696  0.00  0.00    +0.000 OA
ATOM     19  C   UNL     1     -37.029  55.029 -28.142  0.00  0.00    +0.000 C 
ENDBRANCH  17  18
ENDBRANCH  10  12
BRANCH  11  20
ATOM     20  O   UNL     1     -38.976  55.032 -17.020  0.00  0.00    +0.000 OA
ATOM     21  H   UNL     1     -38.844  55.880 -17.500  0.00  0.00    +0.000 HD
ENDBRANCH  11  20
BRANCH   4  22
ATOM     22  C   UNL     1     -38.398  50.601 -20.552  0.00  0.00    +0.000 C 
BRANCH  22  23
ATOM     23  C   UNL     1     -36.951  50.256 -20.792  0.00  0.00    +0.000 C 
ATOM     24  C   UNL     1     -36.210  50.454 -21.900  0.00  0.00    +0.000 C 
ATOM     25  C   UNL     1     -36.692  51.090 -23.174  0.00  0.00    +0.000 C 
ATOM     26  C   UNL     1     -34.763  50.033 -21.933  0.00  0.00    +0.000 C 
ENDBRANCH  22  23
ENDBRANCH   4  22
BRANCH   5  27
ATOM     27  O   UNL     1     -38.896  56.881 -21.964  0.00  0.00    +0.000 OA
BRANCH  27  33
ATOM     28  O   UNL     1     -40.215  57.784 -23.712  0.00  0.00    +0.000 OA
ATOM     29  C   UNL     1     -40.035  59.616 -21.493  0.00  0.00    +0.000 C 
ATOM     30  C   UNL     1     -40.017  60.103 -22.947  0.00  0.00    +0.000 C 
ATOM     31  C   UNL     1     -40.778  58.286 -21.365  0.00  0.00    +0.000 C 
ATOM     32  C   UNL     1     -39.466  58.998 -23.857  0.00  0.00    +0.000 C 
ATOM     33  C   UNL     1     -40.214  57.263 -22.375  0.00  0.00    +0.000 C 
ATOM     34  C   UNL     1     -39.529  59.401 -25.326  0.00  0.00    +0.000 C 
BRANCH  29  35
ATOM     35  O   UNL     1     -40.678  60.622 -20.687  0.00  0.00    +0.000 OA
ATOM     36  H   UNL     1     -40.579  61.453 -21.197  0.00  0.00    +0.000 HD
ENDBRANCH  29  35
BRANCH  30  37
ATOM     37  O   UNL     1     -39.217  61.288 -23.028  0.00  0.00    +0.000 OA
ATOM     38  H   UNL     1     -38.369  61.055 -22.598  0.00  0.00    +0.000 HD
ENDBRANCH  30  37
BRANCH  31  39
ATOM     39  O   UNL     1     -42.181  58.549 -21.579  0.00  0.00    +0.000 OA
ATOM     40  H   UNL     1     -42.280  58.851 -22.501  0.00  0.00    +0.000 HD
ENDBRANCH  31  39
ENDBRANCH  27  33
ENDBRANCH   5  27
BRANCH   3  41
ATOM     41  O   UNL     1     -38.511  50.363 -17.695  0.00  0.00    +0.000 OA
BRANCH  41  47
ATOM     42  O   UNL     1     -36.475  49.177 -17.903  0.00  0.00    +0.000 OA
ATOM     43  C   UNL     1     -36.234  48.993 -15.063  0.00  0.00    +0.000 C 
ATOM     44  C   UNL     1     -35.383  48.133 -16.001  0.00  0.00    +0.000 C 
ATOM     45  C   UNL     1     -37.540  49.410 -15.737  0.00  0.00    +0.000 C 
ATOM     46  C   UNL     1     -35.190  48.868 -17.335  0.00  0.00    +0.000 C 
ATOM     47  C   UNL     1     -37.233  50.074 -17.093  0.00  0.00    +0.000 C 
BRANCH  44  48
ATOM     48  O   UNL     1     -34.130  47.856 -15.372  0.00  0.00    +0.000 OA
ATOM     49  H   UNL     1     -33.833  48.714 -15.004  0.00  0.00    +0.000 HD
ENDBRANCH  44  48
BRANCH  45  50
ATOM     50  O   UNL     1     -38.248  50.293 -14.852  0.00  0.00    +0.000 OA
ATOM     51  H   UNL     1     -37.579  50.638 -14.227  0.00  0.00    +0.000 HD
ENDBRANCH  45  50
BRANCH  43  52
ATOM     52  O   UNL     1     -36.507  48.246 -13.866  0.00  0.00    +0.000 OA
ATOM     53  H   UNL     1     -37.365  48.589 -13.542  0.00  0.00    +0.000 HD
ENDBRANCH  43  52
BRANCH  46  54
ATOM     54  C   UNL     1     -34.410  48.005 -18.336  0.00  0.00    +0.000 C 
BRANCH  54  55
ATOM     55  O   UNL     1     -33.006  48.188 -18.140  0.00  0.00    +0.000 OA
ATOM     56  H   UNL     1     -32.562  47.824 -18.924  0.00  0.00    +0.000 HD
ENDBRANCH  54  55
ENDBRANCH  46  54
ENDBRANCH  41  47
ENDBRANCH   3  41
TORSDOF 17
ENDMDL
MODEL 7
REMARK VINA RESULT:      -5.9     20.174     23.516
REMARK  Name = 
REMARK  21 active torsions:
REMARK  status: ('A' for Active; 'I' for Inactive)
REMARK    1  A    between atoms: O_3  and  C_22
REMARK    2  A    between atoms: O_3  and  C_28
REMARK    3  A    between atoms: O_4  and  C_25
REMARK    4  A    between atoms: O_4  and  C_30
REMARK    5  A    between atoms: O_5  and  C_16
REMARK    6  A    between atoms: O_6  and  C_17
REMARK    7  A    between atoms: O_7  and  C_18
REMARK    8  A    between atoms: O_8  and  C_20
REMARK    9  A    between atoms: O_9  and  C_21
REMARK   10  A    between atoms: O_10  and  C_23
REMARK   11  A    between atoms: O_11  and  C_26
REMARK   12  A    between atoms: O_13  and  C_36
REMARK   13  A    between atoms: O_15  and  C_45
REMARK   14  A    between atoms: O_15  and  C_48
REMARK   15  A    between atoms: C_19  and  C_26
REMARK   16  A    between atoms: C_24  and  C_27
REMARK   17  A    between atoms: C_29  and  C_37
REMARK   18  A    between atoms: C_35  and  C_38
REMARK   19  A    between atoms: C_37  and  C_39
REMARK   20  A    between atoms: C_42  and  C_46
REMARK   21  A    between atoms: C_42  and  C_47
REMARK                            x       y       z     vdW  Elec       q    Type
REMARK                         _______ _______ _______ _____ _____    ______ ____
ROOT
ATOM      1  O   UNL     1     -27.923  61.670 -27.643  0.00  0.00    +0.000 OA
ATOM      2  O   UNL     1     -31.662  60.242 -26.959  0.00  0.00    +0.000 OA
ATOM      3  C   UNL     1     -28.311  59.581 -30.622  0.00  0.00    +0.000 A 
ATOM      4  C   UNL     1     -27.742  60.462 -29.686  0.00  0.00    +0.000 A 
ATOM      5  C   UNL     1     -29.853  61.580 -26.190  0.00  0.00    +0.000 A 
ATOM      6  C   UNL     1     -28.497  60.807 -28.546  0.00  0.00    +0.000 A 
ATOM      7  C   UNL     1     -29.780  60.292 -28.359  0.00  0.00    +0.000 A 
ATOM      8  C   UNL     1     -30.525  60.669 -27.151  0.00  0.00    +0.000 A 
ATOM      9  C   UNL     1     -29.613  59.098 -30.455  0.00  0.00    +0.000 A 
ATOM     10  C   UNL     1     -28.605  61.986 -26.483  0.00  0.00    +0.000 A 
ATOM     11  C   UNL     1     -30.337  59.442 -29.318  0.00  0.00    +0.000 A 
ENDROOT
BRANCH  10  12
ATOM     12  C   UNL     1     -27.839  62.870 -25.592  0.00  0.00    +0.000 A 
ATOM     13  C   UNL     1     -27.336  62.377 -24.383  0.00  0.00    +0.000 A 
ATOM     14  C   UNL     1     -27.609  64.211 -25.924  0.00  0.00    +0.000 A 
ATOM     15  C   UNL     1     -26.604  63.209 -23.533  0.00  0.00    +0.000 A 
ATOM     16  C   UNL     1     -26.872  65.042 -25.072  0.00  0.00    +0.000 A 
ATOM     17  C   UNL     1     -26.361  64.542 -23.874  0.00  0.00    +0.000 A 
BRANCH  17  18
ATOM     18  O   UNL     1     -25.627  65.242 -22.958  0.00  0.00    +0.000 OA
ATOM     19  C   UNL     1     -26.084  66.548 -22.632  0.00  0.00    +0.000 C 
ENDBRANCH  17  18
ENDBRANCH  10  12
BRANCH  11  20
ATOM     20  O   UNL     1     -31.596  58.915 -29.215  0.00  0.00    +0.000 OA
ATOM     21  H   UNL     1     -32.118  59.481 -28.604  0.00  0.00    +0.000 HD
ENDBRANCH  11  20
BRANCH   4  22
ATOM     22  C   UNL     1     -26.337  61.005 -29.864  0.00  0.00    +0.000 C 
BRANCH  22  23
ATOM     23  C   UNL     1     -26.305  62.241 -30.726  0.00  0.00    +0.000 C 
ATOM     24  C   UNL     1     -25.987  63.503 -30.376  0.00  0.00    +0.000 C 
ATOM     25  C   UNL     1     -25.579  63.955 -29.002  0.00  0.00    +0.000 C 
ATOM     26  C   UNL     1     -26.016  64.606 -31.403  0.00  0.00    +0.000 C 
ENDBRANCH  22  23
ENDBRANCH   4  22
BRANCH   5  27
ATOM     27  O   UNL     1     -30.494  61.910 -25.009  0.00  0.00    +0.000 OA
BRANCH  27  33
ATOM     28  O   UNL     1     -30.826  64.236 -24.706  0.00  0.00    +0.000 OA
ATOM     29  C   UNL     1     -32.477  62.706 -22.903  0.00  0.00    +0.000 C 
ATOM     30  C   UNL     1     -31.808  64.017 -22.471  0.00  0.00    +0.000 C 
ATOM     31  C   UNL     1     -32.714  62.678 -24.413  0.00  0.00    +0.000 C 
ATOM     32  C   UNL     1     -30.539  64.249 -23.301  0.00  0.00    +0.000 C 
ATOM     33  C   UNL     1     -31.405  63.005 -25.163  0.00  0.00    +0.000 C 
ATOM     34  C   UNL     1     -29.898  65.595 -22.978  0.00  0.00    +0.000 C 
BRANCH  29  35
ATOM     35  O   UNL     1     -33.729  62.585 -22.202  0.00  0.00    +0.000 OA
ATOM     36  H   UNL     1     -33.515  62.075 -21.393  0.00  0.00    +0.000 HD
ENDBRANCH  29  35
BRANCH  30  37
ATOM     37  O   UNL     1     -31.507  63.944 -21.073  0.00  0.00    +0.000 OA
ATOM     38  H   UNL     1     -30.871  64.670 -20.909  0.00  0.00    +0.000 HD
ENDBRANCH  30  37
BRANCH  31  39
ATOM     39  O   UNL     1     -33.763  63.625 -24.705  0.00  0.00    +0.000 OA
ATOM     40  H   UNL     1     -33.623  64.398 -24.127  0.00  0.00    +0.000 HD
ENDBRANCH  31  39
ENDBRANCH  27  33
ENDBRANCH   5  27
BRANCH   3  41
ATOM     41  O   UNL     1     -27.615  59.275 -31.764  0.00  0.00    +0.000 OA
BRANCH  41  47
ATOM     42  O   UNL     1     -28.495  57.523 -33.088  0.00  0.00    +0.000 OA
ATOM     43  C   UNL     1     -28.723  59.269 -35.336  0.00  0.00    +0.000 C 
ATOM     44  C   UNL     1     -28.825  57.749 -35.483  0.00  0.00    +0.000 C 
ATOM     45  C   UNL     1     -27.907  59.646 -34.101  0.00  0.00    +0.000 C 
ATOM     46  C   UNL     1     -29.355  57.143 -34.176  0.00  0.00    +0.000 C 
ATOM     47  C   UNL     1     -28.483  58.932 -32.864  0.00  0.00    +0.000 C 
BRANCH  44  48
ATOM     48  O   UNL     1     -29.682  57.443 -36.586  0.00  0.00    +0.000 OA
ATOM     49  H   UNL     1     -29.140  56.888 -37.184  0.00  0.00    +0.000 HD
ENDBRANCH  44  48
BRANCH  45  50
ATOM     50  O   UNL     1     -27.931  61.076 -33.958  0.00  0.00    +0.000 OA
ATOM     51  H   UNL     1     -28.874  61.320 -33.868  0.00  0.00    +0.000 HD
ENDBRANCH  45  50
BRANCH  43  52
ATOM     52  O   UNL     1     -28.116  59.813 -36.520  0.00  0.00    +0.000 OA
ATOM     53  H   UNL     1     -28.362  60.760 -36.521  0.00  0.00    +0.000 HD
ENDBRANCH  43  52
BRANCH  46  54
ATOM     54  C   UNL     1     -29.395  55.611 -34.252  0.00  0.00    +0.000 C 
BRANCH  54  55
ATOM     55  O   UNL     1     -28.072  55.102 -34.436  0.00  0.00    +0.000 OA
ATOM     56  H   UNL     1     -27.922  55.046 -35.395  0.00  0.00    +0.000 HD
ENDBRANCH  54  55
ENDBRANCH  46  54
ENDBRANCH  41  47
ENDBRANCH   3  41
TORSDOF 17
ENDMDL
MODEL 8
REMARK VINA RESULT:      -5.9     16.660     20.951
REMARK  Name = 
REMARK  21 active torsions:
REMARK  status: ('A' for Active; 'I' for Inactive)
REMARK    1  A    between atoms: O_3  and  C_22
REMARK    2  A    between atoms: O_3  and  C_28
REMARK    3  A    between atoms: O_4  and  C_25
REMARK    4  A    between atoms: O_4  and  C_30
REMARK    5  A    between atoms: O_5  and  C_16
REMARK    6  A    between atoms: O_6  and  C_17
REMARK    7  A    between atoms: O_7  and  C_18
REMARK    8  A    between atoms: O_8  and  C_20
REMARK    9  A    between atoms: O_9  and  C_21
REMARK   10  A    between atoms: O_10  and  C_23
REMARK   11  A    between atoms: O_11  and  C_26
REMARK   12  A    between atoms: O_13  and  C_36
REMARK   13  A    between atoms: O_15  and  C_45
REMARK   14  A    between atoms: O_15  and  C_48
REMARK   15  A    between atoms: C_19  and  C_26
REMARK   16  A    between atoms: C_24  and  C_27
REMARK   17  A    between atoms: C_29  and  C_37
REMARK   18  A    between atoms: C_35  and  C_38
REMARK   19  A    between atoms: C_37  and  C_39
REMARK   20  A    between atoms: C_42  and  C_46
REMARK   21  A    between atoms: C_42  and  C_47
REMARK                            x       y       z     vdW  Elec       q    Type
REMARK                         _______ _______ _______ _____ _____    ______ ____
ROOT
ATOM      1  O   UNL     1     -33.355  63.039  -4.204  0.00  0.00    +0.000 OA
ATOM      2  O   UNL     1     -31.798  64.654  -7.588  0.00  0.00    +0.000 OA
ATOM      3  C   UNL     1     -30.565  64.898  -2.740  0.00  0.00    +0.000 A 
ATOM      4  C   UNL     1     -31.701  64.075  -2.843  0.00  0.00    +0.000 A 
ATOM      5  C   UNL     1     -33.449  63.249  -6.610  0.00  0.00    +0.000 A 
ATOM      6  C   UNL     1     -32.245  63.844  -4.123  0.00  0.00    +0.000 A 
ATOM      7  C   UNL     1     -31.674  64.427  -5.255  0.00  0.00    +0.000 A 
ATOM      8  C   UNL     1     -32.268  64.149  -6.570  0.00  0.00    +0.000 A 
ATOM      9  C   UNL     1     -30.019  65.514  -3.870  0.00  0.00    +0.000 A 
ATOM     10  C   UNL     1     -33.885  62.739  -5.445  0.00  0.00    +0.000 A 
ATOM     11  C   UNL     1     -30.565  65.265  -5.124  0.00  0.00    +0.000 A 
ENDROOT
BRANCH  10  12
ATOM     12  C   UNL     1     -35.031  61.820  -5.371  0.00  0.00    +0.000 A 
ATOM     13  C   UNL     1     -36.206  62.220  -4.725  0.00  0.00    +0.000 A 
ATOM     14  C   UNL     1     -34.968  60.536  -5.928  0.00  0.00    +0.000 A 
ATOM     15  C   UNL     1     -37.300  61.355  -4.654  0.00  0.00    +0.000 A 
ATOM     16  C   UNL     1     -36.067  59.673  -5.859  0.00  0.00    +0.000 A 
ATOM     17  C   UNL     1     -37.241  60.082  -5.225  0.00  0.00    +0.000 A 
BRANCH  17  18
ATOM     18  O   UNL     1     -38.382  59.341  -5.090  0.00  0.00    +0.000 OA
ATOM     19  C   UNL     1     -38.228  58.000  -4.643  0.00  0.00    +0.000 C 
ENDBRANCH  17  18
ENDBRANCH  10  12
BRANCH  11  20
ATOM     20  O   UNL     1     -29.964  65.888  -6.185  0.00  0.00    +0.000 OA
ATOM     21  H   UNL     1     -29.294  66.516  -5.835  0.00  0.00    +0.000 HD
ENDBRANCH  11  20
BRANCH   4  22
ATOM     22  C   UNL     1     -32.312  63.414  -1.623  0.00  0.00    +0.000 C 
BRANCH  22  23
ATOM     23  C   UNL     1     -33.251  64.331  -0.884  0.00  0.00    +0.000 C 
ATOM     24  C   UNL     1     -34.593  64.255  -0.778  0.00  0.00    +0.000 C 
ATOM     25  C   UNL     1     -35.462  63.196  -1.397  0.00  0.00    +0.000 C 
ATOM     26  C   UNL     1     -35.352  65.284   0.019  0.00  0.00    +0.000 C 
ENDBRANCH  22  23
ENDBRANCH   4  22
BRANCH   5  27
ATOM     27  O   UNL     1     -34.000  62.911  -7.833  0.00  0.00    +0.000 OA
BRANCH  27  33
ATOM     28  O   UNL     1     -36.301  63.447  -8.012  0.00  0.00    +0.000 OA
ATOM     29  C   UNL     1     -35.159  62.886 -10.600  0.00  0.00    +0.000 C 
ATOM     30  C   UNL     1     -36.579  62.438 -10.228  0.00  0.00    +0.000 C 
ATOM     31  C   UNL     1     -34.742  64.119  -9.799  0.00  0.00    +0.000 C 
ATOM     32  C   UNL     1     -36.681  62.253  -8.709  0.00  0.00    +0.000 C 
ATOM     33  C   UNL     1     -34.959  63.872  -8.291  0.00  0.00    +0.000 C 
ATOM     34  C   UNL     1     -38.106  61.910  -8.284  0.00  0.00    +0.000 C 
BRANCH  29  35
ATOM     35  O   UNL     1     -35.132  63.178 -12.010  0.00  0.00    +0.000 OA
ATOM     36  H   UNL     1     -34.656  62.422 -12.414  0.00  0.00    +0.000 HD
ENDBRANCH  29  35
BRANCH  30  37
ATOM     37  O   UNL     1     -36.875  61.220 -10.921  0.00  0.00    +0.000 OA
ATOM     38  H   UNL     1     -36.262  61.202 -11.683  0.00  0.00    +0.000 HD
ENDBRANCH  30  37
BRANCH  31  39
ATOM     39  O   UNL     1     -35.513  65.236 -10.288  0.00  0.00    +0.000 OA
ATOM     40  H   UNL     1     -35.408  65.961  -9.644  0.00  0.00    +0.000 HD
ENDBRANCH  31  39
ENDBRANCH  27  33
ENDBRANCH   5  27
BRANCH   3  41
ATOM     41  O   UNL     1     -30.052  65.178  -1.499  0.00  0.00    +0.000 OA
BRANCH  41  47
ATOM     42  O   UNL     1     -29.417  63.484   0.027  0.00  0.00    +0.000 OA
ATOM     43  C   UNL     1     -26.667  64.210  -0.236  0.00  0.00    +0.000 C 
ATOM     44  C   UNL     1     -27.157  63.307   0.899  0.00  0.00    +0.000 C 
ATOM     45  C   UNL     1     -27.791  65.111  -0.744  0.00  0.00    +0.000 C 
ATOM     46  C   UNL     1     -28.410  62.546   0.443  0.00  0.00    +0.000 C 
ATOM     47  C   UNL     1     -29.017  64.252  -1.108  0.00  0.00    +0.000 C 
BRANCH  44  48
ATOM     48  O   UNL     1     -26.107  62.411   1.269  0.00  0.00    +0.000 OA
ATOM     49  H   UNL     1     -26.402  61.530   0.958  0.00  0.00    +0.000 HD
ENDBRANCH  44  48
BRANCH  45  50
ATOM     50  O   UNL     1     -27.303  65.859  -1.869  0.00  0.00    +0.000 OA
ATOM     51  H   UNL     1     -27.342  65.249  -2.633  0.00  0.00    +0.000 HD
ENDBRANCH  45  50
BRANCH  43  52
ATOM     52  O   UNL     1     -25.569  65.004   0.241  0.00  0.00    +0.000 OA
ATOM     53  H   UNL     1     -24.993  64.378   0.725  0.00  0.00    +0.000 HD
ENDBRANCH  43  52
BRANCH  46  54
ATOM     54  C   UNL     1     -28.983  61.690   1.580  0.00  0.00    +0.000 C 
BRANCH  54  55
ATOM     55  O   UNL     1     -28.512  60.346   1.458  0.00  0.00    +0.000 OA
ATOM     56  H   UNL     1     -29.017  59.935   0.736  0.00  0.00    +0.000 HD
ENDBRANCH  54  55
ENDBRANCH  46  54
ENDBRANCH  41  47
ENDBRANCH   3  41
TORSDOF 17
ENDMDL
MODEL 9
REMARK VINA RESULT:      -5.9     23.644     26.078
REMARK  Name = 
REMARK  21 active torsions:
REMARK  status: ('A' for Active; 'I' for Inactive)
REMARK    1  A    between atoms: O_3  and  C_22
REMARK    2  A    between atoms: O_3  and  C_28
REMARK    3  A    between atoms: O_4  and  C_25
REMARK    4  A    between atoms: O_4  and  C_30
REMARK    5  A    between atoms: O_5  and  C_16
REMARK    6  A    between atoms: O_6  and  C_17
REMARK    7  A    between atoms: O_7  and  C_18
REMARK    8  A    between atoms: O_8  and  C_20
REMARK    9  A    between atoms: O_9  and  C_21
REMARK   10  A    between atoms: O_10  and  C_23
REMARK   11  A    between atoms: O_11  and  C_26
REMARK   12  A    between atoms: O_13  and  C_36
REMARK   13  A    between atoms: O_15  and  C_45
REMARK   14  A    between atoms: O_15  and  C_48
REMARK   15  A    between atoms: C_19  and  C_26
REMARK   16  A    between atoms: C_24  and  C_27
REMARK   17  A    between atoms: C_29  and  C_37
REMARK   18  A    between atoms: C_35  and  C_38
REMARK   19  A    between atoms: C_37  and  C_39
REMARK   20  A    between atoms: C_42  and  C_46
REMARK   21  A    between atoms: C_42  and  C_47
REMARK                            x       y       z     vdW  Elec       q    Type
REMARK                         _______ _______ _______ _____ _____    ______ ____
ROOT
ATOM      1  O   UNL     1     -17.292  54.827 -26.679  0.00  0.00    +0.000 OA
ATOM      2  O   UNL     1     -17.702  58.685 -27.877  0.00  0.00    +0.000 OA
ATOM      3  C   UNL     1     -18.830  54.268 -29.952  0.00  0.00    +0.000 A 
ATOM      4  C   UNL     1     -18.255  54.007 -28.695  0.00  0.00    +0.000 A 
ATOM      5  C   UNL     1     -17.015  57.174 -26.174  0.00  0.00    +0.000 A 
ATOM      6  C   UNL     1     -17.852  55.102 -27.904  0.00  0.00    +0.000 A 
ATOM      7  C   UNL     1     -18.011  56.410 -28.363  0.00  0.00    +0.000 A 
ATOM      8  C   UNL     1     -17.587  57.519 -27.500  0.00  0.00    +0.000 A 
ATOM      9  C   UNL     1     -18.951  55.577 -30.429  0.00  0.00    +0.000 A 
ATOM     10  C   UNL     1     -16.938  55.872 -25.848  0.00  0.00    +0.000 A 
ATOM     11  C   UNL     1     -18.556  56.643 -29.629  0.00  0.00    +0.000 A 
ENDROOT
BRANCH  10  12
ATOM     12  C   UNL     1     -16.409  55.418 -24.552  0.00  0.00    +0.000 A 
ATOM     13  C   UNL     1     -16.750  56.104 -23.381  0.00  0.00    +0.000 A 
ATOM     14  C   UNL     1     -15.555  54.312 -24.465  0.00  0.00    +0.000 A 
ATOM     15  C   UNL     1     -16.256  55.677 -22.146  0.00  0.00    +0.000 A 
ATOM     16  C   UNL     1     -15.064  53.884 -23.226  0.00  0.00    +0.000 A 
ATOM     17  C   UNL     1     -15.418  54.563 -22.059  0.00  0.00    +0.000 A 
BRANCH  17  18
ATOM     18  O   UNL     1     -15.012  54.250 -20.792  0.00  0.00    +0.000 OA
ATOM     19  C   UNL     1     -14.781  55.337 -19.905  0.00  0.00    +0.000 C 
ENDBRANCH  17  18
ENDBRANCH  10  12
BRANCH  11  20
ATOM     20  O   UNL     1     -18.723  57.895 -30.155  0.00  0.00    +0.000 OA
ATOM     21  H   UNL     1     -17.980  58.072 -30.773  0.00  0.00    +0.000 HD
ENDBRANCH  11  20
BRANCH   4  22
ATOM     22  C   UNL     1     -18.104  52.591 -28.174  0.00  0.00    +0.000 C 
BRANCH  22  23
ATOM     23  C   UNL     1     -16.723  52.037 -28.410  0.00  0.00    +0.000 C 
ATOM     24  C   UNL     1     -15.924  51.372 -27.552  0.00  0.00    +0.000 C 
ATOM     25  C   UNL     1     -16.262  51.027 -26.128  0.00  0.00    +0.000 C 
ATOM     26  C   UNL     1     -14.564  50.897 -27.993  0.00  0.00    +0.000 C 
ENDBRANCH  22  23
ENDBRANCH   4  22
BRANCH   5  27
ATOM     27  O   UNL     1     -16.661  58.190 -25.304  0.00  0.00    +0.000 OA
BRANCH  27  33
ATOM     28  O   UNL     1     -14.357  58.352 -24.777  0.00  0.00    +0.000 OA
ATOM     29  C   UNL     1     -15.740  60.807 -24.161  0.00  0.00    +0.000 C 
ATOM     30  C   UNL     1     -14.623  60.261 -23.263  0.00  0.00    +0.000 C 
ATOM     31  C   UNL     1     -15.569  60.333 -25.605  0.00  0.00    +0.000 C 
ATOM     32  C   UNL     1     -14.541  58.736 -23.408  0.00  0.00    +0.000 C 
ATOM     33  C   UNL     1     -15.409  58.798 -25.645  0.00  0.00    +0.000 C 
ATOM     34  C   UNL     1     -13.373  58.162 -22.612  0.00  0.00    +0.000 C 
BRANCH  29  35
ATOM     35  O   UNL     1     -15.703  62.245 -24.105  0.00  0.00    +0.000 OA
ATOM     36  H   UNL     1     -14.751  62.470 -24.053  0.00  0.00    +0.000 HD
ENDBRANCH  29  35
BRANCH  30  37
ATOM     37  O   UNL     1     -14.892  60.640 -21.909  0.00  0.00    +0.000 OA
ATOM     38  H   UNL     1     -14.170  61.254 -21.666  0.00  0.00    +0.000 HD
ENDBRANCH  30  37
BRANCH  31  39
ATOM     39  O   UNL     1     -14.423  61.017 -26.154  0.00  0.00    +0.000 OA
ATOM     40  H   UNL     1     -14.459  60.905 -27.122  0.00  0.00    +0.000 HD
ENDBRANCH  31  39
ENDBRANCH  27  33
ENDBRANCH   5  27
BRANCH   3  41
ATOM     41  O   UNL     1     -19.180  53.216 -30.760  0.00  0.00    +0.000 OA
BRANCH  41  47
ATOM     42  O   UNL     1     -21.339  53.225 -31.728  0.00  0.00    +0.000 OA
ATOM     43  C   UNL     1     -20.215  53.247 -34.354  0.00  0.00    +0.000 C 
ATOM     44  C   UNL     1     -21.691  52.921 -34.112  0.00  0.00    +0.000 C 
ATOM     45  C   UNL     1     -19.375  52.929 -33.119  0.00  0.00    +0.000 C 
ATOM     46  C   UNL     1     -22.168  53.624 -32.833  0.00  0.00    +0.000 C 
ATOM     47  C   UNL     1     -19.980  53.629 -31.888  0.00  0.00    +0.000 C 
BRANCH  44  48
ATOM     48  O   UNL     1     -22.453  53.331 -35.249  0.00  0.00    +0.000 OA
ATOM     49  H   UNL     1     -23.170  53.893 -34.888  0.00  0.00    +0.000 HD
ENDBRANCH  44  48
BRANCH  45  50
ATOM     50  O   UNL     1     -18.023  53.349 -33.368  0.00  0.00    +0.000 OA
ATOM     51  H   UNL     1     -18.072  53.987 -34.107  0.00  0.00    +0.000 HD
ENDBRANCH  45  50
BRANCH  43  52
ATOM     52  O   UNL     1     -19.749  52.491 -35.483  0.00  0.00    +0.000 OA
ATOM     53  H   UNL     1     -19.759  51.558 -35.186  0.00  0.00    +0.000 HD
ENDBRANCH  43  52
BRANCH  46  54
ATOM     54  C   UNL     1     -23.622  53.256 -32.508  0.00  0.00    +0.000 C 
BRANCH  54  55
ATOM     55  O   UNL     1     -23.862  51.888 -32.846  0.00  0.00    +0.000 OA
ATOM     56  H   UNL     1     -23.137  51.370 -32.457  0.00  0.00    +0.000 HD
ENDBRANCH  54  55
ENDBRANCH  46  54
ENDBRANCH  41  47
ENDBRANCH   3  41
TORSDOF 17
ENDMDL
