MODEL 1
REMARK VINA RESULT:      -6.7      0.000      0.000
REMARK  Name = 
REMARK  9 active torsions:
REMARK  status: ('A' for Active; 'I' for Inactive)
REMARK    1  A    between atoms: O_1  and  N_7
REMARK    2  A    between atoms: O_1  and  C_20
REMARK    3  A    between atoms: O_2  and  C_14
REMARK    4  A    between atoms: O_3  and  C_18
REMARK    5  A    between atoms: O_4  and  C_25
REMARK    6  A    between atoms: C_8  and  C_10
REMARK    7  A    between atoms: C_17  and  C_18
REMARK    8  A    between atoms: C_17  and  C_20
REMARK    9  A    between atoms: C_18  and  C_25
REMARK                            x       y       z     vdW  Elec       q    Type
REMARK                         _______ _______ _______ _____ _____    ______ ____
ROOT
ATOM      1  N   UNL     1     -33.174  45.560 -14.769  0.00  0.00    +0.000 NA
ATOM      2  N   UNL     1     -32.744  46.916 -18.018  0.00  0.00    +0.000 NA
ATOM      3  C   UNL     1     -32.524  45.645 -15.903  0.00  0.00    +0.000 C 
ATOM      4  C   UNL     1     -33.117  46.721 -16.794  0.00  0.00    +0.000 C 
ATOM      5  C   UNL     1     -34.164  47.321 -15.978  0.00  0.00    +0.000 A 
ATOM      6  C   UNL     1     -34.151  46.570 -14.802  0.00  0.00    +0.000 A 
ATOM      7  C   UNL     1     -35.052  48.362 -16.183  0.00  0.00    +0.000 A 
ATOM      8  C   UNL     1     -35.046  46.853 -13.786  0.00  0.00    +0.000 A 
ATOM      9  C   UNL     1     -35.956  48.651 -15.157  0.00  0.00    +0.000 A 
ATOM     10  C   UNL     1     -35.954  47.901 -13.968  0.00  0.00    +0.000 A 
ENDROOT
BRANCH   3  12
ATOM     11  N   UNL     1     -29.423  43.771 -16.055  0.00  0.00    +0.000 N 
ATOM     12  C   UNL     1     -31.413  44.766 -16.181  0.00  0.00    +0.000 A 
ATOM     13  C   UNL     1     -31.334  43.750 -17.192  0.00  0.00    +0.000 A 
ATOM     14  C   UNL     1     -30.076  43.156 -17.096  0.00  0.00    +0.000 A 
ATOM     15  C   UNL     1     -30.220  44.726 -15.480  0.00  0.00    +0.000 A 
ATOM     16  C   UNL     1     -32.214  43.286 -18.195  0.00  0.00    +0.000 A 
ATOM     17  C   UNL     1     -29.653  42.125 -17.944  0.00  0.00    +0.000 A 
ATOM     18  C   UNL     1     -31.809  42.257 -19.052  0.00  0.00    +0.000 A 
ATOM     19  C   UNL     1     -30.545  41.687 -18.926  0.00  0.00    +0.000 A 
ATOM     20  H   UNL     1     -28.494  43.521 -15.751  0.00  0.00    +0.000 HD
BRANCH  15  21
ATOM     21  O   UNL     1     -29.828  45.411 -14.411  0.00  0.00    +0.000 OA
ATOM     22  H   UNL     1     -29.614  46.326 -14.652  0.00  0.00    +0.000 HD
ENDBRANCH  15  21
ENDBRANCH   3  12
BRANCH   2  23
ATOM     23  O   UNL     1     -33.474  47.932 -18.639  0.00  0.00    +0.000 OA
BRANCH  23  24
ATOM     24  C   UNL     1     -34.171  47.371 -19.748  0.00  0.00    +0.000 C 
BRANCH  24  25
ATOM     25  C   UNL     1     -34.814  48.487 -20.558  0.00  0.00    +0.000 C 
BRANCH  25  26
ATOM     26  C   UNL     1     -34.821  49.846 -19.856  0.00  0.00    +0.000 C 
BRANCH  26  27
ATOM     27  O   UNL     1     -34.226  50.804 -20.746  0.00  0.00    +0.000 OA
ATOM     28  H   UNL     1     -33.724  51.403 -20.158  0.00  0.00    +0.000 HD
ENDBRANCH  26  27
BRANCH  26  29
ATOM     29  C   UNL     1     -36.218  50.346 -19.478  0.00  0.00    +0.000 C 
BRANCH  29  30
ATOM     30  O   UNL     1     -36.112  51.083 -18.255  0.00  0.00    +0.000 OA
ATOM     31  H   UNL     1     -36.667  51.877 -18.360  0.00  0.00    +0.000 HD
ENDBRANCH  29  30
ENDBRANCH  26  29
ENDBRANCH  25  26
ENDBRANCH  24  25
ENDBRANCH  23  24
ENDBRANCH   2  23
TORSDOF 9
ENDMDL
MODEL 2
REMARK VINA RESULT:      -6.6      1.932      6.366
REMARK  Name = 
REMARK  9 active torsions:
REMARK  status: ('A' for Active; 'I' for Inactive)
REMARK    1  A    between atoms: O_1  and  N_7
REMARK    2  A    between atoms: O_1  and  C_20
REMARK    3  A    between atoms: O_2  and  C_14
REMARK    4  A    between atoms: O_3  and  C_18
REMARK    5  A    between atoms: O_4  and  C_25
REMARK    6  A    between atoms: C_8  and  C_10
REMARK    7  A    between atoms: C_17  and  C_18
REMARK    8  A    between atoms: C_17  and  C_20
REMARK    9  A    between atoms: C_18  and  C_25
REMARK                            x       y       z     vdW  Elec       q    Type
REMARK                         _______ _______ _______ _____ _____    ______ ____
ROOT
ATOM      1  N   UNL     1     -35.251  48.094 -16.475  0.00  0.00    +0.000 NA
ATOM      2  N   UNL     1     -32.615  46.495 -18.230  0.00  0.00    +0.000 NA
ATOM      3  C   UNL     1     -34.570  47.868 -17.570  0.00  0.00    +0.000 C 
ATOM      4  C   UNL     1     -33.508  46.807 -17.344  0.00  0.00    +0.000 C 
ATOM      5  C   UNL     1     -33.721  46.378 -15.969  0.00  0.00    +0.000 A 
ATOM      6  C   UNL     1     -34.755  47.196 -15.514  0.00  0.00    +0.000 A 
ATOM      7  C   UNL     1     -33.118  45.428 -15.164  0.00  0.00    +0.000 A 
ATOM      8  C   UNL     1     -35.216  47.077 -14.215  0.00  0.00    +0.000 A 
ATOM      9  C   UNL     1     -33.582  45.305 -13.852  0.00  0.00    +0.000 A 
ATOM     10  C   UNL     1     -34.622  46.124 -13.380  0.00  0.00    +0.000 A 
ENDROOT
BRANCH   3  12
ATOM     11  N   UNL     1     -35.335  50.272 -20.176  0.00  0.00    +0.000 N 
ATOM     12  C   UNL     1     -34.859  48.601 -18.780  0.00  0.00    +0.000 A 
ATOM     13  C   UNL     1     -34.922  48.087 -20.119  0.00  0.00    +0.000 A 
ATOM     14  C   UNL     1     -35.233  49.151 -20.965  0.00  0.00    +0.000 A 
ATOM     15  C   UNL     1     -35.091  49.963 -18.863  0.00  0.00    +0.000 A 
ATOM     16  C   UNL     1     -34.756  46.808 -20.693  0.00  0.00    +0.000 A 
ATOM     17  C   UNL     1     -35.385  49.006 -22.349  0.00  0.00    +0.000 A 
ATOM     18  C   UNL     1     -34.904  46.642 -22.074  0.00  0.00    +0.000 A 
ATOM     19  C   UNL     1     -35.215  47.728 -22.889  0.00  0.00    +0.000 A 
ATOM     20  H   UNL     1     -35.534  51.193 -20.535  0.00  0.00    +0.000 HD
BRANCH  15  21
ATOM     21  O   UNL     1     -35.069  50.897 -17.919  0.00  0.00    +0.000 OA
ATOM     22  H   UNL     1     -35.062  50.491 -17.037  0.00  0.00    +0.000 HD
ENDBRANCH  15  21
ENDBRANCH   3  12
BRANCH   2  23
ATOM     23  O   UNL     1     -31.723  45.527 -17.763  0.00  0.00    +0.000 OA
BRANCH  23  24
ATOM     24  C   UNL     1     -31.575  44.530 -18.770  0.00  0.00    +0.000 C 
BRANCH  24  25
ATOM     25  C   UNL     1     -30.857  43.323 -18.184  0.00  0.00    +0.000 C 
BRANCH  25  26
ATOM     26  C   UNL     1     -29.378  43.562 -17.879  0.00  0.00    +0.000 C 
BRANCH  26  27
ATOM     27  O   UNL     1     -29.044  44.883 -18.332  0.00  0.00    +0.000 OA
ATOM     28  H   UNL     1     -28.067  44.883 -18.379  0.00  0.00    +0.000 HD
ENDBRANCH  26  27
BRANCH  26  29
ATOM     29  C   UNL     1     -29.024  43.461 -16.392  0.00  0.00    +0.000 C 
BRANCH  29  30
ATOM     30  O   UNL     1     -29.731  44.491 -15.694  0.00  0.00    +0.000 OA
ATOM     31  H   UNL     1     -29.202  45.304 -15.787  0.00  0.00    +0.000 HD
ENDBRANCH  29  30
ENDBRANCH  26  29
ENDBRANCH  25  26
ENDBRANCH  24  25
ENDBRANCH  23  24
ENDBRANCH   2  23
TORSDOF 9
ENDMDL
MODEL 3
REMARK VINA RESULT:      -6.1      1.693      2.547
REMARK  Name = 
REMARK  9 active torsions:
REMARK  status: ('A' for Active; 'I' for Inactive)
REMARK    1  A    between atoms: O_1  and  N_7
REMARK    2  A    between atoms: O_1  and  C_20
REMARK    3  A    between atoms: O_2  and  C_14
REMARK    4  A    between atoms: O_3  and  C_18
REMARK    5  A    between atoms: O_4  and  C_25
REMARK    6  A    between atoms: C_8  and  C_10
REMARK    7  A    between atoms: C_17  and  C_18
REMARK    8  A    between atoms: C_17  and  C_20
REMARK    9  A    between atoms: C_18  and  C_25
REMARK                            x       y       z     vdW  Elec       q    Type
REMARK                         _______ _______ _______ _____ _____    ______ ____
ROOT
ATOM      1  N   UNL     1     -32.614  43.982 -15.612  0.00  0.00    +0.000 NA
ATOM      2  N   UNL     1     -32.536  46.359 -18.244  0.00  0.00    +0.000 NA
ATOM      3  C   UNL     1     -32.199  44.382 -16.788  0.00  0.00    +0.000 C 
ATOM      4  C   UNL     1     -32.694  45.784 -17.094  0.00  0.00    +0.000 C 
ATOM      5  C   UNL     1     -33.393  46.187 -15.881  0.00  0.00    +0.000 A 
ATOM      6  C   UNL     1     -33.320  45.063 -15.058  0.00  0.00    +0.000 A 
ATOM      7  C   UNL     1     -34.042  47.347 -15.497  0.00  0.00    +0.000 A 
ATOM      8  C   UNL     1     -33.907  45.080 -13.805  0.00  0.00    +0.000 A 
ATOM      9  C   UNL     1     -34.635  47.366 -14.232  0.00  0.00    +0.000 A 
ATOM     10  C   UNL     1     -34.569  46.241 -13.392  0.00  0.00    +0.000 A 
ENDROOT
BRANCH   3  12
ATOM     11  N   UNL     1     -30.625  42.409 -19.392  0.00  0.00    +0.000 N 
ATOM     12  C   UNL     1     -31.396  43.516 -17.619  0.00  0.00    +0.000 A 
ATOM     13  C   UNL     1     -30.244  42.754 -17.228  0.00  0.00    +0.000 A 
ATOM     14  C   UNL     1     -29.794  42.064 -18.354  0.00  0.00    +0.000 A 
ATOM     15  C   UNL     1     -31.580  43.299 -18.973  0.00  0.00    +0.000 A 
ATOM     16  C   UNL     1     -29.547  42.572 -16.014  0.00  0.00    +0.000 A 
ATOM     17  C   UNL     1     -28.686  41.208 -18.331  0.00  0.00    +0.000 A 
ATOM     18  C   UNL     1     -28.438  41.721 -15.971  0.00  0.00    +0.000 A 
ATOM     19  C   UNL     1     -28.015  41.049 -17.115  0.00  0.00    +0.000 A 
ATOM     20  H   UNL     1     -30.514  42.068 -20.335  0.00  0.00    +0.000 HD
BRANCH  15  21
ATOM     21  O   UNL     1     -32.459  43.828 -19.817  0.00  0.00    +0.000 OA
ATOM     22  H   UNL     1     -32.429  43.370 -20.672  0.00  0.00    +0.000 HD
ENDBRANCH  15  21
ENDBRANCH   3  12
BRANCH   2  23
ATOM     23  O   UNL     1     -33.122  47.626 -18.287  0.00  0.00    +0.000 OA
BRANCH  23  24
ATOM     24  C   UNL     1     -34.116  47.626 -19.308  0.00  0.00    +0.000 C 
BRANCH  24  25
ATOM     25  C   UNL     1     -35.375  48.305 -18.788  0.00  0.00    +0.000 C 
BRANCH  25  26
ATOM     26  C   UNL     1     -35.435  49.808 -19.066  0.00  0.00    +0.000 C 
BRANCH  26  27
ATOM     27  O   UNL     1     -34.347  50.428 -18.364  0.00  0.00    +0.000 OA
ATOM     28  H   UNL     1     -34.752  50.770 -17.541  0.00  0.00    +0.000 HD
ENDBRANCH  26  27
BRANCH  26  29
ATOM     29  C   UNL     1     -35.318  50.174 -20.549  0.00  0.00    +0.000 C 
BRANCH  29  30
ATOM     30  O   UNL     1     -34.108  50.918 -20.730  0.00  0.00    +0.000 OA
ATOM     31  H   UNL     1     -33.519  50.674 -19.994  0.00  0.00    +0.000 HD
ENDBRANCH  29  30
ENDBRANCH  26  29
ENDBRANCH  25  26
ENDBRANCH  24  25
ENDBRANCH  23  24
ENDBRANCH   2  23
TORSDOF 9
ENDMDL
MODEL 4
REMARK VINA RESULT:      -6.1      5.585      8.950
REMARK  Name = 
REMARK  9 active torsions:
REMARK  status: ('A' for Active; 'I' for Inactive)
REMARK    1  A    between atoms: O_1  and  N_7
REMARK    2  A    between atoms: O_1  and  C_20
REMARK    3  A    between atoms: O_2  and  C_14
REMARK    4  A    between atoms: O_3  and  C_18
REMARK    5  A    between atoms: O_4  and  C_25
REMARK    6  A    between atoms: C_8  and  C_10
REMARK    7  A    between atoms: C_17  and  C_18
REMARK    8  A    between atoms: C_17  and  C_20
REMARK    9  A    between atoms: C_18  and  C_25
REMARK                            x       y       z     vdW  Elec       q    Type
REMARK                         _______ _______ _______ _____ _____    ______ ____
ROOT
ATOM      1  N   UNL     1     -36.959  46.616 -11.715  0.00  0.00    +0.000 NA
ATOM      2  N   UNL     1     -35.142  46.183  -8.699  0.00  0.00    +0.000 NA
ATOM      3  C   UNL     1     -35.999  46.058 -11.021  0.00  0.00    +0.000 C 
ATOM      4  C   UNL     1     -36.055  46.487  -9.566  0.00  0.00    +0.000 C 
ATOM      5  C   UNL     1     -37.250  47.316  -9.486  0.00  0.00    +0.000 A 
ATOM      6  C   UNL     1     -37.720  47.361 -10.799  0.00  0.00    +0.000 A 
ATOM      7  C   UNL     1     -37.879  47.983  -8.450  0.00  0.00    +0.000 A 
ATOM      8  C   UNL     1     -38.855  48.091 -11.106  0.00  0.00    +0.000 A 
ATOM      9  C   UNL     1     -39.025  48.720  -8.757  0.00  0.00    +0.000 A 
ATOM     10  C   UNL     1     -39.509  48.775 -10.076  0.00  0.00    +0.000 A 
ENDROOT
BRANCH   3  12
ATOM     11  N   UNL     1     -33.731  43.427 -12.064  0.00  0.00    +0.000 N 
ATOM     12  C   UNL     1     -35.046  45.179 -11.658  0.00  0.00    +0.000 A 
ATOM     13  C   UNL     1     -34.361  45.388 -12.902  0.00  0.00    +0.000 A 
ATOM     14  C   UNL     1     -33.539  44.283 -13.121  0.00  0.00    +0.000 A 
ATOM     15  C   UNL     1     -34.651  43.940 -11.186  0.00  0.00    +0.000 A 
ATOM     16  C   UNL     1     -34.351  46.425 -13.860  0.00  0.00    +0.000 A 
ATOM     17  C   UNL     1     -32.712  44.159 -14.244  0.00  0.00    +0.000 A 
ATOM     18  C   UNL     1     -33.532  46.318 -14.990  0.00  0.00    +0.000 A 
ATOM     19  C   UNL     1     -32.724  45.200 -15.177  0.00  0.00    +0.000 A 
ATOM     20  H   UNL     1     -33.272  42.533 -11.977  0.00  0.00    +0.000 HD
BRANCH  15  21
ATOM     21  O   UNL     1     -35.050  43.260 -10.117  0.00  0.00    +0.000 OA
ATOM     22  H   UNL     1     -34.664  43.636  -9.310  0.00  0.00    +0.000 HD
ENDBRANCH  15  21
ENDBRANCH   3  12
BRANCH   2  23
ATOM     23  O   UNL     1     -35.401  46.736  -7.443  0.00  0.00    +0.000 OA
BRANCH  23  24
ATOM     24  C   UNL     1     -35.754  45.682  -6.552  0.00  0.00    +0.000 C 
BRANCH  24  25
ATOM     25  C   UNL     1     -34.562  45.349  -5.666  0.00  0.00    +0.000 C 
BRANCH  25  26
ATOM     26  C   UNL     1     -33.632  44.281  -6.244  0.00  0.00    +0.000 C 
BRANCH  26  27
ATOM     27  O   UNL     1     -34.259  43.740  -7.417  0.00  0.00    +0.000 OA
ATOM     28  H   UNL     1     -33.702  42.973  -7.658  0.00  0.00    +0.000 HD
ENDBRANCH  26  27
BRANCH  26  29
ATOM     29  C   UNL     1     -32.248  44.807  -6.639  0.00  0.00    +0.000 C 
BRANCH  29  30
ATOM     30  O   UNL     1     -32.425  45.834  -7.619  0.00  0.00    +0.000 OA
ATOM     31  H   UNL     1     -32.837  45.411  -8.394  0.00  0.00    +0.000 HD
ENDBRANCH  29  30
ENDBRANCH  26  29
ENDBRANCH  25  26
ENDBRANCH  24  25
ENDBRANCH  23  24
ENDBRANCH   2  23
TORSDOF 9
ENDMDL
MODEL 5
REMARK VINA RESULT:      -6.1      5.763      8.562
REMARK  Name = 
REMARK  9 active torsions:
REMARK  status: ('A' for Active; 'I' for Inactive)
REMARK    1  A    between atoms: O_1  and  N_7
REMARK    2  A    between atoms: O_1  and  C_20
REMARK    3  A    between atoms: O_2  and  C_14
REMARK    4  A    between atoms: O_3  and  C_18
REMARK    5  A    between atoms: O_4  and  C_25
REMARK    6  A    between atoms: C_8  and  C_10
REMARK    7  A    between atoms: C_17  and  C_18
REMARK    8  A    between atoms: C_17  and  C_20
REMARK    9  A    between atoms: C_18  and  C_25
REMARK                            x       y       z     vdW  Elec       q    Type
REMARK                         _______ _______ _______ _____ _____    ______ ____
ROOT
ATOM      1  N   UNL     1     -36.183  47.245  -8.187  0.00  0.00    +0.000 NA
ATOM      2  N   UNL     1     -36.068  45.258 -11.123  0.00  0.00    +0.000 NA
ATOM      3  C   UNL     1     -35.599  46.358  -8.953  0.00  0.00    +0.000 C 
ATOM      4  C   UNL     1     -36.361  46.171 -10.252  0.00  0.00    +0.000 C 
ATOM      5  C   UNL     1     -37.438  47.148 -10.176  0.00  0.00    +0.000 A 
ATOM      6  C   UNL     1     -37.279  47.732  -8.919  0.00  0.00    +0.000 A 
ATOM      7  C   UNL     1     -38.458  47.510 -11.038  0.00  0.00    +0.000 A 
ATOM      8  C   UNL     1     -38.157  48.712  -8.491  0.00  0.00    +0.000 A 
ATOM      9  C   UNL     1     -39.345  48.500 -10.609  0.00  0.00    +0.000 A 
ATOM     10  C   UNL     1     -39.197  49.096  -9.344  0.00  0.00    +0.000 A 
ENDROOT
BRANCH   3  12
ATOM     11  N   UNL     1     -32.424  44.652  -8.546  0.00  0.00    +0.000 N 
ATOM     12  C   UNL     1     -34.398  45.684  -8.515  0.00  0.00    +0.000 A 
ATOM     13  C   UNL     1     -34.012  45.375  -7.168  0.00  0.00    +0.000 A 
ATOM     14  C   UNL     1     -32.782  44.720  -7.221  0.00  0.00    +0.000 A 
ATOM     15  C   UNL     1     -33.374  45.246  -9.336  0.00  0.00    +0.000 A 
ATOM     16  C   UNL     1     -34.603  45.579  -5.901  0.00  0.00    +0.000 A 
ATOM     17  C   UNL     1     -32.112  44.261  -6.081  0.00  0.00    +0.000 A 
ATOM     18  C   UNL     1     -33.948  45.128  -4.750  0.00  0.00    +0.000 A 
ATOM     19  C   UNL     1     -32.721  44.478  -4.841  0.00  0.00    +0.000 A 
ATOM     20  H   UNL     1     -31.562  44.242  -8.873  0.00  0.00    +0.000 HD
BRANCH  15  21
ATOM     21  O   UNL     1     -33.216  45.361 -10.650  0.00  0.00    +0.000 OA
ATOM     22  H   UNL     1     -33.636  44.617 -11.110  0.00  0.00    +0.000 HD
ENDBRANCH  15  21
ENDBRANCH   3  12
BRANCH   2  23
ATOM     23  O   UNL     1     -36.947  45.262 -12.209  0.00  0.00    +0.000 OA
BRANCH  23  24
ATOM     24  C   UNL     1     -36.212  44.926 -13.383  0.00  0.00    +0.000 C 
BRANCH  24  25
ATOM     25  C   UNL     1     -36.092  46.153 -14.273  0.00  0.00    +0.000 C 
BRANCH  25  26
ATOM     26  C   UNL     1     -34.805  46.952 -14.066  0.00  0.00    +0.000 C 
BRANCH  26  27
ATOM     27  O   UNL     1     -33.983  46.230 -13.135  0.00  0.00    +0.000 OA
ATOM     28  H   UNL     1     -34.544  46.135 -12.339  0.00  0.00    +0.000 HD
ENDBRANCH  26  27
BRANCH  26  29
ATOM     29  C   UNL     1     -33.994  47.174 -15.347  0.00  0.00    +0.000 C 
BRANCH  29  30
ATOM     30  O   UNL     1     -33.828  45.908 -15.994  0.00  0.00    +0.000 OA
ATOM     31  H   UNL     1     -32.955  45.930 -16.426  0.00  0.00    +0.000 HD
ENDBRANCH  29  30
ENDBRANCH  26  29
ENDBRANCH  25  26
ENDBRANCH  24  25
ENDBRANCH  23  24
ENDBRANCH   2  23
TORSDOF 9
ENDMDL
MODEL 6
REMARK VINA RESULT:      -6.1      1.538      2.125
REMARK  Name = 
REMARK  9 active torsions:
REMARK  status: ('A' for Active; 'I' for Inactive)
REMARK    1  A    between atoms: O_1  and  N_7
REMARK    2  A    between atoms: O_1  and  C_20
REMARK    3  A    between atoms: O_2  and  C_14
REMARK    4  A    between atoms: O_3  and  C_18
REMARK    5  A    between atoms: O_4  and  C_25
REMARK    6  A    between atoms: C_8  and  C_10
REMARK    7  A    between atoms: C_17  and  C_18
REMARK    8  A    between atoms: C_17  and  C_20
REMARK    9  A    between atoms: C_18  and  C_25
REMARK                            x       y       z     vdW  Elec       q    Type
REMARK                         _______ _______ _______ _____ _____    ______ ____
ROOT
ATOM      1  N   UNL     1     -33.706  45.141 -14.316  0.00  0.00    +0.000 NA
ATOM      2  N   UNL     1     -33.934  47.800 -16.652  0.00  0.00    +0.000 NA
ATOM      3  C   UNL     1     -33.250  45.809 -15.346  0.00  0.00    +0.000 C 
ATOM      4  C   UNL     1     -34.092  47.043 -15.613  0.00  0.00    +0.000 C 
ATOM      5  C   UNL     1     -35.065  47.051 -14.530  0.00  0.00    +0.000 A 
ATOM      6  C   UNL     1     -34.786  45.886 -13.814  0.00  0.00    +0.000 A 
ATOM      7  C   UNL     1     -36.088  47.912 -14.175  0.00  0.00    +0.000 A 
ATOM      8  C   UNL     1     -35.543  45.554 -12.705  0.00  0.00    +0.000 A 
ATOM      9  C   UNL     1     -36.853  47.579 -13.054  0.00  0.00    +0.000 A 
ATOM     10  C   UNL     1     -36.584  46.408 -12.325  0.00  0.00    +0.000 A 
ENDROOT
BRANCH   3  12
ATOM     11  N   UNL     1     -30.017  44.711 -16.571  0.00  0.00    +0.000 N 
ATOM     12  C   UNL     1     -32.099  45.335 -16.079  0.00  0.00    +0.000 A 
ATOM     13  C   UNL     1     -32.050  44.915 -17.451  0.00  0.00    +0.000 A 
ATOM     14  C   UNL     1     -30.735  44.544 -17.731  0.00  0.00    +0.000 A 
ATOM     15  C   UNL     1     -30.827  45.165 -15.562  0.00  0.00    +0.000 A 
ATOM     16  C   UNL     1     -33.001  44.828 -18.490  0.00  0.00    +0.000 A 
ATOM     17  C   UNL     1     -30.322  44.090 -18.989  0.00  0.00    +0.000 A 
ATOM     18  C   UNL     1     -32.608  44.377 -19.755  0.00  0.00    +0.000 A 
ATOM     19  C   UNL     1     -31.286  44.014 -19.999  0.00  0.00    +0.000 A 
ATOM     20  H   UNL     1     -29.035  44.496 -16.483  0.00  0.00    +0.000 HD
BRANCH  15  21
ATOM     21  O   UNL     1     -30.370  45.341 -14.327  0.00  0.00    +0.000 OA
ATOM     22  H   UNL     1     -31.085  45.227 -13.680  0.00  0.00    +0.000 HD
ENDBRANCH  15  21
ENDBRANCH   3  12
BRANCH   2  23
ATOM     23  O   UNL     1     -34.863  48.843 -16.693  0.00  0.00    +0.000 OA
BRANCH  23  24
ATOM     24  C   UNL     1     -34.434  49.789 -17.669  0.00  0.00    +0.000 C 
BRANCH  24  25
ATOM     25  C   UNL     1     -35.268  49.626 -18.931  0.00  0.00    +0.000 C 
BRANCH  25  26
ATOM     26  C   UNL     1     -34.753  48.548 -19.885  0.00  0.00    +0.000 C 
BRANCH  26  27
ATOM     27  O   UNL     1     -33.475  48.107 -19.404  0.00  0.00    +0.000 OA
ATOM     28  H   UNL     1     -33.017  48.931 -19.140  0.00  0.00    +0.000 HD
ENDBRANCH  26  27
BRANCH  26  29
ATOM     29  C   UNL     1     -35.670  47.325 -19.998  0.00  0.00    +0.000 C 
BRANCH  29  30
ATOM     30  O   UNL     1     -35.977  46.875 -18.674  0.00  0.00    +0.000 OA
ATOM     31  H   UNL     1     -35.218  46.340 -18.379  0.00  0.00    +0.000 HD
ENDBRANCH  29  30
ENDBRANCH  26  29
ENDBRANCH  25  26
ENDBRANCH  24  25
ENDBRANCH  23  24
ENDBRANCH   2  23
TORSDOF 9
ENDMDL
MODEL 7
REMARK VINA RESULT:      -6.1      2.523      6.042
REMARK  Name = 
REMARK  9 active torsions:
REMARK  status: ('A' for Active; 'I' for Inactive)
REMARK    1  A    between atoms: O_1  and  N_7
REMARK    2  A    between atoms: O_1  and  C_20
REMARK    3  A    between atoms: O_2  and  C_14
REMARK    4  A    between atoms: O_3  and  C_18
REMARK    5  A    between atoms: O_4  and  C_25
REMARK    6  A    between atoms: C_8  and  C_10
REMARK    7  A    between atoms: C_17  and  C_18
REMARK    8  A    between atoms: C_17  and  C_20
REMARK    9  A    between atoms: C_18  and  C_25
REMARK                            x       y       z     vdW  Elec       q    Type
REMARK                         _______ _______ _______ _____ _____    ______ ____
ROOT
ATOM      1  N   UNL     1     -34.518  47.977 -15.620  0.00  0.00    +0.000 NA
ATOM      2  N   UNL     1     -33.301  45.086 -17.276  0.00  0.00    +0.000 NA
ATOM      3  C   UNL     1     -33.982  46.783 -15.603  0.00  0.00    +0.000 C 
ATOM      4  C   UNL     1     -33.706  46.288 -17.011  0.00  0.00    +0.000 C 
ATOM      5  C   UNL     1     -34.081  47.409 -17.862  0.00  0.00    +0.000 A 
ATOM      6  C   UNL     1     -34.570  48.363 -16.970  0.00  0.00    +0.000 A 
ATOM      7  C   UNL     1     -34.046  47.620 -19.229  0.00  0.00    +0.000 A 
ATOM      8  C   UNL     1     -35.043  49.576 -17.439  0.00  0.00    +0.000 A 
ATOM      9  C   UNL     1     -34.523  48.844 -19.705  0.00  0.00    +0.000 A 
ATOM     10  C   UNL     1     -35.019  49.815 -18.818  0.00  0.00    +0.000 A 
ENDROOT
BRANCH   3  12
ATOM     11  N   UNL     1     -32.774  44.868 -12.769  0.00  0.00    +0.000 N 
ATOM     12  C   UNL     1     -33.743  46.101 -14.352  0.00  0.00    +0.000 A 
ATOM     13  C   UNL     1     -34.585  46.088 -13.190  0.00  0.00    +0.000 A 
ATOM     14  C   UNL     1     -33.959  45.300 -12.225  0.00  0.00    +0.000 A 
ATOM     15  C   UNL     1     -32.618  45.358 -14.040  0.00  0.00    +0.000 A 
ATOM     16  C   UNL     1     -35.834  46.663 -12.871  0.00  0.00    +0.000 A 
ATOM     17  C   UNL     1     -34.512  45.059 -10.961  0.00  0.00    +0.000 A 
ATOM     18  C   UNL     1     -36.403  46.434 -11.613  0.00  0.00    +0.000 A 
ATOM     19  C   UNL     1     -35.749  45.643 -10.673  0.00  0.00    +0.000 A 
ATOM     20  H   UNL     1     -32.107  44.293 -12.277  0.00  0.00    +0.000 HD
BRANCH  15  21
ATOM     21  O   UNL     1     -31.516  45.129 -14.746  0.00  0.00    +0.000 OA
ATOM     22  H   UNL     1     -31.741  44.868 -15.654  0.00  0.00    +0.000 HD
ENDBRANCH  15  21
ENDBRANCH   3  12
BRANCH   2  23
ATOM     23  O   UNL     1     -33.167  44.864 -18.648  0.00  0.00    +0.000 OA
BRANCH  23  24
ATOM     24  C   UNL     1     -31.782  44.715 -18.946  0.00  0.00    +0.000 C 
BRANCH  24  25
ATOM     25  C   UNL     1     -31.169  43.690 -18.003  0.00  0.00    +0.000 C 
BRANCH  25  26
ATOM     26  C   UNL     1     -29.644  43.611 -18.070  0.00  0.00    +0.000 C 
BRANCH  26  27
ATOM     27  O   UNL     1     -29.147  44.930 -18.345  0.00  0.00    +0.000 OA
ATOM     28  H   UNL     1     -29.751  45.280 -19.030  0.00  0.00    +0.000 HD
ENDBRANCH  26  27
BRANCH  26  29
ATOM     29  C   UNL     1     -28.987  43.112 -16.779  0.00  0.00    +0.000 C 
BRANCH  29  30
ATOM     30  O   UNL     1     -29.143  44.124 -15.779  0.00  0.00    +0.000 OA
ATOM     31  H   UNL     1     -29.567  43.696 -15.014  0.00  0.00    +0.000 HD
ENDBRANCH  29  30
ENDBRANCH  26  29
ENDBRANCH  25  26
ENDBRANCH  24  25
ENDBRANCH  23  24
ENDBRANCH   2  23
TORSDOF 9
ENDMDL
MODEL 8
REMARK VINA RESULT:      -5.9      6.614      9.265
REMARK  Name = 
REMARK  9 active torsions:
REMARK  status: ('A' for Active; 'I' for Inactive)
REMARK    1  A    between atoms: O_1  and  N_7
REMARK    2  A    between atoms: O_1  and  C_20
REMARK    3  A    between atoms: O_2  and  C_14
REMARK    4  A    between atoms: O_3  and  C_18
REMARK    5  A    between atoms: O_4  and  C_25
REMARK    6  A    between atoms: C_8  and  C_10
REMARK    7  A    between atoms: C_17  and  C_18
REMARK    8  A    between atoms: C_17  and  C_20
REMARK    9  A    between atoms: C_18  and  C_25
REMARK                            x       y       z     vdW  Elec       q    Type
REMARK                         _______ _______ _______ _____ _____    ______ ____
ROOT
ATOM      1  N   UNL     1     -36.182  46.490  -7.420  0.00  0.00    +0.000 NA
ATOM      2  N   UNL     1     -34.407  44.932 -10.066  0.00  0.00    +0.000 NA
ATOM      3  C   UNL     1     -35.169  45.794  -7.872  0.00  0.00    +0.000 C 
ATOM      4  C   UNL     1     -35.217  45.678  -9.385  0.00  0.00    +0.000 C 
ATOM      5  C   UNL     1     -36.367  46.485  -9.767  0.00  0.00    +0.000 A 
ATOM      6  C   UNL     1     -36.897  46.918  -8.551  0.00  0.00    +0.000 A 
ATOM      7  C   UNL     1     -36.935  46.817 -10.984  0.00  0.00    +0.000 A 
ATOM      8  C   UNL     1     -38.032  47.709  -8.530  0.00  0.00    +0.000 A 
ATOM      9  C   UNL     1     -38.081  47.616 -10.965  0.00  0.00    +0.000 A 
ATOM     10  C   UNL     1     -38.627  48.058  -9.747  0.00  0.00    +0.000 A 
ENDROOT
BRANCH   3  12
ATOM     11  N   UNL     1     -32.286  44.869  -5.874  0.00  0.00    +0.000 N 
ATOM     12  C   UNL     1     -34.196  45.235  -6.963  0.00  0.00    +0.000 A 
ATOM     13  C   UNL     1     -34.398  44.185  -6.005  0.00  0.00    +0.000 A 
ATOM     14  C   UNL     1     -33.185  43.972  -5.351  0.00  0.00    +0.000 A 
ATOM     15  C   UNL     1     -32.883  45.652  -6.829  0.00  0.00    +0.000 A 
ATOM     16  C   UNL     1     -35.501  43.382  -5.640  0.00  0.00    +0.000 A 
ATOM     17  C   UNL     1     -33.016  43.003  -4.354  0.00  0.00    +0.000 A 
ATOM     18  C   UNL     1     -35.352  42.409  -4.646  0.00  0.00    +0.000 A 
ATOM     19  C   UNL     1     -34.126  42.223  -4.014  0.00  0.00    +0.000 A 
ATOM     20  H   UNL     1     -31.329  44.948  -5.566  0.00  0.00    +0.000 HD
BRANCH  15  21
ATOM     21  O   UNL     1     -32.228  46.638  -7.432  0.00  0.00    +0.000 OA
ATOM     22  H   UNL     1     -31.271  46.483  -7.398  0.00  0.00    +0.000 HD
ENDBRANCH  15  21
ENDBRANCH   3  12
BRANCH   2  23
ATOM     23  O   UNL     1     -34.688  44.959 -11.435  0.00  0.00    +0.000 OA
BRANCH  23  24
ATOM     24  C   UNL     1     -33.540  44.493 -12.138  0.00  0.00    +0.000 C 
BRANCH  24  25
ATOM     25  C   UNL     1     -33.566  45.031 -13.561  0.00  0.00    +0.000 C 
BRANCH  25  26
ATOM     26  C   UNL     1     -34.410  46.293 -13.737  0.00  0.00    +0.000 C 
BRANCH  26  27
ATOM     27  O   UNL     1     -33.633  47.241 -14.486  0.00  0.00    +0.000 OA
ATOM     28  H   UNL     1     -33.452  46.791 -15.335  0.00  0.00    +0.000 HD
ENDBRANCH  26  27
BRANCH  26  29
ATOM     29  C   UNL     1     -35.730  46.063 -14.480  0.00  0.00    +0.000 C 
BRANCH  29  30
ATOM     30  O   UNL     1     -36.150  44.717 -14.235  0.00  0.00    +0.000 OA
ATOM     31  H   UNL     1     -35.529  44.141 -14.716  0.00  0.00    +0.000 HD
ENDBRANCH  29  30
ENDBRANCH  26  29
ENDBRANCH  25  26
ENDBRANCH  24  25
ENDBRANCH  23  24
ENDBRANCH   2  23
TORSDOF 9
ENDMDL
MODEL 9
REMARK VINA RESULT:      -5.9      7.806     11.376
REMARK  Name = 
REMARK  9 active torsions:
REMARK  status: ('A' for Active; 'I' for Inactive)
REMARK    1  A    between atoms: O_1  and  N_7
REMARK    2  A    between atoms: O_1  and  C_20
REMARK    3  A    between atoms: O_2  and  C_14
REMARK    4  A    between atoms: O_3  and  C_18
REMARK    5  A    between atoms: O_4  and  C_25
REMARK    6  A    between atoms: C_8  and  C_10
REMARK    7  A    between atoms: C_17  and  C_18
REMARK    8  A    between atoms: C_17  and  C_20
REMARK    9  A    between atoms: C_18  and  C_25
REMARK                            x       y       z     vdW  Elec       q    Type
REMARK                         _______ _______ _______ _____ _____    ______ ____
ROOT
ATOM      1  N   UNL     1     -36.777  46.697  -8.254  0.00  0.00    +0.000 NA
ATOM      2  N   UNL     1     -35.527  44.112  -6.172  0.00  0.00    +0.000 NA
ATOM      3  C   UNL     1     -35.941  45.719  -8.012  0.00  0.00    +0.000 C 
ATOM      4  C   UNL     1     -36.277  45.024  -6.705  0.00  0.00    +0.000 C 
ATOM      5  C   UNL     1     -37.494  45.684  -6.253  0.00  0.00    +0.000 A 
ATOM      6  C   UNL     1     -37.718  46.674  -7.210  0.00  0.00    +0.000 A 
ATOM      7  C   UNL     1     -38.323  45.508  -5.160  0.00  0.00    +0.000 A 
ATOM      8  C   UNL     1     -38.801  47.526  -7.089  0.00  0.00    +0.000 A 
ATOM      9  C   UNL     1     -39.419  46.366  -5.036  0.00  0.00    +0.000 A 
ATOM     10  C   UNL     1     -39.656  47.369  -5.992  0.00  0.00    +0.000 A 
ENDROOT
BRANCH   3  12
ATOM     11  N   UNL     1     -32.833  44.940  -9.712  0.00  0.00    +0.000 N 
ATOM     12  C   UNL     1     -34.858  45.433  -8.924  0.00  0.00    +0.000 A 
ATOM     13  C   UNL     1     -34.920  45.358 -10.356  0.00  0.00    +0.000 A 
ATOM     14  C   UNL     1     -33.638  45.061 -10.819  0.00  0.00    +0.000 A 
ATOM     15  C   UNL     1     -33.555  45.138  -8.563  0.00  0.00    +0.000 A 
ATOM     16  C   UNL     1     -35.948  45.529 -11.309  0.00  0.00    +0.000 A 
ATOM     17  C   UNL     1     -33.330  44.925 -12.177  0.00  0.00    +0.000 A 
ATOM     18  C   UNL     1     -35.660  45.397 -12.672  0.00  0.00    +0.000 A 
ATOM     19  C   UNL     1     -34.368  45.099 -13.098  0.00  0.00    +0.000 A 
ATOM     20  H   UNL     1     -31.852  44.706  -9.755  0.00  0.00    +0.000 HD
BRANCH  15  21
ATOM     21  O   UNL     1     -33.005  45.007  -7.361  0.00  0.00    +0.000 OA
ATOM     22  H   UNL     1     -33.265  45.743  -6.785  0.00  0.00    +0.000 HD
ENDBRANCH  15  21
ENDBRANCH   3  12
BRANCH   2  23
ATOM     23  O   UNL     1     -36.029  43.664  -4.948  0.00  0.00    +0.000 OA
BRANCH  23  24
ATOM     24  C   UNL     1     -35.597  42.320  -4.749  0.00  0.00    +0.000 C 
BRANCH  24  25
ATOM     25  C   UNL     1     -34.473  42.297  -3.724  0.00  0.00    +0.000 C 
BRANCH  25  26
ATOM     26  C   UNL     1     -33.089  42.585  -4.307  0.00  0.00    +0.000 C 
BRANCH  26  27
ATOM     27  O   UNL     1     -33.208  42.596  -5.738  0.00  0.00    +0.000 OA
ATOM     28  H   UNL     1     -33.709  41.782  -5.947  0.00  0.00    +0.000 HD
ENDBRANCH  26  27
BRANCH  26  29
ATOM     29  C   UNL     1     -32.493  43.926  -3.866  0.00  0.00    +0.000 C 
BRANCH  29  30
ATOM     30  O   UNL     1     -33.353  44.971  -4.333  0.00  0.00    +0.000 OA
ATOM     31  H   UNL     1     -34.234  44.795  -3.956  0.00  0.00    +0.000 HD
ENDBRANCH  29  30
ENDBRANCH  26  29
ENDBRANCH  25  26
ENDBRANCH  24  25
ENDBRANCH  23  24
ENDBRANCH   2  23
TORSDOF 9
ENDMDL
