MODEL 1
REMARK VINA RESULT:      -6.1      0.000      0.000
REMARK  Name = 
REMARK  6 active torsions:
REMARK  status: ('A' for Active; 'I' for Inactive)
REMARK    1  A    between atoms: O_3  and  C_16
REMARK    2  A    between atoms: O_4  and  C_17
REMARK    3  A    between atoms: O_4  and  C_22
REMARK    4  A    between atoms: O_5  and  C_19
REMARK    5  A    between atoms: O_5  and  C_23
REMARK    6  A    between atoms: O_6  and  C_21
REMARK                            x       y       z     vdW  Elec       q    Type
REMARK                         _______ _______ _______ _____ _____    ______ ____
ROOT
ATOM      1  O   UNL     1     -34.107  43.551 -10.651  0.00  0.00    +0.000 OA
ATOM      2  O   UNL     1     -35.647  46.629 -12.585  0.00  0.00    +0.000 OA
ATOM      3  C   UNL     1     -36.115  44.866 -10.939  0.00  0.00    +0.000 C 
ATOM      4  C   UNL     1     -35.110  43.935 -11.626  0.00  0.00    +0.000 C 
ATOM      5  C   UNL     1     -35.268  45.365  -9.820  0.00  0.00    +0.000 A 
ATOM      6  C   UNL     1     -36.664  45.892 -11.908  0.00  0.00    +0.000 C 
ATOM      7  C   UNL     1     -34.439  44.544 -12.839  0.00  0.00    +0.000 A 
ATOM      8  C   UNL     1     -34.159  44.539  -9.699  0.00  0.00    +0.000 A 
ATOM      9  C   UNL     1     -34.727  45.858 -13.245  0.00  0.00    +0.000 A 
ATOM     10  C   UNL     1     -35.473  46.409  -8.934  0.00  0.00    +0.000 A 
ATOM     11  C   UNL     1     -33.507  43.780 -13.565  0.00  0.00    +0.000 A 
ATOM     12  C   UNL     1     -33.233  44.730  -8.694  0.00  0.00    +0.000 A 
ATOM     13  C   UNL     1     -34.047  46.413 -14.339  0.00  0.00    +0.000 A 
ATOM     14  C   UNL     1     -34.532  46.623  -7.917  0.00  0.00    +0.000 A 
ATOM     15  C   UNL     1     -33.410  45.786  -7.791  0.00  0.00    +0.000 A 
ATOM     16  C   UNL     1     -32.873  44.312 -14.684  0.00  0.00    +0.000 A 
ATOM     17  C   UNL     1     -33.153  45.616 -15.062  0.00  0.00    +0.000 A 
ENDROOT
BRANCH  12  18
ATOM     18  O   UNL     1     -32.151  43.902  -8.584  0.00  0.00    +0.000 OA
ATOM     19  H   UNL     1     -32.050  43.743  -7.628  0.00  0.00    +0.000 HD
ENDBRANCH  12  18
BRANCH  13  20
ATOM     20  O   UNL     1     -34.216  47.684 -14.836  0.00  0.00    +0.000 OA
ATOM     21  C   UNL     1     -35.364  47.844 -15.668  0.00  0.00    +0.000 C 
ENDBRANCH  13  20
BRANCH  15  22
ATOM     22  O   UNL     1     -32.431  45.895  -6.834  0.00  0.00    +0.000 OA
ATOM     23  C   UNL     1     -32.759  45.438  -5.527  0.00  0.00    +0.000 C 
ENDBRANCH  15  22
BRANCH  17  24
ATOM     24  O   UNL     1     -32.518  46.121 -16.166  0.00  0.00    +0.000 OA
ATOM     25  H   UNL     1     -32.783  45.533 -16.898  0.00  0.00    +0.000 HD
ENDBRANCH  17  24
TORSDOF 4
ENDMDL
MODEL 2
REMARK VINA RESULT:      -5.4      2.408      7.162
REMARK  Name = 
REMARK  6 active torsions:
REMARK  status: ('A' for Active; 'I' for Inactive)
REMARK    1  A    between atoms: O_3  and  C_16
REMARK    2  A    between atoms: O_4  and  C_17
REMARK    3  A    between atoms: O_4  and  C_22
REMARK    4  A    between atoms: O_5  and  C_19
REMARK    5  A    between atoms: O_5  and  C_23
REMARK    6  A    between atoms: O_6  and  C_21
REMARK                            x       y       z     vdW  Elec       q    Type
REMARK                         _______ _______ _______ _____ _____    ______ ____
ROOT
ATOM      1  O   UNL     1     -33.582  46.248  -8.922  0.00  0.00    +0.000 OA
ATOM      2  O   UNL     1     -36.373  44.696  -6.600  0.00  0.00    +0.000 OA
ATOM      3  C   UNL     1     -35.883  46.480  -8.217  0.00  0.00    +0.000 C 
ATOM      4  C   UNL     1     -34.419  46.508  -7.766  0.00  0.00    +0.000 C 
ATOM      5  C   UNL     1     -35.749  45.648  -9.446  0.00  0.00    +0.000 A 
ATOM      6  C   UNL     1     -36.786  45.960  -7.118  0.00  0.00    +0.000 C 
ATOM      7  C   UNL     1     -34.096  45.520  -6.666  0.00  0.00    +0.000 A 
ATOM      8  C   UNL     1     -34.409  45.593  -9.801  0.00  0.00    +0.000 A 
ATOM      9  C   UNL     1     -35.079  44.657  -6.153  0.00  0.00    +0.000 A 
ATOM     10  C   UNL     1     -36.716  45.041 -10.230  0.00  0.00    +0.000 A 
ATOM     11  C   UNL     1     -32.786  45.463  -6.155  0.00  0.00    +0.000 A 
ATOM     12  C   UNL     1     -34.000  44.940 -10.946  0.00  0.00    +0.000 A 
ATOM     13  C   UNL     1     -34.736  43.714  -5.174  0.00  0.00    +0.000 A 
ATOM     14  C   UNL     1     -36.312  44.361 -11.388  0.00  0.00    +0.000 A 
ATOM     15  C   UNL     1     -34.956  44.308 -11.752  0.00  0.00    +0.000 A 
ATOM     16  C   UNL     1     -32.458  44.565  -5.144  0.00  0.00    +0.000 A 
ATOM     17  C   UNL     1     -33.433  43.706  -4.661  0.00  0.00    +0.000 A 
ENDROOT
BRANCH  12  18
ATOM     18  O   UNL     1     -32.677  44.903 -11.287  0.00  0.00    +0.000 OA
ATOM     19  H   UNL     1     -32.206  44.714 -10.455  0.00  0.00    +0.000 HD
ENDBRANCH  12  18
BRANCH  13  20
ATOM     20  O   UNL     1     -35.586  42.801  -4.595  0.00  0.00    +0.000 OA
ATOM     21  C   UNL     1     -35.749  41.594  -5.337  0.00  0.00    +0.000 C 
ENDBRANCH  13  20
BRANCH  15  22
ATOM     22  O   UNL     1     -34.448  43.680 -12.863  0.00  0.00    +0.000 OA
ATOM     23  C   UNL     1     -34.729  44.280 -14.122  0.00  0.00    +0.000 C 
ENDBRANCH  15  22
BRANCH  17  24
ATOM     24  O   UNL     1     -33.090  42.829  -3.667  0.00  0.00    +0.000 OA
ATOM     25  H   UNL     1     -32.750  43.391  -2.945  0.00  0.00    +0.000 HD
ENDBRANCH  17  24
TORSDOF 4
ENDMDL
MODEL 3
REMARK VINA RESULT:      -5.2      6.397      8.823
REMARK  Name = 
REMARK  6 active torsions:
REMARK  status: ('A' for Active; 'I' for Inactive)
REMARK    1  A    between atoms: O_3  and  C_16
REMARK    2  A    between atoms: O_4  and  C_17
REMARK    3  A    between atoms: O_4  and  C_22
REMARK    4  A    between atoms: O_5  and  C_19
REMARK    5  A    between atoms: O_5  and  C_23
REMARK    6  A    between atoms: O_6  and  C_21
REMARK                            x       y       z     vdW  Elec       q    Type
REMARK                         _______ _______ _______ _____ _____    ______ ____
ROOT
ATOM      1  O   UNL     1     -34.635  45.648 -17.326  0.00  0.00    +0.000 OA
ATOM      2  O   UNL     1     -31.818  44.657 -19.909  0.00  0.00    +0.000 OA
ATOM      3  C   UNL     1     -34.245  44.801 -19.556  0.00  0.00    +0.000 C 
ATOM      4  C   UNL     1     -34.060  44.536 -18.058  0.00  0.00    +0.000 C 
ATOM      5  C   UNL     1     -34.388  46.283 -19.531  0.00  0.00    +0.000 A 
ATOM      6  C   UNL     1     -33.100  44.224 -20.362  0.00  0.00    +0.000 C 
ATOM      7  C   UNL     1     -32.617  44.340 -17.644  0.00  0.00    +0.000 A 
ATOM      8  C   UNL     1     -34.643  46.683 -18.228  0.00  0.00    +0.000 A 
ATOM      9  C   UNL     1     -31.574  44.427 -18.581  0.00  0.00    +0.000 A 
ATOM     10  C   UNL     1     -34.365  47.205 -20.564  0.00  0.00    +0.000 A 
ATOM     11  C   UNL     1     -32.319  44.073 -16.295  0.00  0.00    +0.000 A 
ATOM     12  C   UNL     1     -34.885  48.007 -17.922  0.00  0.00    +0.000 A 
ATOM     13  C   UNL     1     -30.244  44.297 -18.156  0.00  0.00    +0.000 A 
ATOM     14  C   UNL     1     -34.595  48.555 -20.265  0.00  0.00    +0.000 A 
ATOM     15  C   UNL     1     -34.857  48.963 -18.946  0.00  0.00    +0.000 A 
ATOM     16  C   UNL     1     -31.003  43.890 -15.883  0.00  0.00    +0.000 A 
ATOM     17  C   UNL     1     -29.982  43.997 -16.815  0.00  0.00    +0.000 A 
ENDROOT
BRANCH  12  18
ATOM     18  O   UNL     1     -35.143  48.384 -16.633  0.00  0.00    +0.000 OA
ATOM     19  H   UNL     1     -34.577  47.811 -16.084  0.00  0.00    +0.000 HD
ENDBRANCH  12  18
BRANCH  13  20
ATOM     20  O   UNL     1     -29.128  44.373 -18.956  0.00  0.00    +0.000 OA
ATOM     21  C   UNL     1     -28.926  43.239 -19.797  0.00  0.00    +0.000 C 
ENDBRANCH  13  20
BRANCH  15  22
ATOM     22  O   UNL     1     -35.103  50.251 -18.537  0.00  0.00    +0.000 OA
ATOM     23  C   UNL     1     -36.389  50.782 -18.835  0.00  0.00    +0.000 C 
ENDBRANCH  15  22
BRANCH  17  24
ATOM     24  O   UNL     1     -28.694  43.813 -16.388  0.00  0.00    +0.000 OA
ATOM     25  H   UNL     1     -28.320  44.713 -16.330  0.00  0.00    +0.000 HD
ENDBRANCH  17  24
TORSDOF 4
ENDMDL
MODEL 4
REMARK VINA RESULT:      -5.2     21.490     23.045
REMARK  Name = 
REMARK  6 active torsions:
REMARK  status: ('A' for Active; 'I' for Inactive)
REMARK    1  A    between atoms: O_3  and  C_16
REMARK    2  A    between atoms: O_4  and  C_17
REMARK    3  A    between atoms: O_4  and  C_22
REMARK    4  A    between atoms: O_5  and  C_19
REMARK    5  A    between atoms: O_5  and  C_23
REMARK    6  A    between atoms: O_6  and  C_21
REMARK                            x       y       z     vdW  Elec       q    Type
REMARK                         _______ _______ _______ _____ _____    ______ ____
ROOT
ATOM      1  O   UNL     1     -16.531  56.509  -7.994  0.00  0.00    +0.000 OA
ATOM      2  O   UNL     1     -16.833  60.062  -6.299  0.00  0.00    +0.000 OA
ATOM      3  C   UNL     1     -16.951  57.641  -5.900  0.00  0.00    +0.000 C 
ATOM      4  C   UNL     1     -17.451  57.413  -7.331  0.00  0.00    +0.000 C 
ATOM      5  C   UNL     1     -15.511  57.306  -6.083  0.00  0.00    +0.000 A 
ATOM      6  C   UNL     1     -17.287  59.036  -5.417  0.00  0.00    +0.000 C 
ATOM      7  C   UNL     1     -17.595  58.683  -8.140  0.00  0.00    +0.000 A 
ATOM      8  C   UNL     1     -15.361  56.631  -7.285  0.00  0.00    +0.000 A 
ATOM      9  C   UNL     1     -17.265  59.935  -7.593  0.00  0.00    +0.000 A 
ATOM     10  C   UNL     1     -14.429  57.510  -5.244  0.00  0.00    +0.000 A 
ATOM     11  C   UNL     1     -18.063  58.606  -9.465  0.00  0.00    +0.000 A 
ATOM     12  C   UNL     1     -14.133  56.141  -7.680  0.00  0.00    +0.000 A 
ATOM     13  C   UNL     1     -17.356  61.088  -8.386  0.00  0.00    +0.000 A 
ATOM     14  C   UNL     1     -13.172  57.030  -5.640  0.00  0.00    +0.000 A 
ATOM     15  C   UNL     1     -13.018  56.343  -6.856  0.00  0.00    +0.000 A 
ATOM     16  C   UNL     1     -18.205  59.756 -10.235  0.00  0.00    +0.000 A 
ATOM     17  C   UNL     1     -17.858  60.982  -9.688  0.00  0.00    +0.000 A 
ENDROOT
BRANCH  12  18
ATOM     18  O   UNL     1     -14.004  55.470  -8.864  0.00  0.00    +0.000 OA
ATOM     19  H   UNL     1     -14.897  55.472  -9.255  0.00  0.00    +0.000 HD
ENDBRANCH  12  18
BRANCH  13  20
ATOM     20  O   UNL     1     -17.054  62.369  -7.990  0.00  0.00    +0.000 OA
ATOM     21  C   UNL     1     -18.088  63.017  -7.252  0.00  0.00    +0.000 C 
ENDBRANCH  13  20
BRANCH  15  22
ATOM     22  O   UNL     1     -11.842  55.823  -7.342  0.00  0.00    +0.000 OA
ATOM     23  C   UNL     1     -10.829  56.757  -7.698  0.00  0.00    +0.000 C 
ENDBRANCH  15  22
BRANCH  17  24
ATOM     24  O   UNL     1     -18.005  62.102 -10.463  0.00  0.00    +0.000 OA
ATOM     25  H   UNL     1     -17.094  62.375 -10.682  0.00  0.00    +0.000 HD
ENDBRANCH  17  24
TORSDOF 4
ENDMDL
MODEL 5
REMARK VINA RESULT:      -5.1      5.296      8.004
REMARK  Name = 
REMARK  6 active torsions:
REMARK  status: ('A' for Active; 'I' for Inactive)
REMARK    1  A    between atoms: O_3  and  C_16
REMARK    2  A    between atoms: O_4  and  C_17
REMARK    3  A    between atoms: O_4  and  C_22
REMARK    4  A    between atoms: O_5  and  C_19
REMARK    5  A    between atoms: O_5  and  C_23
REMARK    6  A    between atoms: O_6  and  C_21
REMARK                            x       y       z     vdW  Elec       q    Type
REMARK                         _______ _______ _______ _____ _____    ______ ____
ROOT
ATOM      1  O   UNL     1     -33.490  42.358  -3.320  0.00  0.00    +0.000 OA
ATOM      2  O   UNL     1     -35.155  42.265  -6.899  0.00  0.00    +0.000 OA
ATOM      3  C   UNL     1     -33.936  40.940  -5.226  0.00  0.00    +0.000 C 
ATOM      4  C   UNL     1     -33.212  42.197  -4.735  0.00  0.00    +0.000 C 
ATOM      5  C   UNL     1     -35.000  40.843  -4.188  0.00  0.00    +0.000 A 
ATOM      6  C   UNL     1     -34.379  41.089  -6.667  0.00  0.00    +0.000 C 
ATOM      7  C   UNL     1     -33.596  43.458  -5.479  0.00  0.00    +0.000 A 
ATOM      8  C   UNL     1     -34.653  41.656  -3.119  0.00  0.00    +0.000 A 
ATOM      9  C   UNL     1     -34.555  43.432  -6.506  0.00  0.00    +0.000 A 
ATOM     10  C   UNL     1     -36.144  40.064  -4.144  0.00  0.00    +0.000 A 
ATOM     11  C   UNL     1     -32.985  44.676  -5.130  0.00  0.00    +0.000 A 
ATOM     12  C   UNL     1     -35.431  41.709  -1.981  0.00  0.00    +0.000 A 
ATOM     13  C   UNL     1     -34.931  44.625  -7.139  0.00  0.00    +0.000 A 
ATOM     14  C   UNL     1     -36.952  40.120  -2.999  0.00  0.00    +0.000 A 
ATOM     15  C   UNL     1     -36.600  40.940  -1.913  0.00  0.00    +0.000 A 
ATOM     16  C   UNL     1     -33.318  45.852  -5.795  0.00  0.00    +0.000 A 
ATOM     17  C   UNL     1     -34.279  45.815  -6.793  0.00  0.00    +0.000 A 
ENDROOT
BRANCH  12  18
ATOM     18  O   UNL     1     -35.070  42.508  -0.932  0.00  0.00    +0.000 OA
ATOM     19  H   UNL     1     -35.837  42.500  -0.330  0.00  0.00    +0.000 HD
ENDBRANCH  12  18
BRANCH  13  20
ATOM     20  O   UNL     1     -35.861  44.751  -8.144  0.00  0.00    +0.000 OA
ATOM     21  C   UNL     1     -37.210  44.846  -7.690  0.00  0.00    +0.000 C 
ENDBRANCH  13  20
BRANCH  15  22
ATOM     22  O   UNL     1     -37.307  41.069  -0.742  0.00  0.00    +0.000 OA
ATOM     23  C   UNL     1     -37.300  39.949   0.136  0.00  0.00    +0.000 C 
ENDBRANCH  15  22
BRANCH  17  24
ATOM     24  O   UNL     1     -34.593  46.983  -7.435  0.00  0.00    +0.000 OA
ATOM     25  H   UNL     1     -34.186  47.684  -6.891  0.00  0.00    +0.000 HD
ENDBRANCH  17  24
TORSDOF 4
ENDMDL
MODEL 6
REMARK VINA RESULT:      -5.1     19.892     21.988
REMARK  Name = 
REMARK  6 active torsions:
REMARK  status: ('A' for Active; 'I' for Inactive)
REMARK    1  A    between atoms: O_3  and  C_16
REMARK    2  A    between atoms: O_4  and  C_17
REMARK    3  A    between atoms: O_4  and  C_22
REMARK    4  A    between atoms: O_5  and  C_19
REMARK    5  A    between atoms: O_5  and  C_23
REMARK    6  A    between atoms: O_6  and  C_21
REMARK                            x       y       z     vdW  Elec       q    Type
REMARK                         _______ _______ _______ _____ _____    ______ ____
ROOT
ATOM      1  O   UNL     1     -28.215  67.022  -5.485  0.00  0.00    +0.000 OA
ATOM      2  O   UNL     1     -31.505  65.032  -6.383  0.00  0.00    +0.000 OA
ATOM      3  C   UNL     1     -30.329  67.173  -6.648  0.00  0.00    +0.000 C 
ATOM      4  C   UNL     1     -29.651  66.988  -5.286  0.00  0.00    +0.000 C 
ATOM      5  C   UNL     1     -29.224  66.721  -7.539  0.00  0.00    +0.000 A 
ATOM      6  C   UNL     1     -31.637  66.412  -6.718  0.00  0.00    +0.000 C 
ATOM      7  C   UNL     1     -30.040  65.709  -4.575  0.00  0.00    +0.000 A 
ATOM      8  C   UNL     1     -28.045  66.695  -6.808  0.00  0.00    +0.000 A 
ATOM      9  C   UNL     1     -30.929  64.793  -5.163  0.00  0.00    +0.000 A 
ATOM     10  C   UNL     1     -29.227  66.420  -8.891  0.00  0.00    +0.000 A 
ATOM     11  C   UNL     1     -29.496  65.434  -3.307  0.00  0.00    +0.000 A 
ATOM     12  C   UNL     1     -26.843  66.373  -7.403  0.00  0.00    +0.000 A 
ATOM     13  C   UNL     1     -31.226  63.591  -4.505  0.00  0.00    +0.000 A 
ATOM     14  C   UNL     1     -28.013  66.078  -9.505  0.00  0.00    +0.000 A 
ATOM     15  C   UNL     1     -26.818  66.054  -8.768  0.00  0.00    +0.000 A 
ATOM     16  C   UNL     1     -29.834  64.267  -2.629  0.00  0.00    +0.000 A 
ATOM     17  C   UNL     1     -30.697  63.363  -3.229  0.00  0.00    +0.000 A 
ENDROOT
BRANCH  12  18
ATOM     18  O   UNL     1     -25.689  66.361  -6.671  0.00  0.00    +0.000 OA
ATOM     19  H   UNL     1     -25.104  65.730  -7.129  0.00  0.00    +0.000 HD
ENDBRANCH  12  18
BRANCH  13  20
ATOM     20  O   UNL     1     -32.062  62.601  -4.965  0.00  0.00    +0.000 OA
ATOM     21  C   UNL     1     -33.450  62.929  -4.911  0.00  0.00    +0.000 C 
ENDBRANCH  13  20
BRANCH  15  22
ATOM     22  O   UNL     1     -25.575  65.743  -9.263  0.00  0.00    +0.000 OA
ATOM     23  C   UNL     1     -25.000  66.669 -10.178  0.00  0.00    +0.000 C 
ENDBRANCH  15  22
BRANCH  17  24
ATOM     24  O   UNL     1     -31.016  62.220  -2.546  0.00  0.00    +0.000 OA
ATOM     25  H   UNL     1     -30.854  61.496  -3.180  0.00  0.00    +0.000 HD
ENDBRANCH  17  24
TORSDOF 4
ENDMDL
MODEL 7
REMARK VINA RESULT:      -5.1     15.226     17.332
REMARK  Name = 
REMARK  6 active torsions:
REMARK  status: ('A' for Active; 'I' for Inactive)
REMARK    1  A    between atoms: O_3  and  C_16
REMARK    2  A    between atoms: O_4  and  C_17
REMARK    3  A    between atoms: O_4  and  C_22
REMARK    4  A    between atoms: O_5  and  C_19
REMARK    5  A    between atoms: O_5  and  C_23
REMARK    6  A    between atoms: O_6  and  C_21
REMARK                            x       y       z     vdW  Elec       q    Type
REMARK                         _______ _______ _______ _____ _____    ______ ____
ROOT
ATOM      1  O   UNL     1     -17.618  44.189 -20.544  0.00  0.00    +0.000 OA
ATOM      2  O   UNL     1     -20.580  41.805 -19.483  0.00  0.00    +0.000 OA
ATOM      3  C   UNL     1     -18.138  42.076 -19.493  0.00  0.00    +0.000 C 
ATOM      4  C   UNL     1     -18.217  42.892 -20.787  0.00  0.00    +0.000 C 
ATOM      5  C   UNL     1     -18.025  43.186 -18.505  0.00  0.00    +0.000 A 
ATOM      6  C   UNL     1     -19.323  41.142 -19.359  0.00  0.00    +0.000 C 
ATOM      7  C   UNL     1     -19.624  43.068 -21.316  0.00  0.00    +0.000 A 
ATOM      8  C   UNL     1     -17.692  44.350 -19.182  0.00  0.00    +0.000 A 
ATOM      9  C   UNL     1     -20.730  42.534 -20.634  0.00  0.00    +0.000 A 
ATOM     10  C   UNL     1     -18.137  43.175 -17.125  0.00  0.00    +0.000 A 
ATOM     11  C   UNL     1     -19.825  43.785 -22.510  0.00  0.00    +0.000 A 
ATOM     12  C   UNL     1     -17.458  45.528 -18.503  0.00  0.00    +0.000 A 
ATOM     13  C   UNL     1     -22.025  42.762 -21.119  0.00  0.00    +0.000 A 
ATOM     14  C   UNL     1     -17.915  44.369 -16.424  0.00  0.00    +0.000 A 
ATOM     15  C   UNL     1     -17.574  45.549 -17.106  0.00  0.00    +0.000 A 
ATOM     16  C   UNL     1     -21.107  43.966 -23.022  0.00  0.00    +0.000 A 
ATOM     17  C   UNL     1     -22.190  43.449 -22.327  0.00  0.00    +0.000 A 
ENDROOT
BRANCH  12  18
ATOM     18  O   UNL     1     -17.122  46.665 -19.184  0.00  0.00    +0.000 OA
ATOM     19  H   UNL     1     -16.750  47.263 -18.510  0.00  0.00    +0.000 HD
ENDBRANCH  12  18
BRANCH  13  20
ATOM     20  O   UNL     1     -23.194  42.315 -20.549  0.00  0.00    +0.000 OA
ATOM     21  C   UNL     1     -23.499  40.949 -20.825  0.00  0.00    +0.000 C 
ENDBRANCH  13  20
BRANCH  15  22
ATOM     22  O   UNL     1     -17.329  46.769 -16.527  0.00  0.00    +0.000 OA
ATOM     23  C   UNL     1     -18.464  47.564 -16.203  0.00  0.00    +0.000 C 
ENDBRANCH  15  22
BRANCH  17  24
ATOM     24  O   UNL     1     -23.443  43.638 -22.847  0.00  0.00    +0.000 OA
ATOM     25  H   UNL     1     -23.759  44.467 -22.441  0.00  0.00    +0.000 HD
ENDBRANCH  17  24
TORSDOF 4
ENDMDL
MODEL 8
REMARK VINA RESULT:      -5.1     21.112     22.700
REMARK  Name = 
REMARK  6 active torsions:
REMARK  status: ('A' for Active; 'I' for Inactive)
REMARK    1  A    between atoms: O_3  and  C_16
REMARK    2  A    between atoms: O_4  and  C_17
REMARK    3  A    between atoms: O_4  and  C_22
REMARK    4  A    between atoms: O_5  and  C_19
REMARK    5  A    between atoms: O_5  and  C_23
REMARK    6  A    between atoms: O_6  and  C_21
REMARK                            x       y       z     vdW  Elec       q    Type
REMARK                         _______ _______ _______ _____ _____    ______ ____
ROOT
ATOM      1  O   UNL     1     -29.541  60.793 -24.551  0.00  0.00    +0.000 OA
ATOM      2  O   UNL     1     -30.563  61.045 -28.356  0.00  0.00    +0.000 OA
ATOM      3  C   UNL     1     -31.070  59.943 -26.220  0.00  0.00    +0.000 C 
ATOM      4  C   UNL     1     -29.601  60.052 -25.796  0.00  0.00    +0.000 C 
ATOM      5  C   UNL     1     -31.629  61.112 -25.484  0.00  0.00    +0.000 A 
ATOM      6  C   UNL     1     -31.207  59.938 -27.728  0.00  0.00    +0.000 C 
ATOM      7  C   UNL     1     -28.712  60.712 -26.829  0.00  0.00    +0.000 A 
ATOM      8  C   UNL     1     -30.709  61.515 -24.526  0.00  0.00    +0.000 A 
ATOM      9  C   UNL     1     -29.237  61.188 -28.042  0.00  0.00    +0.000 A 
ATOM     10  C   UNL     1     -32.861  61.734 -25.590  0.00  0.00    +0.000 A 
ATOM     11  C   UNL     1     -27.338  60.855 -26.562  0.00  0.00    +0.000 A 
ATOM     12  C   UNL     1     -30.995  62.542 -23.650  0.00  0.00    +0.000 A 
ATOM     13  C   UNL     1     -28.398  61.845 -28.954  0.00  0.00    +0.000 A 
ATOM     14  C   UNL     1     -33.158  62.789 -24.716  0.00  0.00    +0.000 A 
ATOM     15  C   UNL     1     -32.230  63.197 -23.742  0.00  0.00    +0.000 A 
ATOM     16  C   UNL     1     -26.495  61.458 -27.491  0.00  0.00    +0.000 A 
ATOM     17  C   UNL     1     -27.030  61.939 -28.676  0.00  0.00    +0.000 A 
ENDROOT
BRANCH  12  18
ATOM     18  O   UNL     1     -30.082  62.921 -22.707  0.00  0.00    +0.000 OA
ATOM     19  H   UNL     1     -30.613  63.244 -21.956  0.00  0.00    +0.000 HD
ENDBRANCH  12  18
BRANCH  13  20
ATOM     20  O   UNL     1     -28.776  62.371 -30.167  0.00  0.00    +0.000 OA
ATOM     21  C   UNL     1     -28.911  61.409 -31.211  0.00  0.00    +0.000 C 
ENDBRANCH  13  20
BRANCH  15  22
ATOM     22  O   UNL     1     -32.415  64.208 -22.831  0.00  0.00    +0.000 OA
ATOM     23  C   UNL     1     -33.729  64.742 -22.725  0.00  0.00    +0.000 C 
ENDBRANCH  15  22
BRANCH  17  24
ATOM     24  O   UNL     1     -26.183  62.530 -29.576  0.00  0.00    +0.000 OA
ATOM     25  H   UNL     1     -26.199  63.479 -29.348  0.00  0.00    +0.000 HD
ENDBRANCH  17  24
TORSDOF 4
ENDMDL
MODEL 9
REMARK VINA RESULT:      -5.0      8.678     13.248
REMARK  Name = 
REMARK  6 active torsions:
REMARK  status: ('A' for Active; 'I' for Inactive)
REMARK    1  A    between atoms: O_3  and  C_16
REMARK    2  A    between atoms: O_4  and  C_17
REMARK    3  A    between atoms: O_4  and  C_22
REMARK    4  A    between atoms: O_5  and  C_19
REMARK    5  A    between atoms: O_5  and  C_23
REMARK    6  A    between atoms: O_6  and  C_21
REMARK                            x       y       z     vdW  Elec       q    Type
REMARK                         _______ _______ _______ _____ _____    ______ ____
ROOT
ATOM      1  O   UNL     1     -40.233  53.527 -19.498  0.00  0.00    +0.000 OA
ATOM      2  O   UNL     1     -36.968  51.785 -20.874  0.00  0.00    +0.000 OA
ATOM      3  C   UNL     1     -39.137  52.750 -21.507  0.00  0.00    +0.000 C 
ATOM      4  C   UNL     1     -39.733  52.336 -20.158  0.00  0.00    +0.000 C 
ATOM      5  C   UNL     1     -38.845  54.183 -21.222  0.00  0.00    +0.000 A 
ATOM      6  C   UNL     1     -37.970  51.862 -21.887  0.00  0.00    +0.000 C 
ATOM      7  C   UNL     1     -38.758  51.618 -19.250  0.00  0.00    +0.000 A 
ATOM      8  C   UNL     1     -39.535  54.558 -20.079  0.00  0.00    +0.000 A 
ATOM      9  C   UNL     1     -37.428  51.394 -19.644  0.00  0.00    +0.000 A 
ATOM     10  C   UNL     1     -38.094  55.105 -21.932  0.00  0.00    +0.000 A 
ATOM     11  C   UNL     1     -39.193  51.173 -17.988  0.00  0.00    +0.000 A 
ATOM     12  C   UNL     1     -39.500  55.858 -19.618  0.00  0.00    +0.000 A 
ATOM     13  C   UNL     1     -36.534  50.776 -18.758  0.00  0.00    +0.000 A 
ATOM     14  C   UNL     1     -38.038  56.426 -21.466  0.00  0.00    +0.000 A 
ATOM     15  C   UNL     1     -38.739  56.810 -20.311  0.00  0.00    +0.000 A 
ATOM     16  C   UNL     1     -38.320  50.510 -17.131  0.00  0.00    +0.000 A 
ATOM     17  C   UNL     1     -37.006  50.313 -17.525  0.00  0.00    +0.000 A 
ENDROOT
BRANCH  12  18
ATOM     18  O   UNL     1     -40.193  56.213 -18.495  0.00  0.00    +0.000 OA
ATOM     19  H   UNL     1     -41.116  55.957 -18.676  0.00  0.00    +0.000 HD
ENDBRANCH  12  18
BRANCH  13  20
ATOM     20  O   UNL     1     -35.208  50.508 -19.003  0.00  0.00    +0.000 OA
ATOM     21  C   UNL     1     -34.977  49.341 -19.789  0.00  0.00    +0.000 C 
ENDBRANCH  13  20
BRANCH  15  22
ATOM     22  O   UNL     1     -38.764  58.071 -19.768  0.00  0.00    +0.000 OA
ATOM     23  C   UNL     1     -39.706  58.986 -20.316  0.00  0.00    +0.000 C 
ENDBRANCH  15  22
BRANCH  17  24
ATOM     24  O   UNL     1     -36.163  49.660 -16.666  0.00  0.00    +0.000 OA
ATOM     25  H   UNL     1     -35.852  50.349 -16.049  0.00  0.00    +0.000 HD
ENDBRANCH  17  24
TORSDOF 4
ENDMDL
