MODEL 1
REMARK VINA RESULT:      -6.2      0.000      0.000
REMARK  Name = IPA3.pdbqt.pdb
REMARK  5 active torsions:
REMARK  status: ('A' for Active; 'I' for Inactive)
REMARK    1  A    between atoms: S_1  and  S_2
REMARK    2  A    between atoms: S_1  and  C_15
REMARK    3  A    between atoms: S_2  and  C_3
REMARK    4  A    between atoms: C_10  and  O_13
REMARK    5  A    between atoms: C_22  and  O_25
REMARK                            x       y       z     vdW  Elec       q    Type
REMARK                         _______ _______ _______ _____ _____    ______ ____
ROOT
ATOM      1  S   UNL     1     -15.203  53.248   3.697  0.00  0.00    +0.000 S 
ENDROOT
BRANCH   1   2
ATOM      2  C   UNL     1     -14.762  53.946   2.099  0.00  0.00    +0.000 A 
ATOM      3  C   UNL     1     -14.938  55.325   1.829  0.00  0.00    +0.000 A 
ATOM      4  C   UNL     1     -14.549  55.831   0.566  0.00  0.00    +0.000 A 
ATOM      5  C   UNL     1     -15.470  56.237   2.758  0.00  0.00    +0.000 A 
ATOM      6  C   UNL     1     -14.018  54.983  -0.402  0.00  0.00    +0.000 A 
ATOM      7  C   UNL     1     -14.685  57.188   0.274  0.00  0.00    +0.000 A 
ATOM      8  C   UNL     1     -13.862  53.628  -0.141  0.00  0.00    +0.000 A 
ATOM      9  C   UNL     1     -14.229  53.117   1.099  0.00  0.00    +0.000 A 
ATOM     10  C   UNL     1     -15.208  58.066   1.218  0.00  0.00    +0.000 A 
ATOM     11  C   UNL     1     -15.603  57.591   2.462  0.00  0.00    +0.000 A 
BRANCH   9  12
ATOM     12  O   UNL     1     -14.036  51.773   1.287  0.00  0.00    +0.000 OA
ATOM     13  H   UNL     1     -13.098  51.580   1.107  0.00  0.00    +0.000 HD
ENDBRANCH   9  12
ENDBRANCH   1   2
BRANCH   1  14
ATOM     14  S   UNL     1     -16.986  52.311   3.264  0.00  0.00    +0.000 S 
BRANCH  14  15
ATOM     15  C   UNL     1     -16.656  50.629   3.807  0.00  0.00    +0.000 A 
ATOM     16  C   UNL     1     -16.758  50.268   5.172  0.00  0.00    +0.000 A 
ATOM     17  C   UNL     1     -16.515  48.925   5.545  0.00  0.00    +0.000 A 
ATOM     18  C   UNL     1     -17.104  51.173   6.192  0.00  0.00    +0.000 A 
ATOM     19  C   UNL     1     -16.164  47.978   4.588  0.00  0.00    +0.000 A 
ATOM     20  C   UNL     1     -16.629  48.528   6.877  0.00  0.00    +0.000 A 
ATOM     21  C   UNL     1     -16.048  48.338   3.250  0.00  0.00    +0.000 A 
ATOM     22  C   UNL     1     -16.294  49.651   2.866  0.00  0.00    +0.000 A 
ATOM     23  C   UNL     1     -16.983  49.446   7.862  0.00  0.00    +0.000 A 
ATOM     24  C   UNL     1     -17.218  50.772   7.520  0.00  0.00    +0.000 A 
BRANCH  22  25
ATOM     25  O   UNL     1     -16.170  49.928   1.530  0.00  0.00    +0.000 OA
ATOM     26  H   UNL     1     -16.346  49.104   1.040  0.00  0.00    +0.000 HD
ENDBRANCH  22  25
ENDBRANCH  14  15
ENDBRANCH   1  14
TORSDOF 5
ENDMDL
MODEL 2
REMARK VINA RESULT:      -6.2     22.793     24.199
REMARK  Name = IPA3.pdbqt.pdb
REMARK  5 active torsions:
REMARK  status: ('A' for Active; 'I' for Inactive)
REMARK    1  A    between atoms: S_1  and  S_2
REMARK    2  A    between atoms: S_1  and  C_15
REMARK    3  A    between atoms: S_2  and  C_3
REMARK    4  A    between atoms: C_10  and  O_13
REMARK    5  A    between atoms: C_22  and  O_25
REMARK                            x       y       z     vdW  Elec       q    Type
REMARK                         _______ _______ _______ _____ _____    ______ ____
ROOT
ATOM      1  S   UNL     1     -33.361  46.045  -6.537  0.00  0.00    +0.000 S 
ENDROOT
BRANCH   1   2
ATOM      2  C   UNL     1     -33.768  45.489  -8.198  0.00  0.00    +0.000 A 
ATOM      3  C   UNL     1     -34.918  45.971  -8.870  0.00  0.00    +0.000 A 
ATOM      4  C   UNL     1     -35.179  45.524 -10.186  0.00  0.00    +0.000 A 
ATOM      5  C   UNL     1     -35.820  46.889  -8.305  0.00  0.00    +0.000 A 
ATOM      6  C   UNL     1     -34.329  44.611 -10.806  0.00  0.00    +0.000 A 
ATOM      7  C   UNL     1     -36.289  45.995 -10.888  0.00  0.00    +0.000 A 
ATOM      8  C   UNL     1     -33.211  44.127 -10.138  0.00  0.00    +0.000 A 
ATOM      9  C   UNL     1     -32.934  44.565  -8.847  0.00  0.00    +0.000 A 
ATOM     10  C   UNL     1     -37.159  46.910 -10.303  0.00  0.00    +0.000 A 
ATOM     11  C   UNL     1     -36.926  47.358  -9.010  0.00  0.00    +0.000 A 
BRANCH   9  12
ATOM     12  O   UNL     1     -31.809  44.052  -8.258  0.00  0.00    +0.000 OA
ATOM     13  H   UNL     1     -31.148  43.905  -8.958  0.00  0.00    +0.000 HD
ENDBRANCH   9  12
ENDBRANCH   1   2
BRANCH   1  14
ATOM     14  S   UNL     1     -33.793  44.369  -5.419  0.00  0.00    +0.000 S 
BRANCH  14  15
ATOM     15  C   UNL     1     -35.174  43.669  -6.333  0.00  0.00    +0.000 A 
ATOM     16  C   UNL     1     -36.461  44.255  -6.277  0.00  0.00    +0.000 A 
ATOM     17  C   UNL     1     -37.509  43.682  -7.036  0.00  0.00    +0.000 A 
ATOM     18  C   UNL     1     -36.764  45.395  -5.511  0.00  0.00    +0.000 A 
ATOM     19  C   UNL     1     -37.281  42.550  -7.813  0.00  0.00    +0.000 A 
ATOM     20  C   UNL     1     -38.784  44.246  -7.024  0.00  0.00    +0.000 A 
ATOM     21  C   UNL     1     -36.020  41.966  -7.854  0.00  0.00    +0.000 A 
ATOM     22  C   UNL     1     -34.979  42.523  -7.122  0.00  0.00    +0.000 A 
ATOM     23  C   UNL     1     -39.049  45.382  -6.263  0.00  0.00    +0.000 A 
ATOM     24  C   UNL     1     -38.038  45.957  -5.503  0.00  0.00    +0.000 A 
BRANCH  22  25
ATOM     25  O   UNL     1     -33.763  41.899  -7.220  0.00  0.00    +0.000 OA
ATOM     26  H   UNL     1     -33.282  42.303  -7.966  0.00  0.00    +0.000 HD
ENDBRANCH  22  25
ENDBRANCH  14  15
ENDBRANCH   1  14
TORSDOF 5
ENDMDL
MODEL 3
REMARK VINA RESULT:      -6.1     27.656     31.073
REMARK  Name = IPA3.pdbqt.pdb
REMARK  5 active torsions:
REMARK  status: ('A' for Active; 'I' for Inactive)
REMARK    1  A    between atoms: S_1  and  S_2
REMARK    2  A    between atoms: S_1  and  C_15
REMARK    3  A    between atoms: S_2  and  C_3
REMARK    4  A    between atoms: C_10  and  O_13
REMARK    5  A    between atoms: C_22  and  O_25
REMARK                            x       y       z     vdW  Elec       q    Type
REMARK                         _______ _______ _______ _____ _____    ______ ____
ROOT
ATOM      1  S   UNL     1     -16.090  56.250 -27.021  0.00  0.00    +0.000 S 
ENDROOT
BRANCH   1   2
ATOM      2  C   UNL     1     -15.937  55.241 -25.540  0.00  0.00    +0.000 A 
ATOM      3  C   UNL     1     -16.105  55.802 -24.251  0.00  0.00    +0.000 A 
ATOM      4  C   UNL     1     -16.003  54.960 -23.119  0.00  0.00    +0.000 A 
ATOM      5  C   UNL     1     -16.385  57.161 -24.026  0.00  0.00    +0.000 A 
ATOM      6  C   UNL     1     -15.724  53.604 -23.268  0.00  0.00    +0.000 A 
ATOM      7  C   UNL     1     -16.186  55.473 -21.835  0.00  0.00    +0.000 A 
ATOM      8  C   UNL     1     -15.543  53.059 -24.533  0.00  0.00    +0.000 A 
ATOM      9  C   UNL     1     -15.651  53.871 -25.657  0.00  0.00    +0.000 A 
ATOM     10  C   UNL     1     -16.470  56.823 -21.646  0.00  0.00    +0.000 A 
ATOM     11  C   UNL     1     -16.569  57.669 -22.742  0.00  0.00    +0.000 A 
BRANCH   9  12
ATOM     12  O   UNL     1     -15.470  53.261 -26.870  0.00  0.00    +0.000 OA
ATOM     13  H   UNL     1     -15.621  53.929 -27.564  0.00  0.00    +0.000 HD
ENDBRANCH   9  12
ENDBRANCH   1   2
BRANCH   1  14
ATOM     14  S   UNL     1     -18.136  56.379 -27.227  0.00  0.00    +0.000 S 
BRANCH  14  15
ATOM     15  C   UNL     1     -18.420  55.361 -28.682  0.00  0.00    +0.000 A 
ATOM     16  C   UNL     1     -18.470  55.931 -29.976  0.00  0.00    +0.000 A 
ATOM     17  C   UNL     1     -18.668  55.084 -31.092  0.00  0.00    +0.000 A 
ATOM     18  C   UNL     1     -18.320  57.308 -30.226  0.00  0.00    +0.000 A 
ATOM     19  C   UNL     1     -18.829  53.713 -30.918  0.00  0.00    +0.000 A 
ATOM     20  C   UNL     1     -18.700  55.608 -32.384  0.00  0.00    +0.000 A 
ATOM     21  C   UNL     1     -18.795  53.155 -29.645  0.00  0.00    +0.000 A 
ATOM     22  C   UNL     1     -18.591  53.974 -28.540  0.00  0.00    +0.000 A 
ATOM     23  C   UNL     1     -18.538  56.974 -32.598  0.00  0.00    +0.000 A 
ATOM     24  C   UNL     1     -18.350  57.827 -31.517  0.00  0.00    +0.000 A 
BRANCH  22  25
ATOM     25  O   UNL     1     -18.561  53.352 -27.319  0.00  0.00    +0.000 OA
ATOM     26  H   UNL     1     -18.495  54.045 -26.636  0.00  0.00    +0.000 HD
ENDBRANCH  22  25
ENDBRANCH  14  15
ENDBRANCH   1  14
TORSDOF 5
ENDMDL
MODEL 4
REMARK VINA RESULT:      -6.1     27.683     30.712
REMARK  Name = IPA3.pdbqt.pdb
REMARK  5 active torsions:
REMARK  status: ('A' for Active; 'I' for Inactive)
REMARK    1  A    between atoms: S_1  and  S_2
REMARK    2  A    between atoms: S_1  and  C_15
REMARK    3  A    between atoms: S_2  and  C_3
REMARK    4  A    between atoms: C_10  and  O_13
REMARK    5  A    between atoms: C_22  and  O_25
REMARK                            x       y       z     vdW  Elec       q    Type
REMARK                         _______ _______ _______ _____ _____    ______ ____
ROOT
ATOM      1  S   UNL     1     -18.101  56.397 -27.211  0.00  0.00    +0.000 S 
ENDROOT
BRANCH   1   2
ATOM      2  C   UNL     1     -18.450  55.435 -28.691  0.00  0.00    +0.000 A 
ATOM      3  C   UNL     1     -18.528  56.052 -29.963  0.00  0.00    +0.000 A 
ATOM      4  C   UNL     1     -18.777  55.247 -31.100  0.00  0.00    +0.000 A 
ATOM      5  C   UNL     1     -18.358  57.432 -30.170  0.00  0.00    +0.000 A 
ATOM      6  C   UNL     1     -18.959  53.873 -30.968  0.00  0.00    +0.000 A 
ATOM      7  C   UNL     1     -18.837  55.816 -32.372  0.00  0.00    +0.000 A 
ATOM      8  C   UNL     1     -18.898  53.273 -29.716  0.00  0.00    +0.000 A 
ATOM      9  C   UNL     1     -18.644  54.048 -28.590  0.00  0.00    +0.000 A 
ATOM     10  C   UNL     1     -18.656  57.186 -32.544  0.00  0.00    +0.000 A 
ATOM     11  C   UNL     1     -18.418  57.996 -31.442  0.00  0.00    +0.000 A 
BRANCH   9  12
ATOM     12  O   UNL     1     -18.588  53.385 -27.393  0.00  0.00    +0.000 OA
ATOM     13  H   UNL     1     -18.586  54.054 -26.683  0.00  0.00    +0.000 HD
ENDBRANCH   9  12
ENDBRANCH   1   2
BRANCH   1  14
ATOM     14  S   UNL     1     -16.056  56.198 -27.057  0.00  0.00    +0.000 S 
BRANCH  14  15
ATOM     15  C   UNL     1     -15.900  55.173 -25.588  0.00  0.00    +0.000 A 
ATOM     16  C   UNL     1     -16.048  55.725 -24.293  0.00  0.00    +0.000 A 
ATOM     17  C   UNL     1     -15.944  54.872 -23.169  0.00  0.00    +0.000 A 
ATOM     18  C   UNL     1     -16.307  57.086 -24.052  0.00  0.00    +0.000 A 
ATOM     19  C   UNL     1     -15.683  53.514 -23.333  0.00  0.00    +0.000 A 
ATOM     20  C   UNL     1     -16.106  55.375 -21.878  0.00  0.00    +0.000 A 
ATOM     21  C   UNL     1     -15.523  52.977 -24.605  0.00  0.00    +0.000 A 
ATOM     22  C   UNL     1     -15.633  53.801 -25.720  0.00  0.00    +0.000 A 
ATOM     23  C   UNL     1     -16.372  56.727 -21.674  0.00  0.00    +0.000 A 
ATOM     24  C   UNL     1     -16.471  57.585 -22.762  0.00  0.00    +0.000 A 
BRANCH  22  25
ATOM     25  O   UNL     1     -15.473  53.199 -26.940  0.00  0.00    +0.000 OA
ATOM     26  H   UNL     1     -15.019  53.833 -27.525  0.00  0.00    +0.000 HD
ENDBRANCH  22  25
ENDBRANCH  14  15
ENDBRANCH   1  14
TORSDOF 5
ENDMDL
MODEL 5
REMARK VINA RESULT:      -6.0      2.123      3.823
REMARK  Name = IPA3.pdbqt.pdb
REMARK  5 active torsions:
REMARK  status: ('A' for Active; 'I' for Inactive)
REMARK    1  A    between atoms: S_1  and  S_2
REMARK    2  A    between atoms: S_1  and  C_15
REMARK    3  A    between atoms: S_2  and  C_3
REMARK    4  A    between atoms: C_10  and  O_13
REMARK    5  A    between atoms: C_22  and  O_25
REMARK                            x       y       z     vdW  Elec       q    Type
REMARK                         _______ _______ _______ _____ _____    ______ ____
ROOT
ATOM      1  S   UNL     1     -15.811  54.661   4.695  0.00  0.00    +0.000 S 
ENDROOT
BRANCH   1   2
ATOM      2  C   UNL     1     -15.454  55.566   3.182  0.00  0.00    +0.000 A 
ATOM      3  C   UNL     1     -14.861  54.924   2.068  0.00  0.00    +0.000 A 
ATOM      4  C   UNL     1     -14.625  55.674   0.891  0.00  0.00    +0.000 A 
ATOM      5  C   UNL     1     -14.499  53.566   2.056  0.00  0.00    +0.000 A 
ATOM      6  C   UNL     1     -14.955  57.025   0.835  0.00  0.00    +0.000 A 
ATOM      7  C   UNL     1     -14.065  55.069  -0.234  0.00  0.00    +0.000 A 
ATOM      8  C   UNL     1     -15.522  57.657   1.936  0.00  0.00    +0.000 A 
ATOM      9  C   UNL     1     -15.769  56.932   3.096  0.00  0.00    +0.000 A 
ATOM     10  C   UNL     1     -13.726  53.719  -0.217  0.00  0.00    +0.000 A 
ATOM     11  C   UNL     1     -13.941  52.966   0.929  0.00  0.00    +0.000 A 
BRANCH   9  12
ATOM     12  O   UNL     1     -16.339  57.619   4.135  0.00  0.00    +0.000 OA
ATOM     13  H   UNL     1     -15.993  58.530   4.114  0.00  0.00    +0.000 HD
ENDBRANCH   9  12
ENDBRANCH   1   2
BRANCH   1  14
ATOM     14  S   UNL     1     -17.563  53.696   4.198  0.00  0.00    +0.000 S 
BRANCH  14  15
ATOM     15  C   UNL     1     -17.254  52.038   4.822  0.00  0.00    +0.000 A 
ATOM     16  C   UNL     1     -16.920  50.978   3.946  0.00  0.00    +0.000 A 
ATOM     17  C   UNL     1     -16.659  49.697   4.489  0.00  0.00    +0.000 A 
ATOM     18  C   UNL     1     -16.817  51.124   2.551  0.00  0.00    +0.000 A 
ATOM     19  C   UNL     1     -16.747  49.480   5.861  0.00  0.00    +0.000 A 
ATOM     20  C   UNL     1     -16.304  48.634   3.659  0.00  0.00    +0.000 A 
ATOM     21  C   UNL     1     -17.091  50.518   6.718  0.00  0.00    +0.000 A 
ATOM     22  C   UNL     1     -17.340  51.785   6.201  0.00  0.00    +0.000 A 
ATOM     23  C   UNL     1     -16.202  48.814   2.282  0.00  0.00    +0.000 A 
ATOM     24  C   UNL     1     -16.461  50.061   1.726  0.00  0.00    +0.000 A 
BRANCH  22  25
ATOM     25  O   UNL     1     -17.664  52.760   7.107  0.00  0.00    +0.000 OA
ATOM     26  H   UNL     1     -16.949  52.796   7.770  0.00  0.00    +0.000 HD
ENDBRANCH  22  25
ENDBRANCH  14  15
ENDBRANCH   1  14
TORSDOF 5
ENDMDL
MODEL 6
REMARK VINA RESULT:      -6.0      4.366      6.720
REMARK  Name = IPA3.pdbqt.pdb
REMARK  5 active torsions:
REMARK  status: ('A' for Active; 'I' for Inactive)
REMARK    1  A    between atoms: S_1  and  S_2
REMARK    2  A    between atoms: S_1  and  C_15
REMARK    3  A    between atoms: S_2  and  C_3
REMARK    4  A    between atoms: C_10  and  O_13
REMARK    5  A    between atoms: C_22  and  O_25
REMARK                            x       y       z     vdW  Elec       q    Type
REMARK                         _______ _______ _______ _____ _____    ______ ____
ROOT
ATOM      1  S   UNL     1     -15.319  46.856   4.488  0.00  0.00    +0.000 S 
ENDROOT
BRANCH   1   2
ATOM      2  C   UNL     1     -16.042  48.445   4.052  0.00  0.00    +0.000 A 
ATOM      3  C   UNL     1     -16.507  49.335   5.050  0.00  0.00    +0.000 A 
ATOM      4  C   UNL     1     -17.042  50.585   4.657  0.00  0.00    +0.000 A 
ATOM      5  C   UNL     1     -16.457  49.055   6.426  0.00  0.00    +0.000 A 
ATOM      6  C   UNL     1     -17.125  50.927   3.309  0.00  0.00    +0.000 A 
ATOM      7  C   UNL     1     -17.488  51.497   5.613  0.00  0.00    +0.000 A 
ATOM      8  C   UNL     1     -16.683  50.044   2.332  0.00  0.00    +0.000 A 
ATOM      9  C   UNL     1     -16.145  48.816   2.702  0.00  0.00    +0.000 A 
ATOM     10  C   UNL     1     -17.417  51.193   6.969  0.00  0.00    +0.000 A 
ATOM     11  C   UNL     1     -16.903  49.970   7.378  0.00  0.00    +0.000 A 
BRANCH   9  12
ATOM     12  O   UNL     1     -15.721  48.004   1.684  0.00  0.00    +0.000 OA
ATOM     13  H   UNL     1     -15.695  48.538   0.869  0.00  0.00    +0.000 HD
ENDBRANCH   9  12
ENDBRANCH   1   2
BRANCH   1  14
ATOM     14  S   UNL     1     -16.874  45.566   4.082  0.00  0.00    +0.000 S 
BRANCH  14  15
ATOM     15  C   UNL     1     -16.491  44.183   5.166  0.00  0.00    +0.000 A 
ATOM     16  C   UNL     1     -17.042  44.099   6.467  0.00  0.00    +0.000 A 
ATOM     17  C   UNL     1     -16.733  42.977   7.271  0.00  0.00    +0.000 A 
ATOM     18  C   UNL     1     -17.901  45.072   7.012  0.00  0.00    +0.000 A 
ATOM     19  C   UNL     1     -15.887  41.980   6.797  0.00  0.00    +0.000 A 
ATOM     20  C   UNL     1     -17.276  42.849   8.549  0.00  0.00    +0.000 A 
ATOM     21  C   UNL     1     -15.334  42.071   5.524  0.00  0.00    +0.000 A 
ATOM     22  C   UNL     1     -15.636  43.163   4.719  0.00  0.00    +0.000 A 
ATOM     23  C   UNL     1     -18.130  43.825   9.057  0.00  0.00    +0.000 A 
ATOM     24  C   UNL     1     -18.442  44.939   8.288  0.00  0.00    +0.000 A 
BRANCH  22  25
ATOM     25  O   UNL     1     -15.062  43.179   3.475  0.00  0.00    +0.000 OA
ATOM     26  H   UNL     1     -14.837  42.260   3.241  0.00  0.00    +0.000 HD
ENDBRANCH  22  25
ENDBRANCH  14  15
ENDBRANCH   1  14
TORSDOF 5
ENDMDL
MODEL 7
REMARK VINA RESULT:      -5.9      4.267      9.425
REMARK  Name = IPA3.pdbqt.pdb
REMARK  5 active torsions:
REMARK  status: ('A' for Active; 'I' for Inactive)
REMARK    1  A    between atoms: S_1  and  S_2
REMARK    2  A    between atoms: S_1  and  C_15
REMARK    3  A    between atoms: S_2  and  C_3
REMARK    4  A    between atoms: C_10  and  O_13
REMARK    5  A    between atoms: C_22  and  O_25
REMARK                            x       y       z     vdW  Elec       q    Type
REMARK                         _______ _______ _______ _____ _____    ______ ____
ROOT
ATOM      1  S   UNL     1     -17.060  45.690   4.283  0.00  0.00    +0.000 S 
ENDROOT
BRANCH   1   2
ATOM      2  C   UNL     1     -16.578  44.276   5.284  0.00  0.00    +0.000 A 
ATOM      3  C   UNL     1     -17.081  44.103   6.597  0.00  0.00    +0.000 A 
ATOM      4  C   UNL     1     -16.693  42.959   7.333  0.00  0.00    +0.000 A 
ATOM      5  C   UNL     1     -17.964  45.005   7.216  0.00  0.00    +0.000 A 
ATOM      6  C   UNL     1     -15.818  42.026   6.783  0.00  0.00    +0.000 A 
ATOM      7  C   UNL     1     -17.187  42.744   8.620  0.00  0.00    +0.000 A 
ATOM      8  C   UNL     1     -15.314  42.206   5.501  0.00  0.00    +0.000 A 
ATOM      9  C   UNL     1     -15.693  43.320   4.760  0.00  0.00    +0.000 A 
ATOM     10  C   UNL     1     -18.066  43.652   9.202  0.00  0.00    +0.000 A 
ATOM     11  C   UNL     1     -18.455  44.785   8.501  0.00  0.00    +0.000 A 
BRANCH   9  12
ATOM     12  O   UNL     1     -15.163  43.425   3.501  0.00  0.00    +0.000 OA
ATOM     13  H   UNL     1     -14.399  42.822   3.450  0.00  0.00    +0.000 HD
ENDBRANCH   9  12
ENDBRANCH   1   2
BRANCH   1  14
ATOM     14  S   UNL     1     -15.480  46.976   4.592  0.00  0.00    +0.000 S 
BRANCH  14  15
ATOM     15  C   UNL     1     -16.103  48.499   3.865  0.00  0.00    +0.000 A 
ATOM     16  C   UNL     1     -16.593  49.550   4.677  0.00  0.00    +0.000 A 
ATOM     17  C   UNL     1     -17.046  50.739   4.059  0.00  0.00    +0.000 A 
ATOM     18  C   UNL     1     -16.646  49.488   6.081  0.00  0.00    +0.000 A 
ATOM     19  C   UNL     1     -17.026  50.867   2.673  0.00  0.00    +0.000 A 
ATOM     20  C   UNL     1     -17.514  51.804   4.828  0.00  0.00    +0.000 A 
ATOM     21  C   UNL     1     -16.560  49.828   1.876  0.00  0.00    +0.000 A 
ATOM     22  C   UNL     1     -16.102  48.657   2.470  0.00  0.00    +0.000 A 
ATOM     23  C   UNL     1     -17.544  51.715   6.217  0.00  0.00    +0.000 A 
ATOM     24  C   UNL     1     -17.112  50.554   6.846  0.00  0.00    +0.000 A 
BRANCH  22  25
ATOM     25  O   UNL     1     -15.648  47.681   1.621  0.00  0.00    +0.000 OA
ATOM     26  H   UNL     1     -15.434  46.897   2.160  0.00  0.00    +0.000 HD
ENDBRANCH  22  25
ENDBRANCH  14  15
ENDBRANCH   1  14
TORSDOF 5
ENDMDL
MODEL 8
REMARK VINA RESULT:      -5.9     22.716     24.850
REMARK  Name = IPA3.pdbqt.pdb
REMARK  5 active torsions:
REMARK  status: ('A' for Active; 'I' for Inactive)
REMARK    1  A    between atoms: S_1  and  S_2
REMARK    2  A    between atoms: S_1  and  C_15
REMARK    3  A    between atoms: S_2  and  C_3
REMARK    4  A    between atoms: C_10  and  O_13
REMARK    5  A    between atoms: C_22  and  O_25
REMARK                            x       y       z     vdW  Elec       q    Type
REMARK                         _______ _______ _______ _____ _____    ______ ____
ROOT
ATOM      1  S   UNL     1     -35.667  42.073 -10.446  0.00  0.00    +0.000 S 
ENDROOT
BRANCH   1   2
ATOM      2  C   UNL     1     -34.850  41.366  -9.008  0.00  0.00    +0.000 A 
ATOM      3  C   UNL     1     -35.181  41.788  -7.697  0.00  0.00    +0.000 A 
ATOM      4  C   UNL     1     -34.530  41.180  -6.597  0.00  0.00    +0.000 A 
ATOM      5  C   UNL     1     -36.139  42.778  -7.418  0.00  0.00    +0.000 A 
ATOM      6  C   UNL     1     -33.566  40.195  -6.801  0.00  0.00    +0.000 A 
ATOM      7  C   UNL     1     -34.847  41.553  -5.292  0.00  0.00    +0.000 A 
ATOM      8  C   UNL     1     -33.232  39.795  -8.089  0.00  0.00    +0.000 A 
ATOM      9  C   UNL     1     -33.871  40.375  -9.180  0.00  0.00    +0.000 A 
ATOM     10  C   UNL     1     -35.807  42.531  -5.048  0.00  0.00    +0.000 A 
ATOM     11  C   UNL     1     -36.454  43.146  -6.112  0.00  0.00    +0.000 A 
BRANCH   9  12
ATOM     12  O   UNL     1     -33.496  39.922 -10.418  0.00  0.00    +0.000 OA
ATOM     13  H   UNL     1     -34.025  40.400 -11.081  0.00  0.00    +0.000 HD
ENDBRANCH   9  12
ENDBRANCH   1   2
BRANCH   1  14
ATOM     14  S   UNL     1     -34.259  43.428 -11.099  0.00  0.00    +0.000 S 
BRANCH  14  15
ATOM     15  C   UNL     1     -34.159  44.553  -9.699  0.00  0.00    +0.000 A 
ATOM     16  C   UNL     1     -35.143  45.549  -9.490  0.00  0.00    +0.000 A 
ATOM     17  C   UNL     1     -35.034  46.391  -8.358  0.00  0.00    +0.000 A 
ATOM     18  C   UNL     1     -36.243  45.747 -10.343  0.00  0.00    +0.000 A 
ATOM     19  C   UNL     1     -33.968  46.254  -7.474  0.00  0.00    +0.000 A 
ATOM     20  C   UNL     1     -35.997  47.369  -8.107  0.00  0.00    +0.000 A 
ATOM     21  C   UNL     1     -32.995  45.285  -7.690  0.00  0.00    +0.000 A 
ATOM     22  C   UNL     1     -33.093  44.443  -8.792  0.00  0.00    +0.000 A 
ATOM     23  C   UNL     1     -37.080  47.533  -8.966  0.00  0.00    +0.000 A 
ATOM     24  C   UNL     1     -37.203  46.723 -10.088  0.00  0.00    +0.000 A 
BRANCH  22  25
ATOM     25  O   UNL     1     -32.102  43.507  -8.934  0.00  0.00    +0.000 OA
ATOM     26  H   UNL     1     -32.229  43.071  -9.796  0.00  0.00    +0.000 HD
ENDBRANCH  22  25
ENDBRANCH  14  15
ENDBRANCH   1  14
TORSDOF 5
ENDMDL
MODEL 9
REMARK VINA RESULT:      -5.9      3.303      5.939
REMARK  Name = IPA3.pdbqt.pdb
REMARK  5 active torsions:
REMARK  status: ('A' for Active; 'I' for Inactive)
REMARK    1  A    between atoms: S_1  and  S_2
REMARK    2  A    between atoms: S_1  and  C_15
REMARK    3  A    between atoms: S_2  and  C_3
REMARK    4  A    between atoms: C_10  and  O_13
REMARK    5  A    between atoms: C_22  and  O_25
REMARK                            x       y       z     vdW  Elec       q    Type
REMARK                         _______ _______ _______ _____ _____    ______ ____
ROOT
ATOM      1  S   UNL     1     -17.191  51.136   2.381  0.00  0.00    +0.000 S 
ENDROOT
BRANCH   1   2
ATOM      2  C   UNL     1     -17.482  51.548   4.107  0.00  0.00    +0.000 A 
ATOM      3  C   UNL     1     -17.130  50.650   5.144  0.00  0.00    +0.000 A 
ATOM      4  C   UNL     1     -17.353  51.033   6.487  0.00  0.00    +0.000 A 
ATOM      5  C   UNL     1     -16.552  49.389   4.916  0.00  0.00    +0.000 A 
ATOM      6  C   UNL     1     -17.927  52.267   6.785  0.00  0.00    +0.000 A 
ATOM      7  C   UNL     1     -16.998  50.184   7.535  0.00  0.00    +0.000 A 
ATOM      8  C   UNL     1     -18.286  53.139   5.766  0.00  0.00    +0.000 A 
ATOM      9  C   UNL     1     -18.063  52.782   4.440  0.00  0.00    +0.000 A 
ATOM     10  C   UNL     1     -16.419  48.945   7.276  0.00  0.00    +0.000 A 
ATOM     11  C   UNL     1     -16.196  48.545   5.966  0.00  0.00    +0.000 A 
BRANCH   9  12
ATOM     12  O   UNL     1     -18.434  53.698   3.491  0.00  0.00    +0.000 OA
ATOM     13  H   UNL     1     -17.645  53.911   2.961  0.00  0.00    +0.000 HD
ENDBRANCH   9  12
ENDBRANCH   1   2
BRANCH   1  14
ATOM     14  S   UNL     1     -15.421  52.124   2.010  0.00  0.00    +0.000 S 
BRANCH  14  15
ATOM     15  C   UNL     1     -14.262  51.185   3.014  0.00  0.00    +0.000 A 
ATOM     16  C   UNL     1     -13.874  51.638   4.298  0.00  0.00    +0.000 A 
ATOM     17  C   UNL     1     -12.981  50.849   5.061  0.00  0.00    +0.000 A 
ATOM     18  C   UNL     1     -14.337  52.834   4.874  0.00  0.00    +0.000 A 
ATOM     19  C   UNL     1     -12.479  49.656   4.551  0.00  0.00    +0.000 A 
ATOM     20  C   UNL     1     -12.593  51.252   6.339  0.00  0.00    +0.000 A 
ATOM     21  C   UNL     1     -12.849  49.220   3.284  0.00  0.00    +0.000 A 
ATOM     22  C   UNL     1     -13.734  49.979   2.526  0.00  0.00    +0.000 A 
ATOM     23  C   UNL     1     -13.078  52.437   6.885  0.00  0.00    +0.000 A 
ATOM     24  C   UNL     1     -13.950  53.232   6.151  0.00  0.00    +0.000 A 
BRANCH  22  25
ATOM     25  O   UNL     1     -14.060  49.482   1.291  0.00  0.00    +0.000 OA
ATOM     26  H   UNL     1     -13.445  48.751   1.095  0.00  0.00    +0.000 HD
ENDBRANCH  22  25
ENDBRANCH  14  15
ENDBRANCH   1  14
TORSDOF 5
ENDMDL
