MODEL 1
REMARK VINA RESULT:      -5.4      0.000      0.000
REMARK  Name = 
REMARK  4 active torsions:
REMARK  status: ('A' for Active; 'I' for Inactive)
REMARK    1  A    between atoms: C_1  and  C_6
REMARK    2  A    between atoms: C_1  and  C_7
REMARK    3  A    between atoms: C_9  and  C_14
REMARK    4  A    between atoms: C_11  and  C_15
REMARK                            x       y       z     vdW  Elec       q    Type
REMARK                         _______ _______ _______ _____ _____    ______ ____
ROOT
ATOM      1  C   UNL     1     -35.693  46.364  -8.801  0.00  0.00    +0.000 C 
ATOM      2  C   UNL     1     -35.675  45.810  -7.380  0.00  0.00    +0.000 C 
ATOM      3  C   UNL     1     -34.670  46.856  -7.792  0.00  0.00    +0.000 C 
ATOM      4  C   UNL     1     -35.310  44.415  -7.140  0.00  0.00    +0.000 C 
ATOM      5  C   UNL     1     -33.207  46.548  -7.844  0.00  0.00    +0.000 C 
ATOM      6  C   UNL     1     -35.252  45.519  -9.974  0.00  0.00    +0.000 C 
ATOM      7  C   UNL     1     -36.817  47.310  -9.153  0.00  0.00    +0.000 C 
ATOM      8  C   UNL     1     -34.158  43.865  -6.710  0.00  0.00    +0.000 C 
ATOM      9  C   UNL     1     -36.359  43.351  -7.397  0.00  0.00    +0.000 C 
ATOM     10  C   UNL     1     -32.724  46.033  -6.488  0.00  0.00    +0.000 C 
ATOM     11  C   UNL     1     -32.841  44.504  -6.331  0.00  0.00    +0.000 C 
ATOM     12  C   UNL     1     -34.269  42.363  -6.663  0.00  0.00    +0.000 C 
ATOM     13  C   UNL     1     -35.513  42.081  -7.497  0.00  0.00    +0.000 C 
ATOM     14  C   UNL     1     -37.388  43.271  -6.272  0.00  0.00    +0.000 C 
ATOM     15  C   UNL     1     -32.450  44.132  -4.894  0.00  0.00    +0.000 C 
ENDROOT
TORSDOF 0
ENDMDL
MODEL 2
REMARK VINA RESULT:      -5.4     20.349     22.391
REMARK  Name = 
REMARK  4 active torsions:
REMARK  status: ('A' for Active; 'I' for Inactive)
REMARK    1  A    between atoms: C_1  and  C_6
REMARK    2  A    between atoms: C_1  and  C_7
REMARK    3  A    between atoms: C_9  and  C_14
REMARK    4  A    between atoms: C_11  and  C_15
REMARK                            x       y       z     vdW  Elec       q    Type
REMARK                         _______ _______ _______ _____ _____    ______ ____
ROOT
ATOM      1  C   UNL     1     -15.542  47.126   2.324  0.00  0.00    +0.000 C 
ATOM      2  C   UNL     1     -15.045  48.410   2.981  0.00  0.00    +0.000 C 
ATOM      3  C   UNL     1     -15.285  47.181   3.820  0.00  0.00    +0.000 C 
ATOM      4  C   UNL     1     -15.910  49.587   3.038  0.00  0.00    +0.000 C 
ATOM      5  C   UNL     1     -16.352  47.154   4.869  0.00  0.00    +0.000 C 
ATOM      6  C   UNL     1     -16.956  47.011   1.803  0.00  0.00    +0.000 C 
ATOM      7  C   UNL     1     -14.548  46.356   1.487  0.00  0.00    +0.000 C 
ATOM      8  C   UNL     1     -16.651  50.090   4.043  0.00  0.00    +0.000 C 
ATOM      9  C   UNL     1     -16.040  50.436   1.788  0.00  0.00    +0.000 C 
ATOM     10  C   UNL     1     -16.146  48.293   5.866  0.00  0.00    +0.000 C 
ATOM     11  C   UNL     1     -16.850  49.604   5.461  0.00  0.00    +0.000 C 
ATOM     12  C   UNL     1     -17.408  51.312   3.589  0.00  0.00    +0.000 C 
ATOM     13  C   UNL     1     -17.314  51.233   2.070  0.00  0.00    +0.000 C 
ATOM     14  C   UNL     1     -14.829  51.341   1.576  0.00  0.00    +0.000 C 
ATOM     15  C   UNL     1     -16.462  50.695   6.469  0.00  0.00    +0.000 C 
ENDROOT
TORSDOF 0
ENDMDL
MODEL 3
REMARK VINA RESULT:      -5.0     20.939     22.928
REMARK  Name = 
REMARK  4 active torsions:
REMARK  status: ('A' for Active; 'I' for Inactive)
REMARK    1  A    between atoms: C_1  and  C_6
REMARK    2  A    between atoms: C_1  and  C_7
REMARK    3  A    between atoms: C_9  and  C_14
REMARK    4  A    between atoms: C_11  and  C_15
REMARK                            x       y       z     vdW  Elec       q    Type
REMARK                         _______ _______ _______ _____ _____    ______ ____
ROOT
ATOM      1  C   UNL     1     -15.440  49.715   2.501  0.00  0.00    +0.000 C 
ATOM      2  C   UNL     1     -15.223  50.689   3.656  0.00  0.00    +0.000 C 
ATOM      3  C   UNL     1     -15.226  49.204   3.916  0.00  0.00    +0.000 C 
ATOM      4  C   UNL     1     -16.307  51.569   4.087  0.00  0.00    +0.000 C 
ATOM      5  C   UNL     1     -16.284  48.567   4.761  0.00  0.00    +0.000 C 
ATOM      6  C   UNL     1     -16.793  49.574   1.844  0.00  0.00    +0.000 C 
ATOM      7  C   UNL     1     -14.298  49.539   1.530  0.00  0.00    +0.000 C 
ATOM      8  C   UNL     1     -17.152  51.482   5.132  0.00  0.00    +0.000 C 
ATOM      9  C   UNL     1     -16.583  52.814   3.266  0.00  0.00    +0.000 C 
ATOM     10  C   UNL     1     -16.328  49.222   6.141  0.00  0.00    +0.000 C 
ATOM     11  C   UNL     1     -17.273  50.437   6.218  0.00  0.00    +0.000 C 
ATOM     12  C   UNL     1     -18.130  52.629   5.125  0.00  0.00    +0.000 C 
ATOM     13  C   UNL     1     -17.995  53.190   3.714  0.00  0.00    +0.000 C 
ATOM     14  C   UNL     1     -15.574  53.926   3.546  0.00  0.00    +0.000 C 
ATOM     15  C   UNL     1     -17.130  51.077   7.606  0.00  0.00    +0.000 C 
ENDROOT
TORSDOF 0
ENDMDL
MODEL 4
REMARK VINA RESULT:      -4.9     21.002     22.766
REMARK  Name = 
REMARK  4 active torsions:
REMARK  status: ('A' for Active; 'I' for Inactive)
REMARK    1  A    between atoms: C_1  and  C_6
REMARK    2  A    between atoms: C_1  and  C_7
REMARK    3  A    between atoms: C_9  and  C_14
REMARK    4  A    between atoms: C_11  and  C_15
REMARK                            x       y       z     vdW  Elec       q    Type
REMARK                         _______ _______ _______ _____ _____    ______ ____
ROOT
ATOM      1  C   UNL     1     -15.954  51.050   2.070  0.00  0.00    +0.000 C 
ATOM      2  C   UNL     1     -15.165  50.459   3.235  0.00  0.00    +0.000 C 
ATOM      3  C   UNL     1     -15.451  49.617   2.017  0.00  0.00    +0.000 C 
ATOM      4  C   UNL     1     -15.816  50.233   4.523  0.00  0.00    +0.000 C 
ATOM      5  C   UNL     1     -16.323  48.405   2.100  0.00  0.00    +0.000 C 
ATOM      6  C   UNL     1     -17.434  51.327   2.191  0.00  0.00    +0.000 C 
ATOM      7  C   UNL     1     -15.240  52.058   1.201  0.00  0.00    +0.000 C 
ATOM      8  C   UNL     1     -16.298  49.107   5.083  0.00  0.00    +0.000 C 
ATOM      9  C   UNL     1     -16.017  51.425   5.439  0.00  0.00    +0.000 C 
ATOM     10  C   UNL     1     -15.784  47.433   3.149  0.00  0.00    +0.000 C 
ATOM     11  C   UNL     1     -16.334  47.686   4.567  0.00  0.00    +0.000 C 
ATOM     12  C   UNL     1     -16.921  49.401   6.423  0.00  0.00    +0.000 C 
ATOM     13  C   UNL     1     -17.089  50.915   6.402  0.00  0.00    +0.000 C 
ATOM     14  C   UNL     1     -14.732  51.819   6.163  0.00  0.00    +0.000 C 
ATOM     15  C   UNL     1     -15.623  46.736   5.541  0.00  0.00    +0.000 C 
ENDROOT
TORSDOF 0
ENDMDL
MODEL 5
REMARK VINA RESULT:      -4.8     20.992     23.085
REMARK  Name = 
REMARK  4 active torsions:
REMARK  status: ('A' for Active; 'I' for Inactive)
REMARK    1  A    between atoms: C_1  and  C_6
REMARK    2  A    between atoms: C_1  and  C_7
REMARK    3  A    between atoms: C_9  and  C_14
REMARK    4  A    between atoms: C_11  and  C_15
REMARK                            x       y       z     vdW  Elec       q    Type
REMARK                         _______ _______ _______ _____ _____    ______ ____
ROOT
ATOM      1  C   UNL     1     -15.360  48.469   5.779  0.00  0.00    +0.000 C 
ATOM      2  C   UNL     1     -15.117  49.808   5.088  0.00  0.00    +0.000 C 
ATOM      3  C   UNL     1     -15.762  49.772   6.450  0.00  0.00    +0.000 C 
ATOM      4  C   UNL     1     -15.853  50.151   3.873  0.00  0.00    +0.000 C 
ATOM      5  C   UNL     1     -17.174  50.226   6.652  0.00  0.00    +0.000 C 
ATOM      6  C   UNL     1     -16.422  47.516   5.282  0.00  0.00    +0.000 C 
ATOM      7  C   UNL     1     -14.152  47.757   6.337  0.00  0.00    +0.000 C 
ATOM      8  C   UNL     1     -16.922  50.949   3.685  0.00  0.00    +0.000 C 
ATOM      9  C   UNL     1     -15.390  49.544   2.564  0.00  0.00    +0.000 C 
ATOM     10  C   UNL     1     -17.345  51.662   6.158  0.00  0.00    +0.000 C 
ATOM     11  C   UNL     1     -17.732  51.761   4.669  0.00  0.00    +0.000 C 
ATOM     12  C   UNL     1     -17.340  50.947   2.237  0.00  0.00    +0.000 C 
ATOM     13  C   UNL     1     -16.614  49.735   1.668  0.00  0.00    +0.000 C 
ATOM     14  C   UNL     1     -14.153  50.245   2.007  0.00  0.00    +0.000 C 
ATOM     15  C   UNL     1     -17.747  53.243   4.269  0.00  0.00    +0.000 C 
ENDROOT
TORSDOF 0
ENDMDL
MODEL 6
REMARK VINA RESULT:      -4.8      1.685      4.544
REMARK  Name = 
REMARK  4 active torsions:
REMARK  status: ('A' for Active; 'I' for Inactive)
REMARK    1  A    between atoms: C_1  and  C_6
REMARK    2  A    between atoms: C_1  and  C_7
REMARK    3  A    between atoms: C_9  and  C_14
REMARK    4  A    between atoms: C_11  and  C_15
REMARK                            x       y       z     vdW  Elec       q    Type
REMARK                         _______ _______ _______ _____ _____    ______ ____
ROOT
ATOM      1  C   UNL     1     -33.323  45.326  -7.570  0.00  0.00    +0.000 C 
ATOM      2  C   UNL     1     -34.650  44.774  -8.081  0.00  0.00    +0.000 C 
ATOM      3  C   UNL     1     -33.365  44.407  -8.779  0.00  0.00    +0.000 C 
ATOM      4  C   UNL     1     -35.641  45.673  -8.670  0.00  0.00    +0.000 C 
ATOM      5  C   UNL     1     -33.096  44.837 -10.186  0.00  0.00    +0.000 C 
ATOM      6  C   UNL     1     -32.966  46.784  -7.742  0.00  0.00    +0.000 C 
ATOM      7  C   UNL     1     -32.788  44.742  -6.284  0.00  0.00    +0.000 C 
ATOM      8  C   UNL     1     -35.954  45.919  -9.957  0.00  0.00    +0.000 C 
ATOM      9  C   UNL     1     -36.499  46.500  -7.733  0.00  0.00    +0.000 C 
ATOM     10  C   UNL     1     -34.214  44.356 -11.111  0.00  0.00    +0.000 C 
ATOM     11  C   UNL     1     -35.383  45.353 -11.237  0.00  0.00    +0.000 C 
ATOM     12  C   UNL     1     -37.029  46.971 -10.052  0.00  0.00    +0.000 C 
ATOM     13  C   UNL     1     -37.031  47.592  -8.661  0.00  0.00    +0.000 C 
ATOM     14  C   UNL     1     -37.624  45.680  -7.105  0.00  0.00    +0.000 C 
ATOM     15  C   UNL     1     -36.487  44.701 -12.083  0.00  0.00    +0.000 C 
ENDROOT
TORSDOF 0
ENDMDL
MODEL 7
REMARK VINA RESULT:      -4.5     20.840     22.376
REMARK  Name = 
REMARK  4 active torsions:
REMARK  status: ('A' for Active; 'I' for Inactive)
REMARK    1  A    between atoms: C_1  and  C_6
REMARK    2  A    between atoms: C_1  and  C_7
REMARK    3  A    between atoms: C_9  and  C_14
REMARK    4  A    between atoms: C_11  and  C_15
REMARK                            x       y       z     vdW  Elec       q    Type
REMARK                         _______ _______ _______ _____ _____    ______ ____
ROOT
ATOM      1  C   UNL     1     -15.573  47.426   1.834  0.00  0.00    +0.000 C 
ATOM      2  C   UNL     1     -16.574  47.711   2.949  0.00  0.00    +0.000 C 
ATOM      3  C   UNL     1     -16.562  48.573   1.712  0.00  0.00    +0.000 C 
ATOM      4  C   UNL     1     -16.109  48.188   4.250  0.00  0.00    +0.000 C 
ATOM      5  C   UNL     1     -16.199  50.022   1.780  0.00  0.00    +0.000 C 
ATOM      6  C   UNL     1     -14.100  47.715   2.015  0.00  0.00    +0.000 C 
ATOM      7  C   UNL     1     -15.828  46.208   0.979  0.00  0.00    +0.000 C 
ATOM      8  C   UNL     1     -16.099  49.425   4.784  0.00  0.00    +0.000 C 
ATOM      9  C   UNL     1     -15.527  47.174   5.215  0.00  0.00    +0.000 C 
ATOM     10  C   UNL     1     -17.103  50.750   2.774  0.00  0.00    +0.000 C 
ATOM     11  C   UNL     1     -16.562  50.748   4.218  0.00  0.00    +0.000 C 
ATOM     12  C   UNL     1     -15.472  49.409   6.154  0.00  0.00    +0.000 C 
ATOM     13  C   UNL     1     -14.760  48.062   6.194  0.00  0.00    +0.000 C 
ATOM     14  C   UNL     1     -16.610  46.351   5.909  0.00  0.00    +0.000 C 
ATOM     15  C   UNL     1     -17.614  51.392   5.132  0.00  0.00    +0.000 C 
ENDROOT
TORSDOF 0
ENDMDL
MODEL 8
REMARK VINA RESULT:      -4.5     20.553     22.219
REMARK  Name = 
REMARK  4 active torsions:
REMARK  status: ('A' for Active; 'I' for Inactive)
REMARK    1  A    between atoms: C_1  and  C_6
REMARK    2  A    between atoms: C_1  and  C_7
REMARK    3  A    between atoms: C_9  and  C_14
REMARK    4  A    between atoms: C_11  and  C_15
REMARK                            x       y       z     vdW  Elec       q    Type
REMARK                         _______ _______ _______ _____ _____    ______ ____
ROOT
ATOM      1  C   UNL     1     -12.134  45.891  -8.067  0.00  0.00    +0.000 C 
ATOM      2  C   UNL     1     -11.898  46.643  -6.760  0.00  0.00    +0.000 C 
ATOM      3  C   UNL     1     -11.805  45.138  -6.789  0.00  0.00    +0.000 C 
ATOM      4  C   UNL     1     -12.998  47.355  -6.113  0.00  0.00    +0.000 C 
ATOM      5  C   UNL     1     -12.773  44.287  -6.029  0.00  0.00    +0.000 C 
ATOM      6  C   UNL     1     -13.516  45.789  -8.669  0.00  0.00    +0.000 C 
ATOM      7  C   UNL     1     -11.047  45.975  -9.111  0.00  0.00    +0.000 C 
ATOM      8  C   UNL     1     -13.770  47.018  -5.062  0.00  0.00    +0.000 C 
ATOM      9  C   UNL     1     -13.392  48.711  -6.665  0.00  0.00    +0.000 C 
ATOM     10  C   UNL     1     -12.765  44.666  -4.549  0.00  0.00    +0.000 C 
ATOM     11  C   UNL     1     -13.768  45.782  -4.192  0.00  0.00    +0.000 C 
ATOM     12  C   UNL     1     -14.807  48.080  -4.800  0.00  0.00    +0.000 C 
ATOM     13  C   UNL     1     -14.792  48.903  -6.082  0.00  0.00    +0.000 C 
ATOM     14  C   UNL     1     -12.429  49.813  -6.230  0.00  0.00    +0.000 C 
ATOM     15  C   UNL     1     -13.572  46.157  -2.716  0.00  0.00    +0.000 C 
ENDROOT
TORSDOF 0
ENDMDL
MODEL 9
REMARK VINA RESULT:      -4.5     24.938     27.034
REMARK  Name = 
REMARK  4 active torsions:
REMARK  status: ('A' for Active; 'I' for Inactive)
REMARK    1  A    between atoms: C_1  and  C_6
REMARK    2  A    between atoms: C_1  and  C_7
REMARK    3  A    between atoms: C_9  and  C_14
REMARK    4  A    between atoms: C_11  and  C_15
REMARK                            x       y       z     vdW  Elec       q    Type
REMARK                         _______ _______ _______ _____ _____    ______ ____
ROOT
ATOM      1  C   UNL     1     -15.509  56.001 -21.420  0.00  0.00    +0.000 C 
ATOM      2  C   UNL     1     -16.663  56.906 -20.999  0.00  0.00    +0.000 C 
ATOM      3  C   UNL     1     -16.531  56.477 -22.439  0.00  0.00    +0.000 C 
ATOM      4  C   UNL     1     -16.399  58.273 -20.555  0.00  0.00    +0.000 C 
ATOM      5  C   UNL     1     -16.253  57.471 -23.522  0.00  0.00    +0.000 C 
ATOM      6  C   UNL     1     -14.090  56.518 -21.474  0.00  0.00    +0.000 C 
ATOM      7  C   UNL     1     -15.586  54.553 -20.999  0.00  0.00    +0.000 C 
ATOM      8  C   UNL     1     -16.523  59.450 -21.198  0.00  0.00    +0.000 C 
ATOM      9  C   UNL     1     -15.900  58.477 -19.138  0.00  0.00    +0.000 C 
ATOM     10  C   UNL     1     -17.317  58.568 -23.521  0.00  0.00    +0.000 C 
ATOM     11  C   UNL     1     -16.973  59.761 -22.607  0.00  0.00    +0.000 C 
ATOM     12  C   UNL     1     -16.083  60.589 -20.315  0.00  0.00    +0.000 C 
ATOM     13  C   UNL     1     -15.315  59.889 -19.201  0.00  0.00    +0.000 C 
ATOM     14  C   UNL     1     -17.021  58.363 -18.108  0.00  0.00    +0.000 C 
ATOM     15  C   UNL     1     -18.169  60.724 -22.595  0.00  0.00    +0.000 C 
ENDROOT
TORSDOF 0
ENDMDL
