MODEL 1
REMARK VINA RESULT:      -7.0      0.000      0.000
REMARK  Name = JAK3_Inhibitor.pdbqt.pdb
REMARK  1 active torsions:
REMARK  status: ('A' for Active; 'I' for Inactive)
REMARK    1  A    between atoms: C_7  and  C_20
REMARK                            x       y       z     vdW  Elec       q    Type
REMARK                         _______ _______ _______ _____ _____    ______ ____
ROOT
ATOM      1  O   UNL     1     -14.699  53.107 -22.409  0.00  0.00    +0.000 OA
ATOM      2  N   UNL     1     -15.240  51.989 -24.395  0.00  0.00    +0.000 N 
ATOM      3  C   UNL     1     -16.399  53.632 -25.500  0.00  0.00    +0.000 A 
ATOM      4  C   UNL     1     -15.931  52.318 -25.562  0.00  0.00    +0.000 A 
ATOM      5  C   UNL     1     -15.967  54.144 -24.211  0.00  0.00    +0.000 C 
ATOM      6  C   UNL     1     -17.115  54.182 -26.544  0.00  0.00    +0.000 A 
ATOM      7  C   UNL     1     -17.370  53.398 -27.682  0.00  0.00    +0.000 A 
ATOM      8  C   UNL     1     -15.215  53.060 -23.508  0.00  0.00    +0.000 C 
ATOM      9  C   UNL     1     -16.155  51.510 -26.655  0.00  0.00    +0.000 A 
ATOM     10  C   UNL     1     -16.173  55.322 -23.714  0.00  0.00    +0.000 C 
ATOM     11  C   UNL     1     -16.879  52.071 -27.709  0.00  0.00    +0.000 A 
ATOM     12  H   UNL     1     -14.806  51.099 -24.196  0.00  0.00    +0.000 HD
ATOM     13  N   UNL     1     -15.904  56.948 -21.887  0.00  0.00    +0.000 N 
ATOM     14  C   UNL     1     -16.371  56.597 -23.127  0.00  0.00    +0.000 C 
ATOM     15  C   UNL     1     -17.035  57.682 -23.651  0.00  0.00    +0.000 C 
ATOM     16  C   UNL     1     -16.263  58.242 -21.615  0.00  0.00    +0.000 C 
ATOM     17  C   UNL     1     -16.966  58.722 -22.695  0.00  0.00    +0.000 C 
ATOM     18  H   UNL     1     -15.377  56.344 -21.270  0.00  0.00    +0.000 HD
ENDROOT
BRANCH   7  20
ATOM     19  N   UNL     1     -19.011  55.876 -30.007  0.00  0.00    +0.000 NA
ATOM     20  C   UNL     1     -18.126  53.941 -28.816  0.00  0.00    +0.000 A 
ATOM     21  C   UNL     1     -18.693  53.120 -29.794  0.00  0.00    +0.000 A 
ATOM     22  C   UNL     1     -18.327  55.307 -28.989  0.00  0.00    +0.000 A 
ATOM     23  C   UNL     1     -19.406  53.654 -30.861  0.00  0.00    +0.000 A 
ATOM     24  C   UNL     1     -19.534  55.030 -30.920  0.00  0.00    +0.000 A 
ENDBRANCH   7  20
TORSDOF 1
ENDMDL
MODEL 2
REMARK VINA RESULT:      -6.8      1.890      6.806
REMARK  Name = JAK3_Inhibitor.pdbqt.pdb
REMARK  1 active torsions:
REMARK  status: ('A' for Active; 'I' for Inactive)
REMARK    1  A    between atoms: C_7  and  C_20
REMARK                            x       y       z     vdW  Elec       q    Type
REMARK                         _______ _______ _______ _____ _____    ______ ____
ROOT
ATOM      1  O   UNL     1     -16.184  52.231 -27.036  0.00  0.00    +0.000 OA
ATOM      2  N   UNL     1     -15.574  52.601 -24.805  0.00  0.00    +0.000 N 
ATOM      3  C   UNL     1     -16.314  54.754 -24.517  0.00  0.00    +0.000 A 
ATOM      4  C   UNL     1     -15.685  53.665 -23.909  0.00  0.00    +0.000 A 
ATOM      5  C   UNL     1     -16.608  54.330 -25.876  0.00  0.00    +0.000 C 
ATOM      6  C   UNL     1     -16.534  55.927 -23.824  0.00  0.00    +0.000 A 
ATOM      7  C   UNL     1     -16.116  56.015 -22.485  0.00  0.00    +0.000 A 
ATOM      8  C   UNL     1     -16.119  52.927 -26.041  0.00  0.00    +0.000 C 
ATOM      9  C   UNL     1     -15.257  53.703 -22.600  0.00  0.00    +0.000 A 
ATOM     10  C   UNL     1     -17.188  55.011 -26.813  0.00  0.00    +0.000 C 
ATOM     11  C   UNL     1     -15.483  54.891 -21.902  0.00  0.00    +0.000 A 
ATOM     12  H   UNL     1     -15.158  51.703 -24.606  0.00  0.00    +0.000 HD
ATOM     13  N   UNL     1     -18.033  55.186 -29.117  0.00  0.00    +0.000 N 
ATOM     14  C   UNL     1     -17.818  55.713 -27.870  0.00  0.00    +0.000 C 
ATOM     15  C   UNL     1     -18.316  56.996 -27.862  0.00  0.00    +0.000 C 
ATOM     16  C   UNL     1     -18.660  56.116 -29.903  0.00  0.00    +0.000 C 
ATOM     17  C   UNL     1     -18.848  57.250 -29.148  0.00  0.00    +0.000 C 
ATOM     18  H   UNL     1     -17.768  54.254 -29.409  0.00  0.00    +0.000 HD
ENDROOT
BRANCH   7  20
ATOM     19  N   UNL     1     -16.759  59.641 -21.664  0.00  0.00    +0.000 NA
ATOM     20  C   UNL     1     -16.330  57.242 -21.709  0.00  0.00    +0.000 A 
ATOM     21  C   UNL     1     -16.323  57.249 -20.313  0.00  0.00    +0.000 A 
ATOM     22  C   UNL     1     -16.555  58.474 -22.315  0.00  0.00    +0.000 A 
ATOM     23  C   UNL     1     -16.528  58.422 -19.595  0.00  0.00    +0.000 A 
ATOM     24  C   UNL     1     -16.741  59.584 -20.316  0.00  0.00    +0.000 A 
ENDBRANCH   7  20
TORSDOF 1
ENDMDL
MODEL 3
REMARK VINA RESULT:      -6.6      2.649      7.111
REMARK  Name = JAK3_Inhibitor.pdbqt.pdb
REMARK  1 active torsions:
REMARK  status: ('A' for Active; 'I' for Inactive)
REMARK    1  A    between atoms: C_7  and  C_20
REMARK                            x       y       z     vdW  Elec       q    Type
REMARK                         _______ _______ _______ _____ _____    ______ ____
ROOT
ATOM      1  O   UNL     1     -18.216  58.388 -28.473  0.00  0.00    +0.000 OA
ATOM      2  N   UNL     1     -17.015  57.857 -26.534  0.00  0.00    +0.000 N 
ATOM      3  C   UNL     1     -17.024  55.565 -26.647  0.00  0.00    +0.000 A 
ATOM      4  C   UNL     1     -16.604  56.676 -25.913  0.00  0.00    +0.000 A 
ATOM      5  C   UNL     1     -17.740  56.098 -27.794  0.00  0.00    +0.000 C 
ATOM      6  C   UNL     1     -16.734  54.283 -26.225  0.00  0.00    +0.000 A 
ATOM      7  C   UNL     1     -16.003  54.106 -25.038  0.00  0.00    +0.000 A 
ATOM      8  C   UNL     1     -17.722  57.590 -27.700  0.00  0.00    +0.000 C 
ATOM      9  C   UNL     1     -15.885  56.555 -24.744  0.00  0.00    +0.000 A 
ATOM     10  C   UNL     1     -18.311  55.438 -28.751  0.00  0.00    +0.000 C 
ATOM     11  C   UNL     1     -15.593  55.256 -24.322  0.00  0.00    +0.000 A 
ATOM     12  H   UNL     1     -16.834  58.793 -26.201  0.00  0.00    +0.000 HD
ATOM     13  N   UNL     1     -19.597  55.398 -30.848  0.00  0.00    +0.000 N 
ATOM     14  C   UNL     1     -18.949  54.762 -29.821  0.00  0.00    +0.000 C 
ATOM     15  C   UNL     1     -19.044  53.407 -30.036  0.00  0.00    +0.000 C 
ATOM     16  C   UNL     1     -20.103  54.465 -31.714  0.00  0.00    +0.000 C 
ATOM     17  C   UNL     1     -19.774  53.219 -31.233  0.00  0.00    +0.000 C 
ATOM     18  H   UNL     1     -19.686  56.401 -30.949  0.00  0.00    +0.000 HD
ENDROOT
BRANCH   7  20
ATOM     19  N   UNL     1     -14.978  51.311 -22.720  0.00  0.00    +0.000 NA
ATOM     20  C   UNL     1     -15.671  52.762 -24.552  0.00  0.00    +0.000 A 
ATOM     21  C   UNL     1     -15.711  51.640 -25.383  0.00  0.00    +0.000 A 
ATOM     22  C   UNL     1     -15.296  52.520 -23.234  0.00  0.00    +0.000 A 
ATOM     23  C   UNL     1     -15.393  50.374 -24.904  0.00  0.00    +0.000 A 
ATOM     24  C   UNL     1     -15.036  50.266 -23.572  0.00  0.00    +0.000 A 
ENDBRANCH   7  20
TORSDOF 1
ENDMDL
MODEL 4
REMARK VINA RESULT:      -6.6     26.831     27.931
REMARK  Name = JAK3_Inhibitor.pdbqt.pdb
REMARK  1 active torsions:
REMARK  status: ('A' for Active; 'I' for Inactive)
REMARK    1  A    between atoms: C_7  and  C_20
REMARK                            x       y       z     vdW  Elec       q    Type
REMARK                         _______ _______ _______ _____ _____    ______ ____
ROOT
ATOM      1  O   UNL     1     -35.197  44.935 -11.652  0.00  0.00    +0.000 OA
ATOM      2  N   UNL     1     -37.096  46.302 -11.754  0.00  0.00    +0.000 N 
ATOM      3  C   UNL     1     -37.072  47.215  -9.649  0.00  0.00    +0.000 A 
ATOM      4  C   UNL     1     -37.742  47.172 -10.874  0.00  0.00    +0.000 A 
ATOM      5  C   UNL     1     -35.941  46.313  -9.786  0.00  0.00    +0.000 C 
ATOM      6  C   UNL     1     -37.528  48.010  -8.616  0.00  0.00    +0.000 A 
ATOM      7  C   UNL     1     -38.684  48.783  -8.813  0.00  0.00    +0.000 A 
ATOM      8  C   UNL     1     -35.975  45.730 -11.162  0.00  0.00    +0.000 C 
ATOM      9  C   UNL     1     -38.878  47.911 -11.115  0.00  0.00    +0.000 A 
ATOM     10  C   UNL     1     -35.038  46.030  -8.902  0.00  0.00    +0.000 C 
ATOM     11  C   UNL     1     -39.336  48.714 -10.067  0.00  0.00    +0.000 A 
ATOM     12  H   UNL     1     -37.384  46.099 -12.700  0.00  0.00    +0.000 HD
ATOM     13  N   UNL     1     -33.007  44.812  -8.235  0.00  0.00    +0.000 N 
ATOM     14  C   UNL     1     -34.025  45.689  -7.970  0.00  0.00    +0.000 C 
ATOM     15  C   UNL     1     -33.867  46.144  -6.681  0.00  0.00    +0.000 C 
ATOM     16  C   UNL     1     -32.202  44.701  -7.132  0.00  0.00    +0.000 C 
ATOM     17  C   UNL     1     -32.714  45.518  -6.151  0.00  0.00    +0.000 C 
ATOM     18  H   UNL     1     -32.872  44.323  -9.110  0.00  0.00    +0.000 HD
ENDROOT
BRANCH   7  20
ATOM     19  N   UNL     1     -40.128  51.789  -7.046  0.00  0.00    +0.000 NA
ATOM     20  C   UNL     1     -39.205  49.643  -7.744  0.00  0.00    +0.000 A 
ATOM     21  C   UNL     1     -39.298  49.209  -6.420  0.00  0.00    +0.000 A 
ATOM     22  C   UNL     1     -39.639  50.944  -7.981  0.00  0.00    +0.000 A 
ATOM     23  C   UNL     1     -39.794  50.039  -5.420  0.00  0.00    +0.000 A 
ATOM     24  C   UNL     1     -40.194  51.311  -5.786  0.00  0.00    +0.000 A 
ENDBRANCH   7  20
TORSDOF 1
ENDMDL
MODEL 5
REMARK VINA RESULT:      -6.5     27.151     28.252
REMARK  Name = JAK3_Inhibitor.pdbqt.pdb
REMARK  1 active torsions:
REMARK  status: ('A' for Active; 'I' for Inactive)
REMARK    1  A    between atoms: C_7  and  C_20
REMARK                            x       y       z     vdW  Elec       q    Type
REMARK                         _______ _______ _______ _____ _____    ______ ____
ROOT
ATOM      1  O   UNL     1     -40.116  48.965 -11.547  0.00  0.00    +0.000 OA
ATOM      2  N   UNL     1     -38.338  47.445 -11.657  0.00  0.00    +0.000 N 
ATOM      3  C   UNL     1     -37.531  47.584  -9.513  0.00  0.00    +0.000 A 
ATOM      4  C   UNL     1     -37.372  46.980 -10.762  0.00  0.00    +0.000 A 
ATOM      5  C   UNL     1     -38.668  48.479  -9.650  0.00  0.00    +0.000 C 
ATOM      6  C   UNL     1     -36.687  47.281  -8.464  0.00  0.00    +0.000 A 
ATOM      7  C   UNL     1     -35.657  46.347  -8.667  0.00  0.00    +0.000 A 
ATOM      8  C   UNL     1     -39.177  48.372 -11.051  0.00  0.00    +0.000 C 
ATOM      9  C   UNL     1     -36.379  46.059 -11.011  0.00  0.00    +0.000 A 
ATOM     10  C   UNL     1     -39.184  49.251  -8.747  0.00  0.00    +0.000 C 
ATOM     11  C   UNL     1     -35.528  45.754  -9.946  0.00  0.00    +0.000 A 
ATOM     12  H   UNL     1     -38.435  47.160 -12.621  0.00  0.00    +0.000 HD
ATOM     13  N   UNL     1     -40.866  50.912  -8.064  0.00  0.00    +0.000 N 
ATOM     14  C   UNL     1     -39.786  50.112  -7.795  0.00  0.00    +0.000 C 
ATOM     15  C   UNL     1     -39.429  50.310  -6.481  0.00  0.00    +0.000 C 
ATOM     16  C   UNL     1     -41.201  51.617  -6.938  0.00  0.00    +0.000 C 
ATOM     17  C   UNL     1     -40.324  51.262  -5.940  0.00  0.00    +0.000 C 
ATOM     18  H   UNL     1     -41.340  50.970  -8.955  0.00  0.00    +0.000 HD
ENDROOT
BRANCH   7  20
ATOM     19  N   UNL     1     -34.391  45.388  -5.244  0.00  0.00    +0.000 NA
ATOM     20  C   UNL     1     -34.736  45.993  -7.581  0.00  0.00    +0.000 A 
ATOM     21  C   UNL     1     -33.356  45.908  -7.773  0.00  0.00    +0.000 A 
ATOM     22  C   UNL     1     -35.181  45.719  -6.290  0.00  0.00    +0.000 A 
ATOM     23  C   UNL     1     -32.500  45.571  -6.730  0.00  0.00    +0.000 A 
ATOM     24  C   UNL     1     -33.067  45.322  -5.493  0.00  0.00    +0.000 A 
ENDBRANCH   7  20
TORSDOF 1
ENDMDL
MODEL 6
REMARK VINA RESULT:      -6.5      1.809      2.871
REMARK  Name = JAK3_Inhibitor.pdbqt.pdb
REMARK  1 active torsions:
REMARK  status: ('A' for Active; 'I' for Inactive)
REMARK    1  A    between atoms: C_7  and  C_20
REMARK                            x       y       z     vdW  Elec       q    Type
REMARK                         _______ _______ _______ _____ _____    ______ ____
ROOT
ATOM      1  O   UNL     1     -15.144  56.138 -19.987  0.00  0.00    +0.000 OA
ATOM      2  N   UNL     1     -15.152  54.460 -21.620  0.00  0.00    +0.000 N 
ATOM      3  C   UNL     1     -16.163  55.567 -23.358  0.00  0.00    +0.000 A 
ATOM      4  C   UNL     1     -15.595  54.361 -22.940  0.00  0.00    +0.000 A 
ATOM      5  C   UNL     1     -16.063  56.464 -22.219  0.00  0.00    +0.000 C 
ATOM      6  C   UNL     1     -16.674  55.709 -24.632  0.00  0.00    +0.000 A 
ATOM      7  C   UNL     1     -16.614  54.617 -25.515  0.00  0.00    +0.000 A 
ATOM      8  C   UNL     1     -15.403  55.724 -21.100  0.00  0.00    +0.000 C 
ATOM      9  C   UNL     1     -15.513  53.263 -23.768  0.00  0.00    +0.000 A 
ATOM     10  C   UNL     1     -16.462  57.694 -22.139  0.00  0.00    +0.000 C 
ATOM     11  C   UNL     1     -16.030  53.412 -25.057  0.00  0.00    +0.000 A 
ATOM     12  H   UNL     1     -14.706  53.725 -21.091  0.00  0.00    +0.000 HD
ATOM     13  N   UNL     1     -16.723  59.777 -20.855  0.00  0.00    +0.000 N 
ATOM     14  C   UNL     1     -16.880  59.041 -22.002  0.00  0.00    +0.000 C 
ATOM     15  C   UNL     1     -17.493  59.842 -22.937  0.00  0.00    +0.000 C 
ATOM     16  C   UNL     1     -17.229  61.035 -21.049  0.00  0.00    +0.000 C 
ATOM     17  C   UNL     1     -17.714  61.102 -22.334  0.00  0.00    +0.000 C 
ATOM     18  H   UNL     1     -16.299  59.440 -20.001  0.00  0.00    +0.000 HD
ENDROOT
BRANCH   7  20
ATOM     19  N   UNL     1     -17.233  55.918 -29.003  0.00  0.00    +0.000 NA
ATOM     20  C   UNL     1     -17.143  54.723 -26.880  0.00  0.00    +0.000 A 
ATOM     21  C   UNL     1     -18.041  53.791 -27.403  0.00  0.00    +0.000 A 
ATOM     22  C   UNL     1     -16.785  55.759 -27.737  0.00  0.00    +0.000 A 
ATOM     23  C   UNL     1     -18.531  53.908 -28.699  0.00  0.00    +0.000 A 
ATOM     24  C   UNL     1     -18.097  54.985 -29.452  0.00  0.00    +0.000 A 
ENDBRANCH   7  20
TORSDOF 1
ENDMDL
MODEL 7
REMARK VINA RESULT:      -6.4     19.668     20.630
REMARK  Name = JAK3_Inhibitor.pdbqt.pdb
REMARK  1 active torsions:
REMARK  status: ('A' for Active; 'I' for Inactive)
REMARK    1  A    between atoms: C_7  and  C_20
REMARK                            x       y       z     vdW  Elec       q    Type
REMARK                         _______ _______ _______ _____ _____    ______ ____
ROOT
ATOM      1  O   UNL     1     -36.704  51.152 -18.649  0.00  0.00    +0.000 OA
ATOM      2  N   UNL     1     -35.769  49.815 -16.969  0.00  0.00    +0.000 N 
ATOM      3  C   UNL     1     -34.507  48.373 -18.231  0.00  0.00    +0.000 A 
ATOM      4  C   UNL     1     -34.897  48.726 -16.937  0.00  0.00    +0.000 A 
ATOM      5  C   UNL     1     -35.184  49.306 -19.115  0.00  0.00    +0.000 C 
ATOM      6  C   UNL     1     -33.644  47.318 -18.451  0.00  0.00    +0.000 A 
ATOM      7  C   UNL     1     -33.155  46.597 -17.348  0.00  0.00    +0.000 A 
ATOM      8  C   UNL     1     -35.999  50.235 -18.274  0.00  0.00    +0.000 C 
ATOM      9  C   UNL     1     -34.445  48.050 -15.825  0.00  0.00    +0.000 A 
ATOM     10  C   UNL     1     -35.125  49.362 -20.407  0.00  0.00    +0.000 C 
ATOM     11  C   UNL     1     -33.571  46.985 -16.052  0.00  0.00    +0.000 A 
ATOM     12  H   UNL     1     -36.189  50.258 -16.165  0.00  0.00    +0.000 HD
ATOM     13  N   UNL     1     -35.791  50.405 -22.534  0.00  0.00    +0.000 N 
ATOM     14  C   UNL     1     -35.093  49.466 -21.821  0.00  0.00    +0.000 C 
ATOM     15  C   UNL     1     -34.394  48.689 -22.716  0.00  0.00    +0.000 C 
ATOM     16  C   UNL     1     -35.546  50.236 -23.871  0.00  0.00    +0.000 C 
ATOM     17  C   UNL     1     -34.681  49.176 -24.012  0.00  0.00    +0.000 C 
ATOM     18  H   UNL     1     -36.393  51.112 -22.133  0.00  0.00    +0.000 HD
ENDROOT
BRANCH   7  20
ATOM     19  N   UNL     1     -30.646  43.885 -16.582  0.00  0.00    +0.000 NA
ATOM     20  C   UNL     1     -32.235  45.470 -17.535  0.00  0.00    +0.000 A 
ATOM     21  C   UNL     1     -32.029  44.876 -18.782  0.00  0.00    +0.000 A 
ATOM     22  C   UNL     1     -31.509  44.921 -16.482  0.00  0.00    +0.000 A 
ATOM     23  C   UNL     1     -31.153  43.808 -18.939  0.00  0.00    +0.000 A 
ATOM     24  C   UNL     1     -30.491  43.354 -17.812  0.00  0.00    +0.000 A 
ENDBRANCH   7  20
TORSDOF 1
ENDMDL
MODEL 8
REMARK VINA RESULT:      -6.3      2.667      7.022
REMARK  Name = JAK3_Inhibitor.pdbqt.pdb
REMARK  1 active torsions:
REMARK  status: ('A' for Active; 'I' for Inactive)
REMARK    1  A    between atoms: C_7  and  C_20
REMARK                            x       y       z     vdW  Elec       q    Type
REMARK                         _______ _______ _______ _____ _____    ______ ____
ROOT
ATOM      1  O   UNL     1     -15.073  53.938 -20.920  0.00  0.00    +0.000 OA
ATOM      2  N   UNL     1     -15.538  56.107 -20.167  0.00  0.00    +0.000 N 
ATOM      3  C   UNL     1     -16.324  57.064 -22.098  0.00  0.00    +0.000 A 
ATOM      4  C   UNL     1     -16.040  57.273 -20.747  0.00  0.00    +0.000 A 
ATOM      5  C   UNL     1     -15.972  55.680 -22.366  0.00  0.00    +0.000 C 
ATOM      6  C   UNL     1     -16.832  58.079 -22.884  0.00  0.00    +0.000 A 
ATOM      7  C   UNL     1     -17.065  59.337 -22.302  0.00  0.00    +0.000 A 
ATOM      8  C   UNL     1     -15.463  55.076 -21.096  0.00  0.00    +0.000 C 
ATOM      9  C   UNL     1     -16.252  58.487 -20.132  0.00  0.00    +0.000 A 
ATOM     10  C   UNL     1     -16.063  55.039 -23.487  0.00  0.00    +0.000 C 
ATOM     11  C   UNL     1     -16.767  59.511 -20.930  0.00  0.00    +0.000 A 
ATOM     12  H   UNL     1     -15.259  56.000 -19.202  0.00  0.00    +0.000 HD
ATOM     13  N   UNL     1     -15.772  52.980 -24.802  0.00  0.00    +0.000 N 
ATOM     14  C   UNL     1     -16.145  54.294 -24.691  0.00  0.00    +0.000 C 
ATOM     15  C   UNL     1     -16.590  54.714 -25.923  0.00  0.00    +0.000 C 
ATOM     16  C   UNL     1     -15.974  52.557 -26.090  0.00  0.00    +0.000 C 
ATOM     17  C   UNL     1     -16.481  53.615 -26.808  0.00  0.00    +0.000 C 
ATOM     18  H   UNL     1     -15.406  52.412 -24.050  0.00  0.00    +0.000 HD
ENDROOT
BRANCH   7  20
ATOM     19  N   UNL     1     -17.576  61.752 -25.156  0.00  0.00    +0.000 NA
ATOM     20  C   UNL     1     -17.605  60.446 -23.099  0.00  0.00    +0.000 A 
ATOM     21  C   UNL     1     -18.634  61.265 -22.631  0.00  0.00    +0.000 A 
ATOM     22  C   UNL     1     -17.127  60.749 -24.370  0.00  0.00    +0.000 A 
ATOM     23  C   UNL     1     -19.133  62.310 -23.400  0.00  0.00    +0.000 A 
ATOM     24  C   UNL     1     -18.572  62.509 -24.649  0.00  0.00    +0.000 A 
ENDBRANCH   7  20
TORSDOF 1
ENDMDL
MODEL 9
REMARK VINA RESULT:      -6.2     28.651     31.371
REMARK  Name = JAK3_Inhibitor.pdbqt.pdb
REMARK  1 active torsions:
REMARK  status: ('A' for Active; 'I' for Inactive)
REMARK    1  A    between atoms: C_7  and  C_20
REMARK                            x       y       z     vdW  Elec       q    Type
REMARK                         _______ _______ _______ _____ _____    ______ ____
ROOT
ATOM      1  O   UNL     1     -18.291  53.788   5.806  0.00  0.00    +0.000 OA
ATOM      2  N   UNL     1     -17.809  52.866   3.707  0.00  0.00    +0.000 N 
ATOM      3  C   UNL     1     -17.092  50.775   4.320  0.00  0.00    +0.000 A 
ATOM      4  C   UNL     1     -17.330  51.638   3.249  0.00  0.00    +0.000 A 
ATOM      5  C   UNL     1     -17.447  51.522   5.515  0.00  0.00    +0.000 C 
ATOM      6  C   UNL     1     -16.611  49.497   4.112  0.00  0.00    +0.000 A 
ATOM      7  C   UNL     1     -16.364  49.070   2.796  0.00  0.00    +0.000 A 
ATOM      8  C   UNL     1     -17.911  52.879   5.094  0.00  0.00    +0.000 C 
ATOM      9  C   UNL     1     -17.104  51.266   1.942  0.00  0.00    +0.000 A 
ATOM     10  C   UNL     1     -17.387  51.127   6.747  0.00  0.00    +0.000 C 
ATOM     11  C   UNL     1     -16.619  49.972   1.736  0.00  0.00    +0.000 A 
ATOM     12  H   UNL     1     -18.057  53.656   3.129  0.00  0.00    +0.000 HD
ATOM     13  N   UNL     1     -17.709  51.557   9.148  0.00  0.00    +0.000 N 
ATOM     14  C   UNL     1     -17.342  50.741   8.110  0.00  0.00    +0.000 C 
ATOM     15  C   UNL     1     -16.943  49.536   8.641  0.00  0.00    +0.000 C 
ATOM     16  C   UNL     1     -17.548  50.889  10.332  0.00  0.00    +0.000 C 
ATOM     17  C   UNL     1     -17.073  49.630  10.046  0.00  0.00    +0.000 C 
ATOM     18  H   UNL     1     -18.047  52.506   9.052  0.00  0.00    +0.000 HD
ENDROOT
BRANCH   7  20
ATOM     19  N   UNL     1     -14.277  45.937   3.049  0.00  0.00    +0.000 NA
ATOM     20  C   UNL     1     -15.854  47.721   2.527  0.00  0.00    +0.000 A 
ATOM     21  C   UNL     1     -16.399  46.904   1.534  0.00  0.00    +0.000 A 
ATOM     22  C   UNL     1     -14.796  47.170   3.243  0.00  0.00    +0.000 A 
ATOM     23  C   UNL     1     -15.902  45.628   1.294  0.00  0.00    +0.000 A 
ATOM     24  C   UNL     1     -14.847  45.196   2.076  0.00  0.00    +0.000 A 
ENDBRANCH   7  20
TORSDOF 1
ENDMDL
