MODEL 1
REMARK VINA RESULT:      -7.1      0.000      0.000
REMARK  Name = Leptomycin.pdbqt.pdb
REMARK  12 active torsions:
REMARK  status: ('A' for Active; 'I' for Inactive)
REMARK    1  A    between atoms: C_2  and  C_4
REMARK    2  A    between atoms: C_5  and  C_6
REMARK    3  A    between atoms: C_6  and  C_7
REMARK    4  A    between atoms: C_10  and  C_11
REMARK    5  A    between atoms: C_10  and  C_21
REMARK    6  A    between atoms: C_12  and  C_13
REMARK    7  A    between atoms: C_23  and  C_25
REMARK    8  A    between atoms: C_25  and  C_27
REMARK    9  A    between atoms: C_27  and  C_29
REMARK   10  A    between atoms: C_29  and  O_30
REMARK   11  A    between atoms: C_29  and  C_32
REMARK   12  A    between atoms: C_38  and  O_40
REMARK                            x       y       z     vdW  Elec       q    Type
REMARK                         _______ _______ _______ _____ _____    ______ ____
ROOT
ATOM      1  C   UNL     1     -13.323  51.379   1.157  0.00  0.00    +0.000 C 
ATOM      2  C   UNL     1     -12.599  50.344   0.874  0.00  0.00    +0.000 C 
ATOM      3  C   UNL     1     -11.112  50.431   1.062  0.00  0.00    +0.000 C 
ATOM      4  C   UNL     1     -14.168  52.464   1.498  0.00  0.00    +0.000 C 
ATOM      5  C   UNL     1     -14.271  53.559   0.447  0.00  0.00    +0.000 C 
ENDROOT
BRANCH   2   6
ATOM      6  C   UNL     1     -13.208  49.065   0.876  0.00  0.00    +0.000 C 
ATOM      7  C   UNL     1     -13.728  47.984   0.812  0.00  0.00    +0.000 C 
BRANCH   7   8
ATOM      8  C   UNL     1     -14.397  46.622   0.606  0.00  0.00    +0.000 C 
BRANCH   8   9
ATOM      9  C   UNL     1     -14.889  45.294   0.557  0.00  0.00    +0.000 C 
ATOM     10  C   UNL     1     -14.810  44.431   1.778  0.00  0.00    +0.000 C 
ATOM     11  C   UNL     1     -15.355  44.729  -0.655  0.00  0.00    +0.000 C 
ATOM     12  C   UNL     1     -15.725  44.380  -1.850  0.00  0.00    +0.000 C 
BRANCH  12  13
ATOM     13  C   UNL     1     -15.485  45.337  -2.872  0.00  0.00    +0.000 C 
ATOM     14  C   UNL     1     -15.149  46.140  -3.700  0.00  0.00    +0.000 C 
BRANCH  14  15
ATOM     15  C   UNL     1     -14.623  47.064  -4.638  0.00  0.00    +0.000 A 
ATOM     16  O   UNL     1     -15.385  48.292  -4.840  0.00  0.00    +0.000 OA
ATOM     17  C   UNL     1     -14.959  49.294  -5.708  0.00  0.00    +0.000 A 
ATOM     18  O   UNL     1     -15.540  50.354  -5.885  0.00  0.00    +0.000 OA
ATOM     19  C   UNL     1     -13.732  48.945  -6.360  0.00  0.00    +0.000 A 
ATOM     20  C   UNL     1     -13.076  47.955  -6.234  0.00  0.00    +0.000 A 
ATOM     21  C   UNL     1     -13.375  46.866  -5.386  0.00  0.00    +0.000 A 
ATOM     22  C   UNL     1     -12.451  45.695  -5.275  0.00  0.00    +0.000 C 
ENDBRANCH  14  15
ENDBRANCH  12  13
BRANCH  12  23
ATOM     23  C   UNL     1     -16.303  43.102  -2.050  0.00  0.00    +0.000 C 
ATOM     24  C   UNL     1     -16.936  41.722  -2.267  0.00  0.00    +0.000 C 
ENDBRANCH  12  23
ENDBRANCH   8   9
ENDBRANCH   7   8
ENDBRANCH   2   6
BRANCH   4  25
ATOM     25  C   UNL     1     -15.262  52.247   2.495  0.00  0.00    +0.000 C 
ATOM     26  O   UNL     1     -15.725  53.166   3.179  0.00  0.00    +0.000 OA
BRANCH  25  27
ATOM     27  C   UNL     1     -15.742  50.844   2.681  0.00  0.00    +0.000 C 
ATOM     28  C   UNL     1     -16.743  50.253   1.690  0.00  0.00    +0.000 C 
BRANCH  27  29
ATOM     29  C   UNL     1     -15.478  50.178   3.953  0.00  0.00    +0.000 C 
BRANCH  29  30
ATOM     30  C   UNL     1     -16.373  49.996   5.081  0.00  0.00    +0.000 C 
ATOM     31  C   UNL     1     -16.431  48.667   5.804  0.00  0.00    +0.000 C 
ATOM     32  C   UNL     1     -17.096  51.048   5.689  0.00  0.00    +0.000 C 
ATOM     33  C   UNL     1     -17.854  52.052   6.328  0.00  0.00    +0.000 C 
ATOM     34  C   UNL     1     -18.543  53.081   5.486  0.00  0.00    +0.000 C 
ATOM     35  C   UNL     1     -17.853  52.149   7.613  0.00  0.00    +0.000 C 
ATOM     36  C   UNL     1     -17.825  52.248   9.031  0.00  0.00    +0.000 C 
ATOM     37  O   UNL     1     -16.800  52.435   9.660  0.00  0.00    +0.000 OA
BRANCH  36  38
ATOM     38  O   UNL     1     -19.023  52.096   9.614  0.00  0.00    +0.000 OA
ATOM     39  H   UNL     1     -19.428  51.335   9.149  0.00  0.00    +0.000 HD
ENDBRANCH  36  38
ENDBRANCH  29  30
BRANCH  29  40
ATOM     40  O   UNL     1     -14.210  49.610   4.086  0.00  0.00    +0.000 OA
ATOM     41  H   UNL     1     -14.039  49.307   5.002  0.00  0.00    +0.000 HD
ENDBRANCH  29  40
ENDBRANCH  27  29
ENDBRANCH  25  27
ENDBRANCH   4  25
TORSDOF 12
ENDMDL
MODEL 2
REMARK VINA RESULT:      -7.1     21.523     29.418
REMARK  Name = Leptomycin.pdbqt.pdb
REMARK  12 active torsions:
REMARK  status: ('A' for Active; 'I' for Inactive)
REMARK    1  A    between atoms: C_2  and  C_4
REMARK    2  A    between atoms: C_5  and  C_6
REMARK    3  A    between atoms: C_6  and  C_7
REMARK    4  A    between atoms: C_10  and  C_11
REMARK    5  A    between atoms: C_10  and  C_21
REMARK    6  A    between atoms: C_12  and  C_13
REMARK    7  A    between atoms: C_23  and  C_25
REMARK    8  A    between atoms: C_25  and  C_27
REMARK    9  A    between atoms: C_27  and  C_29
REMARK   10  A    between atoms: C_29  and  O_30
REMARK   11  A    between atoms: C_29  and  C_32
REMARK   12  A    between atoms: C_38  and  O_40
REMARK                            x       y       z     vdW  Elec       q    Type
REMARK                         _______ _______ _______ _____ _____    ______ ____
ROOT
ATOM      1  C   UNL     1     -16.756  55.058 -25.809  0.00  0.00    +0.000 C 
ATOM      2  C   UNL     1     -16.312  55.266 -24.612  0.00  0.00    +0.000 C 
ATOM      3  C   UNL     1     -15.190  54.410 -24.100  0.00  0.00    +0.000 C 
ATOM      4  C   UNL     1     -17.247  54.907 -27.130  0.00  0.00    +0.000 C 
ATOM      5  C   UNL     1     -18.248  53.779 -27.323  0.00  0.00    +0.000 C 
ENDROOT
BRANCH   2   6
ATOM      6  C   UNL     1     -16.520  56.536 -24.018  0.00  0.00    +0.000 C 
ATOM      7  C   UNL     1     -16.760  57.599 -23.512  0.00  0.00    +0.000 C 
BRANCH   7   8
ATOM      8  C   UNL     1     -17.187  58.922 -22.870  0.00  0.00    +0.000 C 
BRANCH   8   9
ATOM      9  C   UNL     1     -17.428  60.227 -22.376  0.00  0.00    +0.000 C 
ATOM     10  C   UNL     1     -17.689  61.344 -23.338  0.00  0.00    +0.000 C 
ATOM     11  C   UNL     1     -17.319  60.521 -20.995  0.00  0.00    +0.000 C 
ATOM     12  C   UNL     1     -17.159  60.604 -19.709  0.00  0.00    +0.000 C 
BRANCH  12  13
ATOM     13  C   UNL     1     -16.694  59.423 -19.071  0.00  0.00    +0.000 C 
ATOM     14  C   UNL     1     -16.238  58.394 -18.650  0.00  0.00    +0.000 C 
BRANCH  14  15
ATOM     15  C   UNL     1     -15.636  57.166 -18.275  0.00  0.00    +0.000 A 
ATOM     16  O   UNL     1     -15.846  56.733 -16.897  0.00  0.00    +0.000 OA
ATOM     17  C   UNL     1     -15.337  55.531 -16.413  0.00  0.00    +0.000 A 
ATOM     18  O   UNL     1     -15.514  55.106 -15.281  0.00  0.00    +0.000 OA
ATOM     19  C   UNL     1     -14.591  54.828 -17.415  0.00  0.00    +0.000 A 
ATOM     20  C   UNL     1     -14.386  55.142 -18.548  0.00  0.00    +0.000 A 
ATOM     21  C   UNL     1     -14.848  56.319 -19.178  0.00  0.00    +0.000 A 
ATOM     22  C   UNL     1     -14.567  56.584 -20.623  0.00  0.00    +0.000 C 
ENDBRANCH  14  15
ENDBRANCH  12  13
BRANCH  12  23
ATOM     23  C   UNL     1     -17.430  61.831 -19.055  0.00  0.00    +0.000 C 
ATOM     24  C   UNL     1     -17.730  63.158 -18.349  0.00  0.00    +0.000 C 
ENDBRANCH  12  23
ENDBRANCH   8   9
ENDBRANCH   7   8
ENDBRANCH   2   6
BRANCH   4  25
ATOM     25  C   UNL     1     -17.226  56.086 -28.051  0.00  0.00    +0.000 C 
ATOM     26  O   UNL     1     -17.268  57.249 -27.636  0.00  0.00    +0.000 OA
BRANCH  25  27
ATOM     27  C   UNL     1     -17.212  55.802 -29.518  0.00  0.00    +0.000 C 
ATOM     28  C   UNL     1     -15.883  55.778 -30.268  0.00  0.00    +0.000 C 
BRANCH  27  29
ATOM     29  C   UNL     1     -18.474  55.846 -30.249  0.00  0.00    +0.000 C 
BRANCH  29  30
ATOM     30  C   UNL     1     -19.059  54.832 -31.108  0.00  0.00    +0.000 C 
ATOM     31  C   UNL     1     -18.740  53.369 -30.890  0.00  0.00    +0.000 C 
ATOM     32  C   UNL     1     -20.072  55.097 -32.059  0.00  0.00    +0.000 C 
ATOM     33  C   UNL     1     -21.072  55.300 -33.033  0.00  0.00    +0.000 C 
ATOM     34  C   UNL     1     -20.988  56.510 -33.912  0.00  0.00    +0.000 C 
ATOM     35  C   UNL     1     -22.098  54.522 -33.084  0.00  0.00    +0.000 C 
ATOM     36  C   UNL     1     -23.230  53.662 -33.112  0.00  0.00    +0.000 C 
ATOM     37  O   UNL     1     -23.988  53.537 -32.168  0.00  0.00    +0.000 OA
BRANCH  36  38
ATOM     38  O   UNL     1     -23.376  52.986 -34.261  0.00  0.00    +0.000 OA
ATOM     39  H   UNL     1     -22.934  53.546 -34.933  0.00  0.00    +0.000 HD
ENDBRANCH  36  38
ENDBRANCH  29  30
BRANCH  29  40
ATOM     40  O   UNL     1     -19.238  57.002 -30.069  0.00  0.00    +0.000 OA
ATOM     41  H   UNL     1     -19.619  57.324 -30.912  0.00  0.00    +0.000 HD
ENDBRANCH  29  40
ENDBRANCH  27  29
ENDBRANCH  25  27
ENDBRANCH   4  25
TORSDOF 12
ENDMDL
MODEL 3
REMARK VINA RESULT:      -7.0     24.180     29.202
REMARK  Name = Leptomycin.pdbqt.pdb
REMARK  12 active torsions:
REMARK  status: ('A' for Active; 'I' for Inactive)
REMARK    1  A    between atoms: C_2  and  C_4
REMARK    2  A    between atoms: C_5  and  C_6
REMARK    3  A    between atoms: C_6  and  C_7
REMARK    4  A    between atoms: C_10  and  C_11
REMARK    5  A    between atoms: C_10  and  C_21
REMARK    6  A    between atoms: C_12  and  C_13
REMARK    7  A    between atoms: C_23  and  C_25
REMARK    8  A    between atoms: C_25  and  C_27
REMARK    9  A    between atoms: C_27  and  C_29
REMARK   10  A    between atoms: C_29  and  O_30
REMARK   11  A    between atoms: C_29  and  C_32
REMARK   12  A    between atoms: C_38  and  O_40
REMARK                            x       y       z     vdW  Elec       q    Type
REMARK                         _______ _______ _______ _____ _____    ______ ____
ROOT
ATOM      1  C   UNL     1     -15.604  49.582 -26.183  0.00  0.00    +0.000 C 
ATOM      2  C   UNL     1     -15.303  50.785 -26.550  0.00  0.00    +0.000 C 
ATOM      3  C   UNL     1     -15.222  51.093 -28.017  0.00  0.00    +0.000 C 
ATOM      4  C   UNL     1     -15.979  48.293 -25.726  0.00  0.00    +0.000 C 
ATOM      5  C   UNL     1     -14.860  47.264 -25.705  0.00  0.00    +0.000 C 
ENDROOT
BRANCH   2   6
ATOM      6  C   UNL     1     -15.536  51.852 -25.646  0.00  0.00    +0.000 C 
ATOM      7  C   UNL     1     -15.671  52.751 -24.861  0.00  0.00    +0.000 C 
BRANCH   7   8
ATOM      8  C   UNL     1     -15.723  53.880 -23.828  0.00  0.00    +0.000 C 
BRANCH   8   9
ATOM      9  C   UNL     1     -15.907  55.010 -22.994  0.00  0.00    +0.000 C 
ATOM     10  C   UNL     1     -15.659  54.890 -21.522  0.00  0.00    +0.000 C 
ATOM     11  C   UNL     1     -16.427  56.224 -23.506  0.00  0.00    +0.000 C 
ATOM     12  C   UNL     1     -16.924  57.238 -24.145  0.00  0.00    +0.000 C 
BRANCH  12  13
ATOM     13  C   UNL     1     -17.268  57.000 -25.503  0.00  0.00    +0.000 C 
ATOM     14  C   UNL     1     -17.572  56.667 -26.616  0.00  0.00    +0.000 C 
BRANCH  14  15
ATOM     15  C   UNL     1     -17.951  56.146 -27.880  0.00  0.00    +0.000 A 
ATOM     16  O   UNL     1     -18.033  57.102 -28.980  0.00  0.00    +0.000 OA
ATOM     17  C   UNL     1     -18.361  56.713 -30.276  0.00  0.00    +0.000 A 
ATOM     18  O   UNL     1     -18.408  57.466 -31.237  0.00  0.00    +0.000 OA
ATOM     19  C   UNL     1     -18.616  55.305 -30.360  0.00  0.00    +0.000 A 
ATOM     20  C   UNL     1     -18.568  54.486 -29.492  0.00  0.00    +0.000 A 
ATOM     21  C   UNL     1     -18.239  54.731 -28.140  0.00  0.00    +0.000 A 
ATOM     22  C   UNL     1     -18.164  53.613 -27.149  0.00  0.00    +0.000 C 
ENDBRANCH  14  15
ENDBRANCH  12  13
BRANCH  12  23
ATOM     23  C   UNL     1     -17.105  58.467 -23.463  0.00  0.00    +0.000 C 
ATOM     24  C   UNL     1     -17.298  59.793 -22.717  0.00  0.00    +0.000 C 
ENDBRANCH  12  23
ENDBRANCH   8   9
ENDBRANCH   7   8
ENDBRANCH   2   6
BRANCH   4  25
ATOM     25  C   UNL     1     -17.167  48.159 -24.827  0.00  0.00    +0.000 C 
ATOM     26  O   UNL     1     -17.093  48.328 -23.605  0.00  0.00    +0.000 OA
BRANCH  25  27
ATOM     27  C   UNL     1     -18.456  47.750 -25.462  0.00  0.00    +0.000 C 
ATOM     28  C   UNL     1     -19.265  48.774 -26.254  0.00  0.00    +0.000 C 
BRANCH  27  29
ATOM     29  C   UNL     1     -19.054  46.478 -25.069  0.00  0.00    +0.000 C 
BRANCH  29  30
ATOM     30  C   UNL     1     -19.181  45.258 -25.847  0.00  0.00    +0.000 C 
ATOM     31  C   UNL     1     -20.150  44.177 -25.421  0.00  0.00    +0.000 C 
ATOM     32  C   UNL     1     -18.575  45.066 -27.110  0.00  0.00    +0.000 C 
ATOM     33  C   UNL     1     -17.985  44.809 -28.365  0.00  0.00    +0.000 C 
ATOM     34  C   UNL     1     -16.569  45.238 -28.598  0.00  0.00    +0.000 C 
ATOM     35  C   UNL     1     -18.690  44.322 -29.328  0.00  0.00    +0.000 C 
ATOM     36  C   UNL     1     -19.490  43.800 -30.381  0.00  0.00    +0.000 C 
ATOM     37  O   UNL     1     -20.472  44.375 -30.812  0.00  0.00    +0.000 OA
BRANCH  36  38
ATOM     38  O   UNL     1     -19.079  42.609 -30.842  0.00  0.00    +0.000 OA
ATOM     39  H   UNL     1     -18.119  42.587 -30.645  0.00  0.00    +0.000 HD
ENDBRANCH  36  38
ENDBRANCH  29  30
BRANCH  29  40
ATOM     40  O   UNL     1     -19.534  46.413 -23.759  0.00  0.00    +0.000 OA
ATOM     41  H   UNL     1     -19.631  47.303 -23.360  0.00  0.00    +0.000 HD
ENDBRANCH  29  40
ENDBRANCH  27  29
ENDBRANCH  25  27
ENDBRANCH   4  25
TORSDOF 12
ENDMDL
MODEL 4
REMARK VINA RESULT:      -6.9     22.770     26.893
REMARK  Name = Leptomycin.pdbqt.pdb
REMARK  12 active torsions:
REMARK  status: ('A' for Active; 'I' for Inactive)
REMARK    1  A    between atoms: C_2  and  C_4
REMARK    2  A    between atoms: C_5  and  C_6
REMARK    3  A    between atoms: C_6  and  C_7
REMARK    4  A    between atoms: C_10  and  C_11
REMARK    5  A    between atoms: C_10  and  C_21
REMARK    6  A    between atoms: C_12  and  C_13
REMARK    7  A    between atoms: C_23  and  C_25
REMARK    8  A    between atoms: C_25  and  C_27
REMARK    9  A    between atoms: C_27  and  C_29
REMARK   10  A    between atoms: C_29  and  O_30
REMARK   11  A    between atoms: C_29  and  C_32
REMARK   12  A    between atoms: C_38  and  O_40
REMARK                            x       y       z     vdW  Elec       q    Type
REMARK                         _______ _______ _______ _____ _____    ______ ____
ROOT
ATOM      1  C   UNL     1     -37.775  46.751 -16.326  0.00  0.00    +0.000 C 
ATOM      2  C   UNL     1     -38.032  46.034 -15.281  0.00  0.00    +0.000 C 
ATOM      3  C   UNL     1     -39.016  44.906 -15.404  0.00  0.00    +0.000 C 
ATOM      4  C   UNL     1     -37.419  47.537 -17.451  0.00  0.00    +0.000 C 
ATOM      5  C   UNL     1     -38.394  48.651 -17.796  0.00  0.00    +0.000 C 
ENDROOT
BRANCH   2   6
ATOM      6  C   UNL     1     -37.080  45.990 -14.233  0.00  0.00    +0.000 C 
ATOM      7  C   UNL     1     -36.277  45.888 -13.345  0.00  0.00    +0.000 C 
BRANCH   7   8
ATOM      8  C   UNL     1     -35.273  45.633 -12.217  0.00  0.00    +0.000 C 
BRANCH   8   9
ATOM      9  C   UNL     1     -34.298  45.229 -11.273  0.00  0.00    +0.000 C 
ATOM     10  C   UNL     1     -33.230  44.262 -11.682  0.00  0.00    +0.000 C 
ATOM     11  C   UNL     1     -34.376  45.634  -9.918  0.00  0.00    +0.000 C 
ATOM     12  C   UNL     1     -34.617  46.090  -8.727  0.00  0.00    +0.000 C 
BRANCH  12  13
ATOM     13  C   UNL     1     -35.833  46.811  -8.580  0.00  0.00    +0.000 C 
ATOM     14  C   UNL     1     -36.813  47.505  -8.554  0.00  0.00    +0.000 C 
BRANCH  14  15
ATOM     15  C   UNL     1     -37.915  48.394  -8.630  0.00  0.00    +0.000 A 
ATOM     16  O   UNL     1     -38.122  49.272  -7.482  0.00  0.00    +0.000 OA
ATOM     17  C   UNL     1     -39.148  50.213  -7.446  0.00  0.00    +0.000 A 
ATOM     18  O   UNL     1     -39.342  50.995  -6.527  0.00  0.00    +0.000 OA
ATOM     19  C   UNL     1     -39.946  50.175  -8.636  0.00  0.00    +0.000 A 
ATOM     20  C   UNL     1     -39.822  49.475  -9.594  0.00  0.00    +0.000 A 
ATOM     21  C   UNL     1     -38.826  48.489  -9.776  0.00  0.00    +0.000 A 
ATOM     22  C   UNL     1     -38.741  47.702 -11.045  0.00  0.00    +0.000 C 
ENDBRANCH  14  15
ENDBRANCH  12  13
BRANCH  12  23
ATOM     23  C   UNL     1     -33.695  45.827  -7.684  0.00  0.00    +0.000 C 
ATOM     24  C   UNL     1     -32.702  45.542  -6.550  0.00  0.00    +0.000 C 
ENDBRANCH  12  23
ENDBRANCH   8   9
ENDBRANCH   7   8
ENDBRANCH   2   6
BRANCH   4  25
ATOM     25  C   UNL     1     -35.980  47.618 -17.853  0.00  0.00    +0.000 C 
ATOM     26  O   UNL     1     -35.627  47.664 -19.036  0.00  0.00    +0.000 OA
BRANCH  25  27
ATOM     27  C   UNL     1     -34.966  47.582 -16.757  0.00  0.00    +0.000 C 
ATOM     28  C   UNL     1     -34.983  48.662 -15.678  0.00  0.00    +0.000 C 
BRANCH  27  29
ATOM     29  C   UNL     1     -33.813  46.699 -16.902  0.00  0.00    +0.000 C 
BRANCH  29  30
ATOM     30  C   UNL     1     -33.569  45.417 -16.264  0.00  0.00    +0.000 C 
ATOM     31  C   UNL     1     -32.350  45.219 -15.388  0.00  0.00    +0.000 C 
ATOM     32  C   UNL     1     -34.500  44.353 -16.258  0.00  0.00    +0.000 C 
ATOM     33  C   UNL     1     -35.379  43.251 -16.230  0.00  0.00    +0.000 C 
ATOM     34  C   UNL     1     -36.130  42.894 -17.476  0.00  0.00    +0.000 C 
ATOM     35  C   UNL     1     -35.619  42.638 -15.122  0.00  0.00    +0.000 C 
ATOM     36  C   UNL     1     -35.883  41.987 -13.885  0.00  0.00    +0.000 C 
ATOM     37  O   UNL     1     -36.360  42.562 -12.924  0.00  0.00    +0.000 OA
BRANCH  36  38
ATOM     38  O   UNL     1     -35.539  40.690 -13.865  0.00  0.00    +0.000 OA
ATOM     39  H   UNL     1     -34.664  40.675 -13.426  0.00  0.00    +0.000 HD
ENDBRANCH  36  38
ENDBRANCH  29  30
BRANCH  29  40
ATOM     40  O   UNL     1     -32.833  47.125 -17.801  0.00  0.00    +0.000 OA
ATOM     41  H   UNL     1     -32.865  46.624 -18.642  0.00  0.00    +0.000 HD
ENDBRANCH  29  40
ENDBRANCH  27  29
ENDBRANCH  25  27
ENDBRANCH   4  25
TORSDOF 12
ENDMDL
MODEL 5
REMARK VINA RESULT:      -6.9     28.781     33.678
REMARK  Name = Leptomycin.pdbqt.pdb
REMARK  12 active torsions:
REMARK  status: ('A' for Active; 'I' for Inactive)
REMARK    1  A    between atoms: C_2  and  C_4
REMARK    2  A    between atoms: C_5  and  C_6
REMARK    3  A    between atoms: C_6  and  C_7
REMARK    4  A    between atoms: C_10  and  C_11
REMARK    5  A    between atoms: C_10  and  C_21
REMARK    6  A    between atoms: C_12  and  C_13
REMARK    7  A    between atoms: C_23  and  C_25
REMARK    8  A    between atoms: C_25  and  C_27
REMARK    9  A    between atoms: C_27  and  C_29
REMARK   10  A    between atoms: C_29  and  O_30
REMARK   11  A    between atoms: C_29  and  C_32
REMARK   12  A    between atoms: C_38  and  O_40
REMARK                            x       y       z     vdW  Elec       q    Type
REMARK                         _______ _______ _______ _____ _____    ______ ____
ROOT
ATOM      1  C   UNL     1     -31.287  63.934 -23.129  0.00  0.00    +0.000 C 
ATOM      2  C   UNL     1     -30.046  64.291 -23.067  0.00  0.00    +0.000 C 
ATOM      3  C   UNL     1     -29.320  64.151 -21.760  0.00  0.00    +0.000 C 
ATOM      4  C   UNL     1     -32.634  63.512 -23.267  0.00  0.00    +0.000 C 
ATOM      5  C   UNL     1     -33.676  64.505 -22.778  0.00  0.00    +0.000 C 
ENDROOT
BRANCH   2   6
ATOM      6  C   UNL     1     -29.286  64.329 -24.263  0.00  0.00    +0.000 C 
ATOM      7  C   UNL     1     -28.684  64.405 -25.299  0.00  0.00    +0.000 C 
BRANCH   7   8
ATOM      8  C   UNL     1     -28.002  64.587 -26.659  0.00  0.00    +0.000 C 
BRANCH   8   9
ATOM      9  C   UNL     1     -27.550  64.706 -27.996  0.00  0.00    +0.000 C 
ATOM     10  C   UNL     1     -28.542  64.665 -29.117  0.00  0.00    +0.000 C 
ATOM     11  C   UNL     1     -26.168  64.752 -28.302  0.00  0.00    +0.000 C 
ATOM     12  C   UNL     1     -24.873  64.766 -28.389  0.00  0.00    +0.000 C 
BRANCH  12  13
ATOM     13  C   UNL     1     -24.172  64.570 -27.169  0.00  0.00    +0.000 C 
ATOM     14  C   UNL     1     -23.668  64.302 -26.112  0.00  0.00    +0.000 C 
BRANCH  14  15
ATOM     15  C   UNL     1     -23.163  63.880 -24.856  0.00  0.00    +0.000 A 
ATOM     16  O   UNL     1     -21.803  63.351 -24.846  0.00  0.00    +0.000 OA
ATOM     17  C   UNL     1     -21.178  62.935 -23.674  0.00  0.00    +0.000 A 
ATOM     18  O   UNL     1     -20.031  62.519 -23.606  0.00  0.00    +0.000 OA
ATOM     19  C   UNL     1     -22.038  63.074 -22.536  0.00  0.00    +0.000 A 
ATOM     20  C   UNL     1     -23.155  63.493 -22.493  0.00  0.00    +0.000 A 
ATOM     21  C   UNL     1     -23.907  63.961 -23.594  0.00  0.00    +0.000 A 
ATOM     22  C   UNL     1     -25.287  64.509 -23.410  0.00  0.00    +0.000 C 
ENDBRANCH  14  15
ENDBRANCH  12  13
BRANCH  12  23
ATOM     23  C   UNL     1     -24.266  64.948 -29.657  0.00  0.00    +0.000 C 
ATOM     24  C   UNL     1     -23.604  65.140 -31.026  0.00  0.00    +0.000 C 
ENDBRANCH  12  23
ENDBRANCH   8   9
ENDBRANCH   7   8
ENDBRANCH   2   6
BRANCH   4  25
ATOM     25  C   UNL     1     -32.970  62.487 -24.304  0.00  0.00    +0.000 C 
ATOM     26  O   UNL     1     -34.016  61.831 -24.269  0.00  0.00    +0.000 OA
BRANCH  25  27
ATOM     27  C   UNL     1     -31.953  62.241 -25.371  0.00  0.00    +0.000 C 
ATOM     28  C   UNL     1     -32.089  62.945 -26.719  0.00  0.00    +0.000 C 
BRANCH  27  29
ATOM     29  C   UNL     1     -31.030  61.123 -25.209  0.00  0.00    +0.000 C 
BRANCH  29  30
ATOM     30  C   UNL     1     -30.342  60.361 -26.236  0.00  0.00    +0.000 C 
ATOM     31  C   UNL     1     -31.085  59.314 -27.039  0.00  0.00    +0.000 C 
ATOM     32  C   UNL     1     -29.030  60.647 -26.680  0.00  0.00    +0.000 C 
ATOM     33  C   UNL     1     -27.721  60.873 -27.154  0.00  0.00    +0.000 C 
ATOM     34  C   UNL     1     -26.643  61.200 -26.167  0.00  0.00    +0.000 C 
ATOM     35  C   UNL     1     -27.485  60.913 -28.420  0.00  0.00    +0.000 C 
ATOM     36  C   UNL     1     -27.251  60.969 -29.822  0.00  0.00    +0.000 C 
ATOM     37  O   UNL     1     -27.797  61.776 -30.551  0.00  0.00    +0.000 OA
BRANCH  36  38
ATOM     38  O   UNL     1     -26.392  60.041 -30.271  0.00  0.00    +0.000 OA
ATOM     39  H   UNL     1     -25.834  59.826 -29.494  0.00  0.00    +0.000 HD
ENDBRANCH  36  38
ENDBRANCH  29  30
BRANCH  29  40
ATOM     40  O   UNL     1     -30.741  60.762 -23.891  0.00  0.00    +0.000 OA
ATOM     41  H   UNL     1     -31.486  60.958 -23.286  0.00  0.00    +0.000 HD
ENDBRANCH  29  40
ENDBRANCH  27  29
ENDBRANCH  25  27
ENDBRANCH   4  25
TORSDOF 12
ENDMDL
MODEL 6
REMARK VINA RESULT:      -6.8     22.634     27.618
REMARK  Name = Leptomycin.pdbqt.pdb
REMARK  12 active torsions:
REMARK  status: ('A' for Active; 'I' for Inactive)
REMARK    1  A    between atoms: C_2  and  C_4
REMARK    2  A    between atoms: C_5  and  C_6
REMARK    3  A    between atoms: C_6  and  C_7
REMARK    4  A    between atoms: C_10  and  C_11
REMARK    5  A    between atoms: C_10  and  C_21
REMARK    6  A    between atoms: C_12  and  C_13
REMARK    7  A    between atoms: C_23  and  C_25
REMARK    8  A    between atoms: C_25  and  C_27
REMARK    9  A    between atoms: C_27  and  C_29
REMARK   10  A    between atoms: C_29  and  O_30
REMARK   11  A    between atoms: C_29  and  C_32
REMARK   12  A    between atoms: C_38  and  O_40
REMARK                            x       y       z     vdW  Elec       q    Type
REMARK                         _______ _______ _______ _____ _____    ______ ____
ROOT
ATOM      1  C   UNL     1     -14.664  49.364 -24.775  0.00  0.00    +0.000 C 
ATOM      2  C   UNL     1     -15.086  50.391 -25.438  0.00  0.00    +0.000 C 
ATOM      3  C   UNL     1     -15.737  50.170 -26.773  0.00  0.00    +0.000 C 
ATOM      4  C   UNL     1     -14.229  48.271 -23.983  0.00  0.00    +0.000 C 
ATOM      5  C   UNL     1     -12.870  47.701 -24.359  0.00  0.00    +0.000 C 
ENDROOT
BRANCH   2   6
ATOM      6  C   UNL     1     -15.375  51.586 -24.734  0.00  0.00    +0.000 C 
ATOM      7  C   UNL     1     -15.559  52.620 -24.150  0.00  0.00    +0.000 C 
BRANCH   7   8
ATOM      8  C   UNL     1     -15.675  53.967 -23.432  0.00  0.00    +0.000 C 
BRANCH   8   9
ATOM      9  C   UNL     1     -15.949  55.139 -22.684  0.00  0.00    +0.000 C 
ATOM     10  C   UNL     1     -15.831  55.107 -21.192  0.00  0.00    +0.000 C 
ATOM     11  C   UNL     1     -16.440  56.311 -23.310  0.00  0.00    +0.000 C 
ATOM     12  C   UNL     1     -16.894  57.277 -24.049  0.00  0.00    +0.000 C 
BRANCH  12  13
ATOM     13  C   UNL     1     -17.113  56.955 -25.416  0.00  0.00    +0.000 C 
ATOM     14  C   UNL     1     -17.412  56.620 -26.529  0.00  0.00    +0.000 C 
BRANCH  14  15
ATOM     15  C   UNL     1     -17.883  56.173 -27.791  0.00  0.00    +0.000 A 
ATOM     16  O   UNL     1     -18.062  57.195 -28.817  0.00  0.00    +0.000 OA
ATOM     17  C   UNL     1     -18.486  56.884 -30.106  0.00  0.00    +0.000 A 
ATOM     18  O   UNL     1     -18.617  57.695 -31.010  0.00  0.00    +0.000 OA
ATOM     19  C   UNL     1     -18.732  55.480 -30.260  0.00  0.00    +0.000 A 
ATOM     20  C   UNL     1     -18.607  54.609 -29.453  0.00  0.00    +0.000 A 
ATOM     21  C   UNL     1     -18.176  54.773 -28.118  0.00  0.00    +0.000 A 
ATOM     22  C   UNL     1     -18.011  53.597 -27.209  0.00  0.00    +0.000 C 
ENDBRANCH  14  15
ENDBRANCH  12  13
BRANCH  12  23
ATOM     23  C   UNL     1     -17.153  58.538 -23.458  0.00  0.00    +0.000 C 
ATOM     24  C   UNL     1     -17.438  59.900 -22.813  0.00  0.00    +0.000 C 
ENDBRANCH  12  23
ENDBRANCH   8   9
ENDBRANCH   7   8
ENDBRANCH   2   6
BRANCH   4  25
ATOM     25  C   UNL     1     -14.775  48.115 -22.599  0.00  0.00    +0.000 C 
ATOM     26  O   UNL     1     -15.225  49.069 -21.955  0.00  0.00    +0.000 OA
BRANCH  25  27
ATOM     27  C   UNL     1     -14.701  46.753 -21.989  0.00  0.00    +0.000 C 
ATOM     28  C   UNL     1     -13.847  46.530 -20.743  0.00  0.00    +0.000 C 
BRANCH  27  29
ATOM     29  C   UNL     1     -15.201  45.617 -22.757  0.00  0.00    +0.000 C 
BRANCH  29  30
ATOM     30  C   UNL     1     -16.450  45.497 -23.488  0.00  0.00    +0.000 C 
ATOM     31  C   UNL     1     -17.687  44.957 -22.804  0.00  0.00    +0.000 C 
ATOM     32  C   UNL     1     -16.655  46.023 -24.785  0.00  0.00    +0.000 C 
ATOM     33  C   UNL     1     -16.916  46.512 -26.082  0.00  0.00    +0.000 C 
ATOM     34  C   UNL     1     -15.866  46.353 -27.138  0.00  0.00    +0.000 C 
ATOM     35  C   UNL     1     -17.988  47.186 -26.319  0.00  0.00    +0.000 C 
ATOM     36  C   UNL     1     -19.170  47.941 -26.555  0.00  0.00    +0.000 C 
ATOM     37  O   UNL     1     -19.419  48.979 -25.971  0.00  0.00    +0.000 OA
BRANCH  36  38
ATOM     38  O   UNL     1     -19.995  47.397 -27.464  0.00  0.00    +0.000 OA
ATOM     39  H   UNL     1     -20.882  47.454 -27.054  0.00  0.00    +0.000 HD
ENDBRANCH  36  38
ENDBRANCH  29  30
BRANCH  29  40
ATOM     40  O   UNL     1     -14.347  44.514 -22.831  0.00  0.00    +0.000 OA
ATOM     41  H   UNL     1     -14.841  43.676 -22.947  0.00  0.00    +0.000 HD
ENDBRANCH  29  40
ENDBRANCH  27  29
ENDBRANCH  25  27
ENDBRANCH   4  25
TORSDOF 12
ENDMDL
MODEL 7
REMARK VINA RESULT:      -6.7     24.299     30.809
REMARK  Name = Leptomycin.pdbqt.pdb
REMARK  12 active torsions:
REMARK  status: ('A' for Active; 'I' for Inactive)
REMARK    1  A    between atoms: C_2  and  C_4
REMARK    2  A    between atoms: C_5  and  C_6
REMARK    3  A    between atoms: C_6  and  C_7
REMARK    4  A    between atoms: C_10  and  C_11
REMARK    5  A    between atoms: C_10  and  C_21
REMARK    6  A    between atoms: C_12  and  C_13
REMARK    7  A    between atoms: C_23  and  C_25
REMARK    8  A    between atoms: C_25  and  C_27
REMARK    9  A    between atoms: C_27  and  C_29
REMARK   10  A    between atoms: C_29  and  O_30
REMARK   11  A    between atoms: C_29  and  C_32
REMARK   12  A    between atoms: C_38  and  O_40
REMARK                            x       y       z     vdW  Elec       q    Type
REMARK                         _______ _______ _______ _____ _____    ______ ____
ROOT
ATOM      1  C   UNL     1     -16.469  54.172 -25.765  0.00  0.00    +0.000 C 
ATOM      2  C   UNL     1     -15.798  54.219 -24.660  0.00  0.00    +0.000 C 
ATOM      3  C   UNL     1     -14.433  53.595 -24.619  0.00  0.00    +0.000 C 
ATOM      4  C   UNL     1     -17.227  54.195 -26.963  0.00  0.00    +0.000 C 
ATOM      5  C   UNL     1     -17.989  52.915 -27.269  0.00  0.00    +0.000 C 
ENDROOT
BRANCH   2   6
ATOM      6  C   UNL     1     -16.111  55.225 -23.714  0.00  0.00    +0.000 C 
ATOM      7  C   UNL     1     -16.341  56.121 -22.947  0.00  0.00    +0.000 C 
BRANCH   7   8
ATOM      8  C   UNL     1     -16.562  57.336 -22.041  0.00  0.00    +0.000 C 
BRANCH   8   9
ATOM      9  C   UNL     1     -16.672  58.353 -21.061  0.00  0.00    +0.000 C 
ATOM     10  C   UNL     1     -16.731  57.980 -19.612  0.00  0.00    +0.000 C 
ATOM     11  C   UNL     1     -16.837  59.711 -21.428  0.00  0.00    +0.000 C 
ATOM     12  C   UNL     1     -16.996  60.889 -21.950  0.00  0.00    +0.000 C 
BRANCH  12  13
ATOM     13  C   UNL     1     -17.121  60.922 -23.365  0.00  0.00    +0.000 C 
ATOM     14  C   UNL     1     -17.143  60.842 -24.563  0.00  0.00    +0.000 C 
BRANCH  14  15
ATOM     15  C   UNL     1     -17.091  60.633 -25.965  0.00  0.00    +0.000 A 
ATOM     16  O   UNL     1     -17.724  61.650 -26.798  0.00  0.00    +0.000 OA
ATOM     17  C   UNL     1     -17.714  61.581 -28.189  0.00  0.00    +0.000 A 
ATOM     18  O   UNL     1     -18.196  62.422 -28.931  0.00  0.00    +0.000 OA
ATOM     19  C   UNL     1     -17.042  60.404 -28.656  0.00  0.00    +0.000 A 
ATOM     20  C   UNL     1     -16.516  59.543 -28.018  0.00  0.00    +0.000 A 
ATOM     21  C   UNL     1     -16.438  59.487 -26.609  0.00  0.00    +0.000 A 
ATOM     22  C   UNL     1     -15.709  58.379 -25.919  0.00  0.00    +0.000 C 
ENDBRANCH  14  15
ENDBRANCH  12  13
BRANCH  12  23
ATOM     23  C   UNL     1     -17.054  62.021 -21.100  0.00  0.00    +0.000 C 
ATOM     24  C   UNL     1     -17.115  63.251 -20.187  0.00  0.00    +0.000 C 
ENDBRANCH  12  23
ENDBRANCH   8   9
ENDBRANCH   7   8
ENDBRANCH   2   6
BRANCH   4  25
ATOM     25  C   UNL     1     -17.677  55.511 -27.513  0.00  0.00    +0.000 C 
ATOM     26  O   UNL     1     -18.244  56.359 -26.816  0.00  0.00    +0.000 OA
BRANCH  25  27
ATOM     27  C   UNL     1     -17.464  55.746 -28.973  0.00  0.00    +0.000 C 
ATOM     28  C   UNL     1     -16.089  56.183 -29.474  0.00  0.00    +0.000 C 
BRANCH  27  29
ATOM     29  C   UNL     1     -18.632  55.839 -29.842  0.00  0.00    +0.000 C 
BRANCH  29  30
ATOM     30  C   UNL     1     -19.122  54.872 -30.808  0.00  0.00    +0.000 C 
ATOM     31  C   UNL     1     -18.846  53.396 -30.619  0.00  0.00    +0.000 C 
ATOM     32  C   UNL     1     -20.013  55.193 -31.858  0.00  0.00    +0.000 C 
ATOM     33  C   UNL     1     -20.889  55.452 -32.933  0.00  0.00    +0.000 C 
ATOM     34  C   UNL     1     -20.690  56.697 -33.741  0.00  0.00    +0.000 C 
ATOM     35  C   UNL     1     -21.910  54.694 -33.138  0.00  0.00    +0.000 C 
ATOM     36  C   UNL     1     -23.040  53.853 -33.336  0.00  0.00    +0.000 C 
ATOM     37  O   UNL     1     -23.906  53.700 -32.494  0.00  0.00    +0.000 OA
BRANCH  36  38
ATOM     38  O   UNL     1     -23.056  53.229 -34.523  0.00  0.00    +0.000 OA
ATOM     39  H   UNL     1     -23.992  53.269 -34.809  0.00  0.00    +0.000 HD
ENDBRANCH  36  38
ENDBRANCH  29  30
BRANCH  29  40
ATOM     40  O   UNL     1     -19.402  56.996 -29.699  0.00  0.00    +0.000 OA
ATOM     41  H   UNL     1     -18.974  57.774 -30.112  0.00  0.00    +0.000 HD
ENDBRANCH  29  40
ENDBRANCH  27  29
ENDBRANCH  25  27
ENDBRANCH   4  25
TORSDOF 12
ENDMDL
MODEL 8
REMARK VINA RESULT:      -6.7     22.357     25.699
REMARK  Name = Leptomycin.pdbqt.pdb
REMARK  12 active torsions:
REMARK  status: ('A' for Active; 'I' for Inactive)
REMARK    1  A    between atoms: C_2  and  C_4
REMARK    2  A    between atoms: C_5  and  C_6
REMARK    3  A    between atoms: C_6  and  C_7
REMARK    4  A    between atoms: C_10  and  C_11
REMARK    5  A    between atoms: C_10  and  C_21
REMARK    6  A    between atoms: C_12  and  C_13
REMARK    7  A    between atoms: C_23  and  C_25
REMARK    8  A    between atoms: C_25  and  C_27
REMARK    9  A    between atoms: C_27  and  C_29
REMARK   10  A    between atoms: C_29  and  O_30
REMARK   11  A    between atoms: C_29  and  C_32
REMARK   12  A    between atoms: C_38  and  O_40
REMARK                            x       y       z     vdW  Elec       q    Type
REMARK                         _______ _______ _______ _____ _____    ______ ____
ROOT
ATOM      1  C   UNL     1     -34.687  45.617  -9.830  0.00  0.00    +0.000 C 
ATOM      2  C   UNL     1     -34.434  45.208 -11.030  0.00  0.00    +0.000 C 
ATOM      3  C   UNL     1     -34.021  43.779 -11.232  0.00  0.00    +0.000 C 
ATOM      4  C   UNL     1     -35.024  46.106  -8.543  0.00  0.00    +0.000 C 
ATOM      5  C   UNL     1     -33.843  46.503  -7.672  0.00  0.00    +0.000 C 
ENDROOT
BRANCH   2   6
ATOM      6  C   UNL     1     -34.998  45.910 -12.124  0.00  0.00    +0.000 C 
ATOM      7  C   UNL     1     -35.445  46.559 -13.031  0.00  0.00    +0.000 C 
BRANCH   7   8
ATOM      8  C   UNL     1     -35.952  47.486 -14.140  0.00  0.00    +0.000 C 
BRANCH   8   9
ATOM      9  C   UNL     1     -36.331  48.215 -15.294  0.00  0.00    +0.000 C 
ATOM     10  C   UNL     1     -37.652  48.920 -15.321  0.00  0.00    +0.000 C 
ATOM     11  C   UNL     1     -35.535  48.201 -16.465  0.00  0.00    +0.000 C 
ATOM     12  C   UNL     1     -34.693  48.059 -17.443  0.00  0.00    +0.000 C 
BRANCH  12  13
ATOM     13  C   UNL     1     -33.628  47.148 -17.208  0.00  0.00    +0.000 C 
ATOM     14  C   UNL     1     -32.792  46.293 -17.095  0.00  0.00    +0.000 C 
BRANCH  14  15
ATOM     15  C   UNL     1     -31.877  45.210 -17.056  0.00  0.00    +0.000 A 
ATOM     16  O   UNL     1     -30.854  45.185 -18.097  0.00  0.00    +0.000 OA
ATOM     17  C   UNL     1     -29.876  44.196 -18.151  0.00  0.00    +0.000 A 
ATOM     18  O   UNL     1     -28.978  44.150 -18.978  0.00  0.00    +0.000 OA
ATOM     19  C   UNL     1     -30.032  43.238 -17.097  0.00  0.00    +0.000 A 
ATOM     20  C   UNL     1     -30.851  43.210 -16.229  0.00  0.00    +0.000 A 
ATOM     21  C   UNL     1     -31.891  44.149 -16.042  0.00  0.00    +0.000 A 
ATOM     22  C   UNL     1     -32.834  44.038 -14.887  0.00  0.00    +0.000 C 
ENDBRANCH  14  15
ENDBRANCH  12  13
BRANCH  12  23
ATOM     23  C   UNL     1     -34.898  48.781 -18.644  0.00  0.00    +0.000 C 
ATOM     24  C   UNL     1     -35.113  49.566 -19.944  0.00  0.00    +0.000 C 
ENDBRANCH  12  23
ENDBRANCH   8   9
ENDBRANCH   7   8
ENDBRANCH   2   6
BRANCH   4  25
ATOM     25  C   UNL     1     -36.379  46.704  -8.325  0.00  0.00    +0.000 C 
ATOM     26  O   UNL     1     -36.620  47.894  -8.553  0.00  0.00    +0.000 OA
BRANCH  25  27
ATOM     27  C   UNL     1     -37.432  45.809  -7.757  0.00  0.00    +0.000 C 
ATOM     28  C   UNL     1     -37.371  45.413  -6.284  0.00  0.00    +0.000 C 
BRANCH  27  29
ATOM     29  C   UNL     1     -38.317  45.102  -8.678  0.00  0.00    +0.000 C 
BRANCH  29  30
ATOM     30  C   UNL     1     -38.183  44.935 -10.114  0.00  0.00    +0.000 C 
ATOM     31  C   UNL     1     -37.730  43.610 -10.690  0.00  0.00    +0.000 C 
ATOM     32  C   UNL     1     -38.621  45.890 -11.060  0.00  0.00    +0.000 C 
ATOM     33  C   UNL     1     -39.024  46.809 -12.051  0.00  0.00    +0.000 C 
ATOM     34  C   UNL     1     -38.759  48.267 -11.833  0.00  0.00    +0.000 C 
ATOM     35  C   UNL     1     -39.711  46.412 -13.066  0.00  0.00    +0.000 C 
ATOM     36  C   UNL     1     -40.483  45.955 -14.170  0.00  0.00    +0.000 C 
ATOM     37  O   UNL     1     -41.567  45.417 -14.040  0.00  0.00    +0.000 OA
BRANCH  36  38
ATOM     38  O   UNL     1     -39.901  46.150 -15.363  0.00  0.00    +0.000 OA
ATOM     39  H   UNL     1     -40.629  46.458 -15.943  0.00  0.00    +0.000 HD
ENDBRANCH  36  38
ENDBRANCH  29  30
BRANCH  29  40
ATOM     40  O   UNL     1     -39.419  44.472  -8.094  0.00  0.00    +0.000 OA
ATOM     41  H   UNL     1     -39.855  43.849  -8.712  0.00  0.00    +0.000 HD
ENDBRANCH  29  40
ENDBRANCH  27  29
ENDBRANCH  25  27
ENDBRANCH   4  25
TORSDOF 12
ENDMDL
MODEL 9
REMARK VINA RESULT:      -6.6     22.984     27.690
REMARK  Name = Leptomycin.pdbqt.pdb
REMARK  12 active torsions:
REMARK  status: ('A' for Active; 'I' for Inactive)
REMARK    1  A    between atoms: C_2  and  C_4
REMARK    2  A    between atoms: C_5  and  C_6
REMARK    3  A    between atoms: C_6  and  C_7
REMARK    4  A    between atoms: C_10  and  C_11
REMARK    5  A    between atoms: C_10  and  C_21
REMARK    6  A    between atoms: C_12  and  C_13
REMARK    7  A    between atoms: C_23  and  C_25
REMARK    8  A    between atoms: C_25  and  C_27
REMARK    9  A    between atoms: C_27  and  C_29
REMARK   10  A    between atoms: C_29  and  O_30
REMARK   11  A    between atoms: C_29  and  C_32
REMARK   12  A    between atoms: C_38  and  O_40
REMARK                            x       y       z     vdW  Elec       q    Type
REMARK                         _______ _______ _______ _____ _____    ______ ____
ROOT
ATOM      1  C   UNL     1     -14.853  49.344 -24.838  0.00  0.00    +0.000 C 
ATOM      2  C   UNL     1     -15.043  50.441 -25.497  0.00  0.00    +0.000 C 
ATOM      3  C   UNL     1     -15.467  50.354 -26.934  0.00  0.00    +0.000 C 
ATOM      4  C   UNL     1     -14.678  48.175 -24.055  0.00  0.00    +0.000 C 
ATOM      5  C   UNL     1     -13.341  47.474 -24.230  0.00  0.00    +0.000 C 
ENDROOT
BRANCH   2   6
ATOM      6  C   UNL     1     -15.328  51.628 -24.777  0.00  0.00    +0.000 C 
ATOM      7  C   UNL     1     -15.519  52.662 -24.196  0.00  0.00    +0.000 C 
BRANCH   7   8
ATOM      8  C   UNL     1     -15.660  54.026 -23.515  0.00  0.00    +0.000 C 
BRANCH   8   9
ATOM      9  C   UNL     1     -15.906  55.193 -22.750  0.00  0.00    +0.000 C 
ATOM     10  C   UNL     1     -15.721  55.155 -21.265  0.00  0.00    +0.000 C 
ATOM     11  C   UNL     1     -16.431  56.365 -23.347  0.00  0.00    +0.000 C 
ATOM     12  C   UNL     1     -16.922  57.332 -24.060  0.00  0.00    +0.000 C 
BRANCH  12  13
ATOM     13  C   UNL     1     -17.200  57.016 -25.417  0.00  0.00    +0.000 C 
ATOM     14  C   UNL     1     -17.527  56.659 -26.516  0.00  0.00    +0.000 C 
BRANCH  14  15
ATOM     15  C   UNL     1     -18.009  56.157 -27.752  0.00  0.00    +0.000 A 
ATOM     16  O   UNL     1     -18.141  54.708 -27.859  0.00  0.00    +0.000 OA
ATOM     17  C   UNL     1     -18.634  54.091 -29.006  0.00  0.00    +0.000 A 
ATOM     18  O   UNL     1     -18.799  52.888 -29.133  0.00  0.00    +0.000 OA
ATOM     19  C   UNL     1     -18.952  55.046 -30.027  0.00  0.00    +0.000 A 
ATOM     20  C   UNL     1     -18.856  56.235 -29.991  0.00  0.00    +0.000 A 
ATOM     21  C   UNL     1     -18.388  56.995 -28.896  0.00  0.00    +0.000 A 
ATOM     22  C   UNL     1     -18.356  58.490 -28.949  0.00  0.00    +0.000 C 
ENDBRANCH  14  15
ENDBRANCH  12  13
BRANCH  12  23
ATOM     23  C   UNL     1     -17.161  58.590 -23.451  0.00  0.00    +0.000 C 
ATOM     24  C   UNL     1     -17.422  59.952 -22.799  0.00  0.00    +0.000 C 
ENDBRANCH  12  23
ENDBRANCH   8   9
ENDBRANCH   7   8
ENDBRANCH   2   6
BRANCH   4  25
ATOM     25  C   UNL     1     -15.474  48.019 -22.798  0.00  0.00    +0.000 C 
ATOM     26  O   UNL     1     -15.605  48.936 -21.981  0.00  0.00    +0.000 OA
BRANCH  25  27
ATOM     27  C   UNL     1     -16.065  46.673 -22.531  0.00  0.00    +0.000 C 
ATOM     28  C   UNL     1     -15.648  45.900 -21.281  0.00  0.00    +0.000 C 
BRANCH  27  29
ATOM     29  C   UNL     1     -16.792  46.005 -23.606  0.00  0.00    +0.000 C 
BRANCH  29  30
ATOM     30  C   UNL     1     -18.077  46.357 -24.184  0.00  0.00    +0.000 C 
ATOM     31  C   UNL     1     -18.205  47.570 -25.081  0.00  0.00    +0.000 C 
ATOM     32  C   UNL     1     -19.223  45.531 -24.114  0.00  0.00    +0.000 C 
ATOM     33  C   UNL     1     -20.403  44.760 -24.065  0.00  0.00    +0.000 C 
ATOM     34  C   UNL     1     -20.763  44.073 -22.784  0.00  0.00    +0.000 C 
ATOM     35  C   UNL     1     -21.091  44.556 -25.134  0.00  0.00    +0.000 C 
ATOM     36  C   UNL     1     -21.828  44.330 -26.330  0.00  0.00    +0.000 C 
ATOM     37  O   UNL     1     -21.351  43.781 -27.306  0.00  0.00    +0.000 OA
BRANCH  36  38
ATOM     38  O   UNL     1     -23.086  44.795 -26.294  0.00  0.00    +0.000 OA
ATOM     39  H   UNL     1     -22.996  45.723 -25.995  0.00  0.00    +0.000 HD
ENDBRANCH  36  38
ENDBRANCH  29  30
BRANCH  29  40
ATOM     40  O   UNL     1     -16.151  44.904 -24.178  0.00  0.00    +0.000 OA
ATOM     41  H   UNL     1     -15.701  44.352 -23.506  0.00  0.00    +0.000 HD
ENDBRANCH  29  40
ENDBRANCH  27  29
ENDBRANCH  25  27
ENDBRANCH   4  25
TORSDOF 12
ENDMDL
