MODEL 1
REMARK VINA RESULT:      -6.5      0.000      0.000
REMARK  Name = Lobelin.pdbqt.pdb
REMARK  3 active torsions:
REMARK  status: ('A' for Active; 'I' for Inactive)
REMARK    1  A    between atoms: C_9  and  O_10
REMARK    2  A    between atoms: C_9  and  C_12
REMARK    3  A    between atoms: C_19  and  C_21
REMARK                            x       y       z     vdW  Elec       q    Type
REMARK                         _______ _______ _______ _____ _____    ______ ____
ROOT
ATOM      1  N   UNL     1     -35.143  45.675 -11.992  0.00  0.00    +0.000 N 
ATOM      2  C   UNL     1     -36.092  45.316 -10.943  0.00  0.00    +0.000 C 
ATOM      3  C   UNL     1     -35.598  46.400 -13.174  0.00  0.00    +0.000 C 
ATOM      4  C   UNL     1     -37.430  45.764 -11.168  0.00  0.00    +0.000 C 
ATOM      5  C   UNL     1     -36.986  46.738 -13.173  0.00  0.00    +0.000 C 
ATOM      6  C   UNL     1     -38.171  46.529 -12.249  0.00  0.00    +0.000 C 
ATOM      7  C   UNL     1     -33.778  45.204 -11.923  0.00  0.00    +0.000 C 
ATOM      8  C   UNL     1     -35.713  44.587  -9.784  0.00  0.00    +0.000 C 
ATOM      9  C   UNL     1     -35.321  43.881  -8.617  0.00  0.00    +0.000 C 
ATOM     10  C   UNL     1     -34.722  46.750 -14.233  0.00  0.00    +0.000 C 
ATOM     11  C   UNL     1     -33.826  47.134 -15.292  0.00  0.00    +0.000 C 
ATOM     12  O   UNL     1     -33.791  48.303 -15.649  0.00  0.00    +0.000 OA
ENDROOT
BRANCH   9  13
ATOM     13  C   UNL     1     -34.367  44.387  -7.630  0.00  0.00    +0.000 A 
ATOM     14  C   UNL     1     -34.160  43.712  -6.423  0.00  0.00    +0.000 A 
ATOM     15  C   UNL     1     -33.251  44.194  -5.482  0.00  0.00    +0.000 A 
ATOM     16  C   UNL     1     -32.537  45.360  -5.740  0.00  0.00    +0.000 A 
ATOM     17  C   UNL     1     -32.733  46.045  -6.935  0.00  0.00    +0.000 A 
ATOM     18  C   UNL     1     -33.644  45.559  -7.872  0.00  0.00    +0.000 A 
ENDBRANCH   9  13
BRANCH  11  19
ATOM     19  C   UNL     1     -32.988  46.096 -15.916  0.00  0.00    +0.000 A 
ATOM     20  C   UNL     1     -32.811  46.043 -17.298  0.00  0.00    +0.000 A 
ATOM     21  C   UNL     1     -32.007  45.053 -17.858  0.00  0.00    +0.000 A 
ATOM     22  C   UNL     1     -31.381  44.118 -17.037  0.00  0.00    +0.000 A 
ATOM     23  C   UNL     1     -31.555  44.173 -15.656  0.00  0.00    +0.000 A 
ATOM     24  C   UNL     1     -32.358  45.162 -15.093  0.00  0.00    +0.000 A 
ENDBRANCH  11  19
BRANCH   9  25
ATOM     25  O   UNL     1     -35.867  42.641  -8.375  0.00  0.00    +0.000 OA
ATOM     26  H   UNL     1     -35.349  41.929  -8.789  0.00  0.00    +0.000 HD
ENDBRANCH   9  25
TORSDOF 3
ENDMDL
MODEL 2
REMARK VINA RESULT:      -6.5      0.665      8.006
REMARK  Name = Lobelin.pdbqt.pdb
REMARK  3 active torsions:
REMARK  status: ('A' for Active; 'I' for Inactive)
REMARK    1  A    between atoms: C_9  and  O_10
REMARK    2  A    between atoms: C_9  and  C_12
REMARK    3  A    between atoms: C_19  and  C_21
REMARK                            x       y       z     vdW  Elec       q    Type
REMARK                         _______ _______ _______ _____ _____    ______ ____
ROOT
ATOM      1  N   UNL     1     -35.033  45.017 -11.851  0.00  0.00    +0.000 N 
ATOM      2  C   UNL     1     -35.524  45.597 -13.097  0.00  0.00    +0.000 C 
ATOM      3  C   UNL     1     -35.973  44.481 -10.871  0.00  0.00    +0.000 C 
ATOM      4  C   UNL     1     -36.943  45.546 -13.262  0.00  0.00    +0.000 C 
ATOM      5  C   UNL     1     -37.345  44.545 -11.262  0.00  0.00    +0.000 C 
ATOM      6  C   UNL     1     -38.130  45.049 -12.457  0.00  0.00    +0.000 C 
ATOM      7  C   UNL     1     -33.625  45.086 -11.529  0.00  0.00    +0.000 C 
ATOM      8  C   UNL     1     -34.659  46.157 -14.075  0.00  0.00    +0.000 C 
ATOM      9  C   UNL     1     -33.787  46.692 -15.058  0.00  0.00    +0.000 C 
ATOM     10  C   UNL     1     -35.549  43.931  -9.635  0.00  0.00    +0.000 C 
ATOM     11  C   UNL     1     -35.115  43.343  -8.395  0.00  0.00    +0.000 C 
ATOM     12  O   UNL     1     -35.503  42.222  -8.100  0.00  0.00    +0.000 OA
ENDROOT
BRANCH   9  13
ATOM     13  C   UNL     1     -32.779  45.912 -15.777  0.00  0.00    +0.000 A 
ATOM     14  C   UNL     1     -32.742  45.905 -17.174  0.00  0.00    +0.000 A 
ATOM     15  C   UNL     1     -31.783  45.162 -17.860  0.00  0.00    +0.000 A 
ATOM     16  C   UNL     1     -30.846  44.416 -17.152  0.00  0.00    +0.000 A 
ATOM     17  C   UNL     1     -30.870  44.411 -15.761  0.00  0.00    +0.000 A 
ATOM     18  C   UNL     1     -31.832  45.155 -15.081  0.00  0.00    +0.000 A 
ENDBRANCH   9  13
BRANCH  11  19
ATOM     19  C   UNL     1     -34.225  44.124  -7.519  0.00  0.00    +0.000 A 
ATOM     20  C   UNL     1     -33.750  45.377  -7.903  0.00  0.00    +0.000 A 
ATOM     21  C   UNL     1     -32.915  46.095  -7.050  0.00  0.00    +0.000 A 
ATOM     22  C   UNL     1     -32.557  45.560  -5.815  0.00  0.00    +0.000 A 
ATOM     23  C   UNL     1     -33.035  44.309  -5.429  0.00  0.00    +0.000 A 
ATOM     24  C   UNL     1     -33.870  43.590  -6.281  0.00  0.00    +0.000 A 
ENDBRANCH  11  19
BRANCH   9  25
ATOM     25  O   UNL     1     -33.881  48.028 -15.376  0.00  0.00    +0.000 OA
ATOM     26  H   UNL     1     -34.063  48.164 -16.321  0.00  0.00    +0.000 HD
ENDBRANCH   9  25
TORSDOF 3
ENDMDL
MODEL 3
REMARK VINA RESULT:      -6.4      1.821      7.914
REMARK  Name = Lobelin.pdbqt.pdb
REMARK  3 active torsions:
REMARK  status: ('A' for Active; 'I' for Inactive)
REMARK    1  A    between atoms: C_9  and  O_10
REMARK    2  A    between atoms: C_9  and  C_12
REMARK    3  A    between atoms: C_19  and  C_21
REMARK                            x       y       z     vdW  Elec       q    Type
REMARK                         _______ _______ _______ _____ _____    ______ ____
ROOT
ATOM      1  N   UNL     1     -34.499  45.175 -11.822  0.00  0.00    +0.000 N 
ATOM      2  C   UNL     1     -34.335  45.548 -13.222  0.00  0.00    +0.000 C 
ATOM      3  C   UNL     1     -35.608  45.719 -11.043  0.00  0.00    +0.000 C 
ATOM      4  C   UNL     1     -35.346  46.421 -13.731  0.00  0.00    +0.000 C 
ATOM      5  C   UNL     1     -36.488  46.575 -11.772  0.00  0.00    +0.000 C 
ATOM      6  C   UNL     1     -36.585  47.109 -13.189  0.00  0.00    +0.000 C 
ATOM      7  C   UNL     1     -33.495  44.365 -11.167  0.00  0.00    +0.000 C 
ATOM      8  C   UNL     1     -33.262  45.072 -14.022  0.00  0.00    +0.000 C 
ATOM      9  C   UNL     1     -32.200  44.571 -14.820  0.00  0.00    +0.000 C 
ATOM     10  C   UNL     1     -35.797  45.408  -9.672  0.00  0.00    +0.000 C 
ATOM     11  C   UNL     1     -36.007  45.066  -8.290  0.00  0.00    +0.000 C 
ATOM     12  O   UNL     1     -37.100  44.645  -7.940  0.00  0.00    +0.000 OA
ENDROOT
BRANCH   9  13
ATOM     13  C   UNL     1     -32.006  43.156 -15.138  0.00  0.00    +0.000 A 
ATOM     14  C   UNL     1     -30.936  42.742 -15.936  0.00  0.00    +0.000 A 
ATOM     15  C   UNL     1     -30.749  41.395 -16.239  0.00  0.00    +0.000 A 
ATOM     16  C   UNL     1     -31.635  40.443 -15.744  0.00  0.00    +0.000 A 
ATOM     17  C   UNL     1     -32.706  40.838 -14.948  0.00  0.00    +0.000 A 
ATOM     18  C   UNL     1     -32.888  42.188 -14.650  0.00  0.00    +0.000 A 
ENDBRANCH   9  13
BRANCH  11  19
ATOM     19  C   UNL     1     -34.893  45.249  -7.343  0.00  0.00    +0.000 A 
ATOM     20  C   UNL     1     -34.967  44.764  -6.037  0.00  0.00    +0.000 A 
ATOM     21  C   UNL     1     -33.895  44.947  -5.167  0.00  0.00    +0.000 A 
ATOM     22  C   UNL     1     -32.752  45.612  -5.602  0.00  0.00    +0.000 A 
ATOM     23  C   UNL     1     -32.677  46.094  -6.907  0.00  0.00    +0.000 A 
ATOM     24  C   UNL     1     -33.747  45.912  -7.780  0.00  0.00    +0.000 A 
ENDBRANCH  11  19
BRANCH   9  25
ATOM     25  O   UNL     1     -31.288  45.457 -15.346  0.00  0.00    +0.000 OA
ATOM     26  H   UNL     1     -30.767  45.896 -14.652  0.00  0.00    +0.000 HD
ENDBRANCH   9  25
TORSDOF 3
ENDMDL
MODEL 4
REMARK VINA RESULT:      -6.4     20.089     23.423
REMARK  Name = Lobelin.pdbqt.pdb
REMARK  3 active torsions:
REMARK  status: ('A' for Active; 'I' for Inactive)
REMARK    1  A    between atoms: C_9  and  O_10
REMARK    2  A    between atoms: C_9  and  C_12
REMARK    3  A    between atoms: C_19  and  C_21
REMARK                            x       y       z     vdW  Elec       q    Type
REMARK                         _______ _______ _______ _____ _____    ______ ____
ROOT
ATOM      1  N   UNL     1     -14.683  46.849   0.849  0.00  0.00    +0.000 N 
ATOM      2  C   UNL     1     -14.492  48.220   1.310  0.00  0.00    +0.000 C 
ATOM      3  C   UNL     1     -13.783  46.280  -0.150  0.00  0.00    +0.000 C 
ATOM      4  C   UNL     1     -13.366  48.891   0.742  0.00  0.00    +0.000 C 
ATOM      5  C   UNL     1     -12.730  47.148  -0.571  0.00  0.00    +0.000 C 
ATOM      6  C   UNL     1     -12.278  48.563  -0.264  0.00  0.00    +0.000 C 
ATOM      7  C   UNL     1     -15.837  46.093   1.285  0.00  0.00    +0.000 C 
ATOM      8  C   UNL     1     -15.352  48.835   2.260  0.00  0.00    +0.000 C 
ATOM      9  C   UNL     1     -16.200  49.434   3.227  0.00  0.00    +0.000 C 
ATOM     10  C   UNL     1     -13.941  44.962  -0.650  0.00  0.00    +0.000 C 
ATOM     11  C   UNL     1     -14.081  43.614  -1.133  0.00  0.00    +0.000 C 
ATOM     12  O   UNL     1     -13.117  42.863  -1.093  0.00  0.00    +0.000 OA
ENDROOT
BRANCH   9  13
ATOM     13  C   UNL     1     -16.348  48.954   4.602  0.00  0.00    +0.000 A 
ATOM     14  C   UNL     1     -16.668  49.836   5.638  0.00  0.00    +0.000 A 
ATOM     15  C   UNL     1     -16.810  49.380   6.947  0.00  0.00    +0.000 A 
ATOM     16  C   UNL     1     -16.634  48.031   7.235  0.00  0.00    +0.000 A 
ATOM     17  C   UNL     1     -16.314  47.139   6.216  0.00  0.00    +0.000 A 
ATOM     18  C   UNL     1     -16.173  47.601   4.908  0.00  0.00    +0.000 A 
ENDBRANCH   9  13
BRANCH  11  19
ATOM     19  C   UNL     1     -15.386  43.191  -1.671  0.00  0.00    +0.000 A 
ATOM     20  C   UNL     1     -16.298  44.121  -2.170  0.00  0.00    +0.000 A 
ATOM     21  C   UNL     1     -17.520  43.691  -2.678  0.00  0.00    +0.000 A 
ATOM     22  C   UNL     1     -17.831  42.333  -2.689  0.00  0.00    +0.000 A 
ATOM     23  C   UNL     1     -16.918  41.403  -2.193  0.00  0.00    +0.000 A 
ATOM     24  C   UNL     1     -15.694  41.831  -1.685  0.00  0.00    +0.000 A 
ENDBRANCH  11  19
BRANCH   9  25
ATOM     25  O   UNL     1     -16.934  50.543   2.874  0.00  0.00    +0.000 OA
ATOM     26  H   UNL     1     -17.040  50.615   1.910  0.00  0.00    +0.000 HD
ENDBRANCH   9  25
TORSDOF 3
ENDMDL
MODEL 5
REMARK VINA RESULT:      -6.4     23.747     26.789
REMARK  Name = Lobelin.pdbqt.pdb
REMARK  3 active torsions:
REMARK  status: ('A' for Active; 'I' for Inactive)
REMARK    1  A    between atoms: C_9  and  O_10
REMARK    2  A    between atoms: C_9  and  C_12
REMARK    3  A    between atoms: C_19  and  C_21
REMARK                            x       y       z     vdW  Elec       q    Type
REMARK                         _______ _______ _______ _____ _____    ______ ____
ROOT
ATOM      1  N   UNL     1     -17.135  50.519   6.384  0.00  0.00    +0.000 N 
ATOM      2  C   UNL     1     -16.768  49.880   5.125  0.00  0.00    +0.000 C 
ATOM      3  C   UNL     1     -17.079  49.764   7.632  0.00  0.00    +0.000 C 
ATOM      4  C   UNL     1     -16.331  48.525   5.246  0.00  0.00    +0.000 C 
ATOM      5  C   UNL     1     -16.613  48.421   7.499  0.00  0.00    +0.000 C 
ATOM      6  C   UNL     1     -16.153  47.520   6.369  0.00  0.00    +0.000 C 
ATOM      7  C   UNL     1     -17.674  51.861   6.383  0.00  0.00    +0.000 C 
ATOM      8  C   UNL     1     -16.828  50.557   3.876  0.00  0.00    +0.000 C 
ATOM      9  C   UNL     1     -16.867  51.247   2.637  0.00  0.00    +0.000 C 
ATOM     10  C   UNL     1     -17.450  50.330   8.878  0.00  0.00    +0.000 C 
ATOM     11  C   UNL     1     -17.795  50.915  10.147  0.00  0.00    +0.000 C 
ATOM     12  O   UNL     1     -17.000  50.842  11.073  0.00  0.00    +0.000 OA
ENDROOT
BRANCH   9  13
ATOM     13  C   UNL     1     -16.050  52.419   2.322  0.00  0.00    +0.000 A 
ATOM     14  C   UNL     1     -15.159  52.402   1.244  0.00  0.00    +0.000 A 
ATOM     15  C   UNL     1     -14.381  53.519   0.943  0.00  0.00    +0.000 A 
ATOM     16  C   UNL     1     -14.486  54.669   1.719  0.00  0.00    +0.000 A 
ATOM     17  C   UNL     1     -15.367  54.701   2.796  0.00  0.00    +0.000 A 
ATOM     18  C   UNL     1     -16.142  53.581   3.093  0.00  0.00    +0.000 A 
ENDBRANCH   9  13
BRANCH  11  19
ATOM     19  C   UNL     1     -19.106  51.573  10.286  0.00  0.00    +0.000 A 
ATOM     20  C   UNL     1     -19.396  52.757   9.606  0.00  0.00    +0.000 A 
ATOM     21  C   UNL     1     -20.647  53.351   9.753  0.00  0.00    +0.000 A 
ATOM     22  C   UNL     1     -21.606  52.764  10.575  0.00  0.00    +0.000 A 
ATOM     23  C   UNL     1     -21.316  51.580  11.250  0.00  0.00    +0.000 A 
ATOM     24  C   UNL     1     -20.066  50.983  11.106  0.00  0.00    +0.000 A 
ENDBRANCH  11  19
BRANCH   9  25
ATOM     25  O   UNL     1     -17.715  50.797   1.651  0.00  0.00    +0.000 OA
ATOM     26  H   UNL     1     -17.803  51.440   0.927  0.00  0.00    +0.000 HD
ENDBRANCH   9  25
TORSDOF 3
ENDMDL
MODEL 6
REMARK VINA RESULT:      -6.3      2.469      8.664
REMARK  Name = Lobelin.pdbqt.pdb
REMARK  3 active torsions:
REMARK  status: ('A' for Active; 'I' for Inactive)
REMARK    1  A    between atoms: C_9  and  O_10
REMARK    2  A    between atoms: C_9  and  C_12
REMARK    3  A    between atoms: C_19  and  C_21
REMARK                            x       y       z     vdW  Elec       q    Type
REMARK                         _______ _______ _______ _____ _____    ______ ____
ROOT
ATOM      1  N   UNL     1     -36.263  47.811 -14.419  0.00  0.00    +0.000 N 
ATOM      2  C   UNL     1     -36.230  48.696 -15.578  0.00  0.00    +0.000 C 
ATOM      3  C   UNL     1     -37.340  47.926 -13.440  0.00  0.00    +0.000 C 
ATOM      4  C   UNL     1     -37.327  49.607 -15.667  0.00  0.00    +0.000 C 
ATOM      5  C   UNL     1     -38.324  48.916 -13.746  0.00  0.00    +0.000 C 
ATOM      6  C   UNL     1     -38.561  49.932 -14.846  0.00  0.00    +0.000 C 
ATOM      7  C   UNL     1     -35.165  46.904 -14.170  0.00  0.00    +0.000 C 
ATOM      8  C   UNL     1     -35.193  48.649 -16.549  0.00  0.00    +0.000 C 
ATOM      9  C   UNL     1     -34.168  48.578 -17.527  0.00  0.00    +0.000 C 
ATOM     10  C   UNL     1     -37.405  47.108 -12.283  0.00  0.00    +0.000 C 
ATOM     11  C   UNL     1     -37.488  46.255 -11.127  0.00  0.00    +0.000 C 
ATOM     12  O   UNL     1     -38.523  45.641 -10.912  0.00  0.00    +0.000 OA
ENDROOT
BRANCH   9  13
ATOM     13  C   UNL     1     -33.912  47.408 -18.368  0.00  0.00    +0.000 A 
ATOM     14  C   UNL     1     -33.122  46.352 -17.905  0.00  0.00    +0.000 A 
ATOM     15  C   UNL     1     -32.878  45.237 -18.705  0.00  0.00    +0.000 A 
ATOM     16  C   UNL     1     -33.425  45.166 -19.983  0.00  0.00    +0.000 A 
ATOM     17  C   UNL     1     -34.213  46.210 -20.459  0.00  0.00    +0.000 A 
ATOM     18  C   UNL     1     -34.452  47.322 -19.654  0.00  0.00    +0.000 A 
ENDBRANCH   9  13
BRANCH  11  19
ATOM     19  C   UNL     1     -36.319  46.162 -10.236  0.00  0.00    +0.000 A 
ATOM     20  C   UNL     1     -35.217  45.373 -10.566  0.00  0.00    +0.000 A 
ATOM     21  C   UNL     1     -34.124  45.311  -9.706  0.00  0.00    +0.000 A 
ATOM     22  C   UNL     1     -34.131  46.038  -8.518  0.00  0.00    +0.000 A 
ATOM     23  C   UNL     1     -35.231  46.830  -8.189  0.00  0.00    +0.000 A 
ATOM     24  C   UNL     1     -36.325  46.893  -9.048  0.00  0.00    +0.000 A 
ENDBRANCH  11  19
BRANCH   9  25
ATOM     25  O   UNL     1     -33.353  49.671 -17.718  0.00  0.00    +0.000 OA
ATOM     26  H   UNL     1     -33.863  50.495 -17.792  0.00  0.00    +0.000 HD
ENDBRANCH   9  25
TORSDOF 3
ENDMDL
MODEL 7
REMARK VINA RESULT:      -6.2      2.764      7.795
REMARK  Name = Lobelin.pdbqt.pdb
REMARK  3 active torsions:
REMARK  status: ('A' for Active; 'I' for Inactive)
REMARK    1  A    between atoms: C_9  and  O_10
REMARK    2  A    between atoms: C_9  and  C_12
REMARK    3  A    between atoms: C_19  and  C_21
REMARK                            x       y       z     vdW  Elec       q    Type
REMARK                         _______ _______ _______ _____ _____    ______ ____
ROOT
ATOM      1  N   UNL     1     -33.560  45.200 -14.278  0.00  0.00    +0.000 N 
ATOM      2  C   UNL     1     -32.674  45.284 -15.434  0.00  0.00    +0.000 C 
ATOM      3  C   UNL     1     -34.720  46.081 -14.178  0.00  0.00    +0.000 C 
ATOM      4  C   UNL     1     -33.068  46.238 -16.422  0.00  0.00    +0.000 C 
ATOM      5  C   UNL     1     -34.905  46.955 -15.293  0.00  0.00    +0.000 C 
ATOM      6  C   UNL     1     -34.192  47.242 -16.600  0.00  0.00    +0.000 C 
ATOM      7  C   UNL     1     -33.222  44.334 -13.170  0.00  0.00    +0.000 C 
ATOM      8  C   UNL     1     -31.516  44.472 -15.573  0.00  0.00    +0.000 C 
ATOM      9  C   UNL     1     -30.376  43.639 -15.715  0.00  0.00    +0.000 C 
ATOM     10  C   UNL     1     -35.596  46.058 -13.064  0.00  0.00    +0.000 C 
ATOM     11  C   UNL     1     -36.505  46.010 -11.948  0.00  0.00    +0.000 C 
ATOM     12  O   UNL     1     -37.702  45.883 -12.159  0.00  0.00    +0.000 OA
ENDROOT
BRANCH   9  13
ATOM     13  C   UNL     1     -30.429  42.180 -15.817  0.00  0.00    +0.000 A 
ATOM     14  C   UNL     1     -31.634  41.494 -15.640  0.00  0.00    +0.000 A 
ATOM     15  C   UNL     1     -31.686  40.104 -15.737  0.00  0.00    +0.000 A 
ATOM     16  C   UNL     1     -30.528  39.384 -16.013  0.00  0.00    +0.000 A 
ATOM     17  C   UNL     1     -29.320  40.052 -16.190  0.00  0.00    +0.000 A 
ATOM     18  C   UNL     1     -29.275  41.441 -16.092  0.00  0.00    +0.000 A 
ENDBRANCH   9  13
BRANCH  11  19
ATOM     19  C   UNL     1     -35.954  46.131 -10.587  0.00  0.00    +0.000 A 
ATOM     20  C   UNL     1     -34.768  45.490 -10.227  0.00  0.00    +0.000 A 
ATOM     21  C   UNL     1     -34.270  45.629  -8.935  0.00  0.00    +0.000 A 
ATOM     22  C   UNL     1     -34.954  46.407  -8.004  0.00  0.00    +0.000 A 
ATOM     23  C   UNL     1     -36.137  47.049  -8.365  0.00  0.00    +0.000 A 
ATOM     24  C   UNL     1     -36.638  46.913  -9.657  0.00  0.00    +0.000 A 
ENDBRANCH  11  19
BRANCH   9  25
ATOM     25  O   UNL     1     -29.130  44.221 -15.771  0.00  0.00    +0.000 OA
ATOM     26  H   UNL     1     -28.471  43.630 -16.172  0.00  0.00    +0.000 HD
ENDBRANCH   9  25
TORSDOF 3
ENDMDL
MODEL 8
REMARK VINA RESULT:      -6.2     23.520     27.129
REMARK  Name = Lobelin.pdbqt.pdb
REMARK  3 active torsions:
REMARK  status: ('A' for Active; 'I' for Inactive)
REMARK    1  A    between atoms: C_9  and  O_10
REMARK    2  A    between atoms: C_9  and  C_12
REMARK    3  A    between atoms: C_19  and  C_21
REMARK                            x       y       z     vdW  Elec       q    Type
REMARK                         _______ _______ _______ _____ _____    ______ ____
ROOT
ATOM      1  N   UNL     1     -17.360  55.996 -27.808  0.00  0.00    +0.000 N 
ATOM      2  C   UNL     1     -18.167  56.305 -28.983  0.00  0.00    +0.000 C 
ATOM      3  C   UNL     1     -17.305  54.630 -27.296  0.00  0.00    +0.000 C 
ATOM      4  C   UNL     1     -18.826  55.182 -29.570  0.00  0.00    +0.000 C 
ATOM      5  C   UNL     1     -18.052  53.676 -28.053  0.00  0.00    +0.000 C 
ATOM      6  C   UNL     1     -18.936  53.695 -29.286  0.00  0.00    +0.000 C 
ATOM      7  C   UNL     1     -16.713  57.061 -27.074  0.00  0.00    +0.000 C 
ATOM      8  C   UNL     1     -18.280  57.620 -29.510  0.00  0.00    +0.000 C 
ATOM      9  C   UNL     1     -18.366  58.932 -30.045  0.00  0.00    +0.000 C 
ATOM     10  C   UNL     1     -16.557  54.281 -26.143  0.00  0.00    +0.000 C 
ATOM     11  C   UNL     1     -15.771  53.922 -24.992  0.00  0.00    +0.000 C 
ATOM     12  O   UNL     1     -14.970  53.002 -25.081  0.00  0.00    +0.000 OA
ENDROOT
BRANCH   9  13
ATOM     13  C   UNL     1     -17.229  59.678 -30.586  0.00  0.00    +0.000 A 
ATOM     14  C   UNL     1     -17.428  60.759 -31.449  0.00  0.00    +0.000 A 
ATOM     15  C   UNL     1     -16.345  61.470 -31.964  0.00  0.00    +0.000 A 
ATOM     16  C   UNL     1     -15.047  61.106 -31.619  0.00  0.00    +0.000 A 
ATOM     17  C   UNL     1     -14.833  60.031 -30.762  0.00  0.00    +0.000 A 
ATOM     18  C   UNL     1     -15.919  59.323 -30.251  0.00  0.00    +0.000 A 
ENDBRANCH   9  13
BRANCH  11  19
ATOM     19  C   UNL     1     -15.971  54.673 -23.741  0.00  0.00    +0.000 A 
ATOM     20  C   UNL     1     -16.607  55.914 -23.737  0.00  0.00    +0.000 A 
ATOM     21  C   UNL     1     -16.787  56.597 -22.537  0.00  0.00    +0.000 A 
ATOM     22  C   UNL     1     -16.334  56.040 -21.343  0.00  0.00    +0.000 A 
ATOM     23  C   UNL     1     -15.701  54.798 -21.348  0.00  0.00    +0.000 A 
ATOM     24  C   UNL     1     -15.519  54.113 -22.546  0.00  0.00    +0.000 A 
ENDBRANCH  11  19
BRANCH   9  25
ATOM     25  O   UNL     1     -19.591  59.559 -30.074  0.00  0.00    +0.000 OA
ATOM     26  H   UNL     1     -20.155  59.221 -30.790  0.00  0.00    +0.000 HD
ENDBRANCH   9  25
TORSDOF 3
ENDMDL
MODEL 9
REMARK VINA RESULT:      -6.2     24.045     25.486
REMARK  Name = Lobelin.pdbqt.pdb
REMARK  3 active torsions:
REMARK  status: ('A' for Active; 'I' for Inactive)
REMARK    1  A    between atoms: C_9  and  O_10
REMARK    2  A    between atoms: C_9  and  C_12
REMARK    3  A    between atoms: C_19  and  C_21
REMARK                            x       y       z     vdW  Elec       q    Type
REMARK                         _______ _______ _______ _____ _____    ______ ____
ROOT
ATOM      1  N   UNL     1     -17.310  51.363   6.012  0.00  0.00    +0.000 N 
ATOM      2  C   UNL     1     -17.499  51.013   7.415  0.00  0.00    +0.000 C 
ATOM      3  C   UNL     1     -16.619  50.443   5.113  0.00  0.00    +0.000 C 
ATOM      4  C   UNL     1     -17.002  49.725   7.783  0.00  0.00    +0.000 C 
ATOM      5  C   UNL     1     -16.210  49.213   5.715  0.00  0.00    +0.000 C 
ATOM      6  C   UNL     1     -16.286  48.579   7.091  0.00  0.00    +0.000 C 
ATOM      7  C   UNL     1     -17.693  52.674   5.536  0.00  0.00    +0.000 C 
ATOM      8  C   UNL     1     -18.140  51.879   8.342  0.00  0.00    +0.000 C 
ATOM      9  C   UNL     1     -18.803  52.740   9.255  0.00  0.00    +0.000 C 
ATOM     10  C   UNL     1     -16.386  50.746   3.748  0.00  0.00    +0.000 C 
ATOM     11  C   UNL     1     -16.180  51.041   2.355  0.00  0.00    +0.000 C 
ATOM     12  O   UNL     1     -16.539  50.229   1.514  0.00  0.00    +0.000 OA
ENDROOT
BRANCH   9  13
ATOM     13  C   UNL     1     -20.202  53.151   9.131  0.00  0.00    +0.000 A 
ATOM     14  C   UNL     1     -20.640  53.874   8.018  0.00  0.00    +0.000 A 
ATOM     15  C   UNL     1     -21.973  54.265   7.899  0.00  0.00    +0.000 A 
ATOM     16  C   UNL     1     -22.885  53.935   8.897  0.00  0.00    +0.000 A 
ATOM     17  C   UNL     1     -22.464  53.217  10.012  0.00  0.00    +0.000 A 
ATOM     18  C   UNL     1     -21.130  52.829  10.126  0.00  0.00    +0.000 A 
ENDBRANCH   9  13
BRANCH  11  19
ATOM     19  C   UNL     1     -15.530  52.312   1.993  0.00  0.00    +0.000 A 
ATOM     20  C   UNL     1     -14.814  52.446   0.803  0.00  0.00    +0.000 A 
ATOM     21  C   UNL     1     -14.216  53.663   0.486  0.00  0.00    +0.000 A 
ATOM     22  C   UNL     1     -14.335  54.745   1.356  0.00  0.00    +0.000 A 
ATOM     23  C   UNL     1     -15.053  54.612   2.543  0.00  0.00    +0.000 A 
ATOM     24  C   UNL     1     -15.652  53.396   2.862  0.00  0.00    +0.000 A 
ENDBRANCH  11  19
BRANCH   9  25
ATOM     25  O   UNL     1     -18.106  53.226  10.337  0.00  0.00    +0.000 OA
ATOM     26  H   UNL     1     -18.224  54.185  10.444  0.00  0.00    +0.000 HD
ENDBRANCH   9  25
TORSDOF 3
ENDMDL
