MODEL 1
REMARK VINA RESULT:      -5.8      0.000      0.000
REMARK  Name = LUCANTHONE.pdbqt.pdb
REMARK  5 active torsions:
REMARK  status: ('A' for Active; 'I' for Inactive)
REMARK    1  A    between atoms: C_3  and  N_17
REMARK    2  A    between atoms: N_17  and  C_19
REMARK    3  A    between atoms: C_20  and  N_21
REMARK    4  A    between atoms: N_21  and  C_22
REMARK    5  A    between atoms: N_21  and  C_24
REMARK                            x       y       z     vdW  Elec       q    Type
REMARK                         _______ _______ _______ _____ _____    ______ ____
ROOT
ATOM      1  S   UNL     1     -32.562  45.791 -17.553  0.00  0.00    +0.000 S 
ATOM      2  O   UNL     1     -32.258  42.613 -14.619  0.00  0.00    +0.000 OA
ATOM      3  C   UNL     1     -33.571  44.884 -13.649  0.00  0.00    +0.000 A 
ATOM      4  C   UNL     1     -32.996  44.824 -14.950  0.00  0.00    +0.000 A 
ATOM      5  C   UNL     1     -33.225  45.853 -15.887  0.00  0.00    +0.000 A 
ATOM      6  C   UNL     1     -34.031  46.948 -15.495  0.00  0.00    +0.000 A 
ATOM      7  C   UNL     1     -32.165  43.635 -15.298  0.00  0.00    +0.000 A 
ATOM      8  C   UNL     1     -34.337  46.003 -13.306  0.00  0.00    +0.000 A 
ATOM      9  C   UNL     1     -31.209  43.649 -16.414  0.00  0.00    +0.000 A 
ATOM     10  C   UNL     1     -34.578  47.017 -14.218  0.00  0.00    +0.000 A 
ATOM     11  C   UNL     1     -31.288  44.581 -17.438  0.00  0.00    +0.000 A 
ATOM     12  C   UNL     1     -34.355  48.116 -16.402  0.00  0.00    +0.000 C 
ATOM     13  C   UNL     1     -30.207  42.673 -16.423  0.00  0.00    +0.000 A 
ATOM     14  C   UNL     1     -30.348  44.531 -18.470  0.00  0.00    +0.000 A 
ATOM     15  C   UNL     1     -29.270  42.636 -17.452  0.00  0.00    +0.000 A 
ATOM     16  C   UNL     1     -29.339  43.570 -18.478  0.00  0.00    +0.000 A 
ENDROOT
BRANCH   3  17
ATOM     17  N   UNL     1     -33.256  43.929 -12.647  0.00  0.00    +0.000 N 
ATOM     18  H   UNL     1     -33.294  42.968 -13.019  0.00  0.00    +0.000 HD
BRANCH  17  19
ATOM     19  C   UNL     1     -33.754  44.120 -11.295  0.00  0.00    +0.000 C 
ATOM     20  C   UNL     1     -34.280  44.320  -9.870  0.00  0.00    +0.000 C 
BRANCH  20  21
ATOM     21  N   UNL     1     -34.787  44.519  -8.522  0.00  0.00    +0.000 N 
BRANCH  21  22
ATOM     22  C   UNL     1     -35.537  45.762  -8.522  0.00  0.00    +0.000 C 
ATOM     23  C   UNL     1     -36.333  47.070  -8.509  0.00  0.00    +0.000 C 
ENDBRANCH  21  22
BRANCH  21  24
ATOM     24  C   UNL     1     -33.640  44.732  -7.661  0.00  0.00    +0.000 C 
ATOM     25  C   UNL     1     -32.427  44.936  -6.748  0.00  0.00    +0.000 C 
ENDBRANCH  21  24
ENDBRANCH  20  21
ENDBRANCH  17  19
ENDBRANCH   3  17
TORSDOF 5
ENDMDL
MODEL 2
REMARK VINA RESULT:      -5.4     23.464     25.837
REMARK  Name = LUCANTHONE.pdbqt.pdb
REMARK  5 active torsions:
REMARK  status: ('A' for Active; 'I' for Inactive)
REMARK    1  A    between atoms: C_3  and  N_17
REMARK    2  A    between atoms: N_17  and  C_19
REMARK    3  A    between atoms: C_20  and  N_21
REMARK    4  A    between atoms: N_21  and  C_22
REMARK    5  A    between atoms: N_21  and  C_24
REMARK                            x       y       z     vdW  Elec       q    Type
REMARK                         _______ _______ _______ _____ _____    ______ ____
ROOT
ATOM      1  S   UNL     1     -16.118  47.901   5.994  0.00  0.00    +0.000 S 
ATOM      2  O   UNL     1     -16.218  50.691   2.676  0.00  0.00    +0.000 OA
ATOM      3  C   UNL     1     -17.289  51.747   5.034  0.00  0.00    +0.000 A 
ATOM      4  C   UNL     1     -16.835  50.402   4.930  0.00  0.00    +0.000 A 
ATOM      5  C   UNL     1     -16.733  49.585   6.075  0.00  0.00    +0.000 A 
ATOM      6  C   UNL     1     -17.103  50.135   7.325  0.00  0.00    +0.000 A 
ATOM      7  C   UNL     1     -16.452  49.891   3.581  0.00  0.00    +0.000 A 
ATOM      8  C   UNL     1     -17.668  52.231   6.292  0.00  0.00    +0.000 A 
ATOM      9  C   UNL     1     -16.372  48.454   3.284  0.00  0.00    +0.000 A 
ATOM     10  C   UNL     1     -17.565  51.443   7.426  0.00  0.00    +0.000 A 
ATOM     11  C   UNL     1     -16.253  47.502   4.285  0.00  0.00    +0.000 A 
ATOM     12  C   UNL     1     -17.042  49.367   8.628  0.00  0.00    +0.000 C 
ATOM     13  C   UNL     1     -16.406  48.066   1.940  0.00  0.00    +0.000 A 
ATOM     14  C   UNL     1     -16.176  46.153   3.927  0.00  0.00    +0.000 A 
ATOM     15  C   UNL     1     -16.336  46.721   1.594  0.00  0.00    +0.000 A 
ATOM     16  C   UNL     1     -16.224  45.759   2.592  0.00  0.00    +0.000 A 
ENDROOT
BRANCH   3  17
ATOM     17  N   UNL     1     -17.521  52.550   3.887  0.00  0.00    +0.000 N 
ATOM     18  H   UNL     1     -17.409  52.005   3.019  0.00  0.00    +0.000 HD
BRANCH  17  19
ATOM     19  C   UNL     1     -17.030  53.917   3.860  0.00  0.00    +0.000 C 
ATOM     20  C   UNL     1     -16.515  55.360   3.830  0.00  0.00    +0.000 C 
BRANCH  20  21
ATOM     21  N   UNL     1     -16.033  56.732   3.794  0.00  0.00    +0.000 N 
BRANCH  21  22
ATOM     22  C   UNL     1     -17.185  57.598   3.965  0.00  0.00    +0.000 C 
ATOM     23  C   UNL     1     -18.399  58.517   4.131  0.00  0.00    +0.000 C 
ENDBRANCH  21  22
BRANCH  21  24
ATOM     24  C   UNL     1     -15.532  56.973   2.455  0.00  0.00    +0.000 C 
ATOM     25  C   UNL     1     -14.984  57.226   1.047  0.00  0.00    +0.000 C 
ENDBRANCH  21  24
ENDBRANCH  20  21
ENDBRANCH  17  19
ENDBRANCH   3  17
TORSDOF 5
ENDMDL
MODEL 3
REMARK VINA RESULT:      -5.4      1.988      4.262
REMARK  Name = LUCANTHONE.pdbqt.pdb
REMARK  5 active torsions:
REMARK  status: ('A' for Active; 'I' for Inactive)
REMARK    1  A    between atoms: C_3  and  N_17
REMARK    2  A    between atoms: N_17  and  C_19
REMARK    3  A    between atoms: C_20  and  N_21
REMARK    4  A    between atoms: N_21  and  C_22
REMARK    5  A    between atoms: N_21  and  C_24
REMARK                            x       y       z     vdW  Elec       q    Type
REMARK                         _______ _______ _______ _____ _____    ______ ____
ROOT
ATOM      1  S   UNL     1     -32.583  45.539 -18.271  0.00  0.00    +0.000 S 
ATOM      2  O   UNL     1     -33.662  47.591 -14.607  0.00  0.00    +0.000 OA
ATOM      3  C   UNL     1     -33.213  44.854 -14.245  0.00  0.00    +0.000 A 
ATOM      4  C   UNL     1     -33.166  45.479 -15.523  0.00  0.00    +0.000 A 
ATOM      5  C   UNL     1     -32.705  44.773 -16.653  0.00  0.00    +0.000 A 
ATOM      6  C   UNL     1     -32.302  43.428 -16.484  0.00  0.00    +0.000 A 
ATOM      7  C   UNL     1     -33.598  46.904 -15.625  0.00  0.00    +0.000 A 
ATOM      8  C   UNL     1     -32.828  43.513 -14.140  0.00  0.00    +0.000 A 
ATOM      9  C   UNL     1     -33.981  47.513 -16.906  0.00  0.00    +0.000 A 
ATOM     10  C   UNL     1     -32.365  42.810 -15.239  0.00  0.00    +0.000 A 
ATOM     11  C   UNL     1     -33.604  46.966 -18.123  0.00  0.00    +0.000 A 
ATOM     12  C   UNL     1     -31.789  42.559 -17.613  0.00  0.00    +0.000 C 
ATOM     13  C   UNL     1     -34.739  48.689 -16.865  0.00  0.00    +0.000 A 
ATOM     14  C   UNL     1     -34.000  47.603 -19.302  0.00  0.00    +0.000 A 
ATOM     15  C   UNL     1     -35.135  49.312 -18.044  0.00  0.00    +0.000 A 
ATOM     16  C   UNL     1     -34.767  48.766 -19.268  0.00  0.00    +0.000 A 
ENDROOT
BRANCH   3  17
ATOM     17  N   UNL     1     -33.789  45.497 -13.117  0.00  0.00    +0.000 N 
ATOM     18  H   UNL     1     -33.784  46.522 -13.228  0.00  0.00    +0.000 HD
BRANCH  17  19
ATOM     19  C   UNL     1     -33.512  44.989 -11.784  0.00  0.00    +0.000 C 
ATOM     20  C   UNL     1     -33.217  44.453 -10.379  0.00  0.00    +0.000 C 
BRANCH  20  21
ATOM     21  N   UNL     1     -32.933  43.935  -9.051  0.00  0.00    +0.000 N 
BRANCH  21  22
ATOM     22  C   UNL     1     -33.906  42.895  -8.776  0.00  0.00    +0.000 C 
ATOM     23  C   UNL     1     -34.944  41.808  -8.483  0.00  0.00    +0.000 C 
ENDBRANCH  21  22
BRANCH  21  24
ATOM     24  C   UNL     1     -33.198  45.006  -8.110  0.00  0.00    +0.000 C 
ATOM     25  C   UNL     1     -33.483  46.150  -7.131  0.00  0.00    +0.000 C 
ENDBRANCH  21  24
ENDBRANCH  20  21
ENDBRANCH  17  19
ENDBRANCH   3  17
TORSDOF 5
ENDMDL
MODEL 4
REMARK VINA RESULT:      -5.4      3.361      7.720
REMARK  Name = LUCANTHONE.pdbqt.pdb
REMARK  5 active torsions:
REMARK  status: ('A' for Active; 'I' for Inactive)
REMARK    1  A    between atoms: C_3  and  N_17
REMARK    2  A    between atoms: N_17  and  C_19
REMARK    3  A    between atoms: C_20  and  N_21
REMARK    4  A    between atoms: N_21  and  C_22
REMARK    5  A    between atoms: N_21  and  C_24
REMARK                            x       y       z     vdW  Elec       q    Type
REMARK                         _______ _______ _______ _____ _____    ______ ____
ROOT
ATOM      1  S   UNL     1     -36.352  49.176 -15.320  0.00  0.00    +0.000 S 
ATOM      2  O   UNL     1     -34.100  46.104 -13.248  0.00  0.00    +0.000 OA
ATOM      3  C   UNL     1     -33.408  46.343 -15.947  0.00  0.00    +0.000 A 
ATOM      4  C   UNL     1     -34.451  47.105 -15.349  0.00  0.00    +0.000 A 
ATOM      5  C   UNL     1     -35.068  48.159 -16.055  0.00  0.00    +0.000 A 
ATOM      6  C   UNL     1     -34.630  48.431 -17.372  0.00  0.00    +0.000 A 
ATOM      7  C   UNL     1     -34.856  46.770 -13.953  0.00  0.00    +0.000 A 
ATOM      8  C   UNL     1     -33.032  46.637 -17.263  0.00  0.00    +0.000 A 
ATOM      9  C   UNL     1     -36.151  47.184 -13.394  0.00  0.00    +0.000 A 
ATOM     10  C   UNL     1     -33.623  47.675 -17.964  0.00  0.00    +0.000 A 
ATOM     11  C   UNL     1     -36.895  48.215 -13.948  0.00  0.00    +0.000 A 
ATOM     12  C   UNL     1     -35.207  49.531 -18.237  0.00  0.00    +0.000 C 
ATOM     13  C   UNL     1     -36.615  46.507 -12.261  0.00  0.00    +0.000 A 
ATOM     14  C   UNL     1     -38.114  48.559 -13.360  0.00  0.00    +0.000 A 
ATOM     15  C   UNL     1     -37.835  46.852 -11.687  0.00  0.00    +0.000 A 
ATOM     16  C   UNL     1     -38.589  47.880 -12.240  0.00  0.00    +0.000 A 
ENDROOT
BRANCH   3  17
ATOM     17  N   UNL     1     -32.857  45.200 -15.311  0.00  0.00    +0.000 N 
ATOM     18  H   UNL     1     -32.948  45.261 -14.286  0.00  0.00    +0.000 HD
BRANCH  17  19
ATOM     19  C   UNL     1     -31.623  44.624 -15.818  0.00  0.00    +0.000 C 
ATOM     20  C   UNL     1     -30.321  44.018 -16.353  0.00  0.00    +0.000 C 
BRANCH  20  21
ATOM     21  N   UNL     1     -29.088  43.448 -16.871  0.00  0.00    +0.000 N 
BRANCH  21  22
ATOM     22  C   UNL     1     -29.209  43.401 -18.317  0.00  0.00    +0.000 C 
ATOM     23  C   UNL     1     -29.351  43.347 -19.841  0.00  0.00    +0.000 C 
ENDBRANCH  21  22
BRANCH  21  24
ATOM     24  C   UNL     1     -29.031  42.071 -16.418  0.00  0.00    +0.000 C 
ATOM     25  C   UNL     1     -28.965  40.611 -15.959  0.00  0.00    +0.000 C 
ENDBRANCH  21  24
ENDBRANCH  20  21
ENDBRANCH  17  19
ENDBRANCH   3  17
TORSDOF 5
ENDMDL
MODEL 5
REMARK VINA RESULT:      -5.3      4.611      7.984
REMARK  Name = LUCANTHONE.pdbqt.pdb
REMARK  5 active torsions:
REMARK  status: ('A' for Active; 'I' for Inactive)
REMARK    1  A    between atoms: C_3  and  N_17
REMARK    2  A    between atoms: N_17  and  C_19
REMARK    3  A    between atoms: C_20  and  N_21
REMARK    4  A    between atoms: N_21  and  C_22
REMARK    5  A    between atoms: N_21  and  C_24
REMARK                            x       y       z     vdW  Elec       q    Type
REMARK                         _______ _______ _______ _____ _____    ______ ____
ROOT
ATOM      1  S   UNL     1     -33.622  45.378 -14.517  0.00  0.00    +0.000 S 
ATOM      2  O   UNL     1     -32.899  47.725 -18.091  0.00  0.00    +0.000 OA
ATOM      3  C   UNL     1     -35.069  48.649 -16.588  0.00  0.00    +0.000 A 
ATOM      4  C   UNL     1     -34.337  47.479 -16.243  0.00  0.00    +0.000 A 
ATOM      5  C   UNL     1     -34.559  46.827 -15.012  0.00  0.00    +0.000 A 
ATOM      6  C   UNL     1     -35.534  47.362 -14.137  0.00  0.00    +0.000 A 
ATOM      7  C   UNL     1     -33.318  46.976 -17.209  0.00  0.00    +0.000 A 
ATOM      8  C   UNL     1     -36.041  49.120 -15.697  0.00  0.00    +0.000 A 
ATOM      9  C   UNL     1     -32.813  45.597 -17.165  0.00  0.00    +0.000 A 
ATOM     10  C   UNL     1     -36.263  48.495 -14.481  0.00  0.00    +0.000 A 
ATOM     11  C   UNL     1     -32.929  44.807 -16.031  0.00  0.00    +0.000 A 
ATOM     12  C   UNL     1     -35.869  46.761 -12.789  0.00  0.00    +0.000 C 
ATOM     13  C   UNL     1     -32.189  45.096 -18.313  0.00  0.00    +0.000 A 
ATOM     14  C   UNL     1     -32.421  43.506 -16.059  0.00  0.00    +0.000 A 
ATOM     15  C   UNL     1     -31.692  43.797 -18.334  0.00  0.00    +0.000 A 
ATOM     16  C   UNL     1     -31.810  42.997 -17.203  0.00  0.00    +0.000 A 
ENDROOT
BRANCH   3  17
ATOM     17  N   UNL     1     -34.958  49.252 -17.868  0.00  0.00    +0.000 N 
ATOM     18  H   UNL     1     -34.008  49.621 -18.028  0.00  0.00    +0.000 HD
BRANCH  17  19
ATOM     19  C   UNL     1     -36.057  50.052 -18.381  0.00  0.00    +0.000 C 
ATOM     20  C   UNL     1     -37.217  50.895 -18.921  0.00  0.00    +0.000 C 
BRANCH  20  21
ATOM     21  N   UNL     1     -38.323  51.685 -19.437  0.00  0.00    +0.000 N 
BRANCH  21  22
ATOM     22  C   UNL     1     -37.914  52.210 -20.727  0.00  0.00    +0.000 C 
ATOM     23  C   UNL     1     -37.492  52.775 -22.086  0.00  0.00    +0.000 C 
ENDBRANCH  21  22
BRANCH  21  24
ATOM     24  C   UNL     1     -38.478  52.828 -18.558  0.00  0.00    +0.000 C 
ATOM     25  C   UNL     1     -38.637  54.048 -17.646  0.00  0.00    +0.000 C 
ENDBRANCH  21  24
ENDBRANCH  20  21
ENDBRANCH  17  19
ENDBRANCH   3  17
TORSDOF 5
ENDMDL
MODEL 6
REMARK VINA RESULT:      -5.3     18.427     21.540
REMARK  Name = LUCANTHONE.pdbqt.pdb
REMARK  5 active torsions:
REMARK  status: ('A' for Active; 'I' for Inactive)
REMARK    1  A    between atoms: C_3  and  N_17
REMARK    2  A    between atoms: N_17  and  C_19
REMARK    3  A    between atoms: C_20  and  N_21
REMARK    4  A    between atoms: N_21  and  C_22
REMARK    5  A    between atoms: N_21  and  C_24
REMARK                            x       y       z     vdW  Elec       q    Type
REMARK                         _______ _______ _______ _____ _____    ______ ____
ROOT
ATOM      1  S   UNL     1     -16.146  54.782 -26.172  0.00  0.00    +0.000 S 
ATOM      2  O   UNL     1     -14.750  52.944 -22.502  0.00  0.00    +0.000 OA
ATOM      3  C   UNL     1     -15.302  51.089 -24.521  0.00  0.00    +0.000 A 
ATOM      4  C   UNL     1     -15.537  52.485 -24.673  0.00  0.00    +0.000 A 
ATOM      5  C   UNL     1     -15.891  53.023 -25.927  0.00  0.00    +0.000 A 
ATOM      6  C   UNL     1     -16.015  52.139 -27.025  0.00  0.00    +0.000 A 
ATOM      7  C   UNL     1     -15.379  53.359 -23.475  0.00  0.00    +0.000 A 
ATOM      8  C   UNL     1     -15.466  50.256 -25.634  0.00  0.00    +0.000 A 
ATOM      9  C   UNL     1     -15.976  54.699 -23.401  0.00  0.00    +0.000 A 
ATOM     10  C   UNL     1     -15.804  50.772 -26.874  0.00  0.00    +0.000 A 
ATOM     11  C   UNL     1     -16.373  55.391 -24.536  0.00  0.00    +0.000 A 
ATOM     12  C   UNL     1     -16.388  52.586 -28.422  0.00  0.00    +0.000 C 
ATOM     13  C   UNL     1     -16.126  55.275 -22.135  0.00  0.00    +0.000 A 
ATOM     14  C   UNL     1     -16.929  56.664 -24.391  0.00  0.00    +0.000 A 
ATOM     15  C   UNL     1     -16.688  56.541 -22.000  0.00  0.00    +0.000 A 
ATOM     16  C   UNL     1     -17.093  57.238 -23.132  0.00  0.00    +0.000 A 
ENDROOT
BRANCH   3  17
ATOM     17  N   UNL     1     -15.069  50.503 -23.249  0.00  0.00    +0.000 N 
ATOM     18  H   UNL     1     -14.193  50.851 -22.831  0.00  0.00    +0.000 HD
BRANCH  17  19
ATOM     19  C   UNL     1     -15.370  49.096 -23.043  0.00  0.00    +0.000 C 
ATOM     20  C   UNL     1     -15.687  47.613 -22.827  0.00  0.00    +0.000 C 
BRANCH  20  21
ATOM     21  N   UNL     1     -15.995  46.205 -22.632  0.00  0.00    +0.000 N 
BRANCH  21  22
ATOM     22  C   UNL     1     -17.236  45.934 -23.333  0.00  0.00    +0.000 C 
ATOM     23  C   UNL     1     -18.544  45.661 -24.081  0.00  0.00    +0.000 C 
ENDBRANCH  21  22
BRANCH  21  24
ATOM     24  C   UNL     1     -16.271  46.021 -21.220  0.00  0.00    +0.000 C 
ATOM     25  C   UNL     1     -16.544  45.817 -19.726  0.00  0.00    +0.000 C 
ENDBRANCH  21  24
ENDBRANCH  20  21
ENDBRANCH  17  19
ENDBRANCH   3  17
TORSDOF 5
ENDMDL
MODEL 7
REMARK VINA RESULT:      -5.2      2.990      5.406
REMARK  Name = LUCANTHONE.pdbqt.pdb
REMARK  5 active torsions:
REMARK  status: ('A' for Active; 'I' for Inactive)
REMARK    1  A    between atoms: C_3  and  N_17
REMARK    2  A    between atoms: N_17  and  C_19
REMARK    3  A    between atoms: C_20  and  N_21
REMARK    4  A    between atoms: N_21  and  C_22
REMARK    5  A    between atoms: N_21  and  C_24
REMARK                            x       y       z     vdW  Elec       q    Type
REMARK                         _______ _______ _______ _____ _____    ______ ____
ROOT
ATOM      1  S   UNL     1     -36.731  46.163 -12.778  0.00  0.00    +0.000 S 
ATOM      2  O   UNL     1     -33.535  44.204 -10.601  0.00  0.00    +0.000 OA
ATOM      3  C   UNL     1     -35.051  45.932  -9.009  0.00  0.00    +0.000 A 
ATOM      4  C   UNL     1     -35.270  45.783 -10.407  0.00  0.00    +0.000 A 
ATOM      5  C   UNL     1     -36.393  46.369 -11.028  0.00  0.00    +0.000 A 
ATOM      6  C   UNL     1     -37.288  47.115 -10.225  0.00  0.00    +0.000 A 
ATOM      7  C   UNL     1     -34.290  44.975 -11.190  0.00  0.00    +0.000 A 
ATOM      8  C   UNL     1     -35.954  46.703  -8.268  0.00  0.00    +0.000 A 
ATOM      9  C   UNL     1     -34.173  45.089 -12.651  0.00  0.00    +0.000 A 
ATOM     10  C   UNL     1     -37.066  47.276  -8.861  0.00  0.00    +0.000 A 
ATOM     11  C   UNL     1     -35.186  45.627 -13.430  0.00  0.00    +0.000 A 
ATOM     12  C   UNL     1     -38.528  47.794 -10.764  0.00  0.00    +0.000 C 
ATOM     13  C   UNL     1     -32.997  44.621 -13.247  0.00  0.00    +0.000 A 
ATOM     14  C   UNL     1     -35.008  45.699 -14.813  0.00  0.00    +0.000 A 
ATOM     15  C   UNL     1     -32.825  44.704 -14.625  0.00  0.00    +0.000 A 
ATOM     16  C   UNL     1     -33.834  45.247 -15.412  0.00  0.00    +0.000 A 
ENDROOT
BRANCH   3  17
ATOM     17  N   UNL     1     -33.868  45.461  -8.381  0.00  0.00    +0.000 N 
ATOM     18  H   UNL     1     -33.136  45.247  -9.075  0.00  0.00    +0.000 HD
BRANCH  17  19
ATOM     19  C   UNL     1     -33.969  44.559  -7.247  0.00  0.00    +0.000 C 
ATOM     20  C   UNL     1     -34.075  43.609  -6.050  0.00  0.00    +0.000 C 
BRANCH  20  21
ATOM     21  N   UNL     1     -34.169  42.714  -4.908  0.00  0.00    +0.000 N 
BRANCH  21  22
ATOM     22  C   UNL     1     -33.113  43.083  -3.983  0.00  0.00    +0.000 C 
ATOM     23  C   UNL     1     -31.994  43.459  -3.007  0.00  0.00    +0.000 C 
ENDBRANCH  21  22
BRANCH  21  24
ATOM     24  C   UNL     1     -33.851  41.381  -5.383  0.00  0.00    +0.000 C 
ATOM     25  C   UNL     1     -33.498  39.981  -5.895  0.00  0.00    +0.000 C 
ENDBRANCH  21  24
ENDBRANCH  20  21
ENDBRANCH  17  19
ENDBRANCH   3  17
TORSDOF 5
ENDMDL
MODEL 8
REMARK VINA RESULT:      -5.2     23.913     26.254
REMARK  Name = LUCANTHONE.pdbqt.pdb
REMARK  5 active torsions:
REMARK  status: ('A' for Active; 'I' for Inactive)
REMARK    1  A    between atoms: C_3  and  N_17
REMARK    2  A    between atoms: N_17  and  C_19
REMARK    3  A    between atoms: C_20  and  N_21
REMARK    4  A    between atoms: N_21  and  C_22
REMARK    5  A    between atoms: N_21  and  C_24
REMARK                            x       y       z     vdW  Elec       q    Type
REMARK                         _______ _______ _______ _____ _____    ______ ____
ROOT
ATOM      1  S   UNL     1     -16.055  48.770   6.186  0.00  0.00    +0.000 S 
ATOM      2  O   UNL     1     -16.980  52.694   4.591  0.00  0.00    +0.000 OA
ATOM      3  C   UNL     1     -17.894  52.327   7.209  0.00  0.00    +0.000 A 
ATOM      4  C   UNL     1     -17.261  51.293   6.462  0.00  0.00    +0.000 A 
ATOM      5  C   UNL     1     -16.898  50.078   7.079  0.00  0.00    +0.000 A 
ATOM      6  C   UNL     1     -17.188  49.912   8.454  0.00  0.00    +0.000 A 
ATOM      7  C   UNL     1     -16.978  51.540   5.019  0.00  0.00    +0.000 A 
ATOM      8  C   UNL     1     -18.182  52.099   8.559  0.00  0.00    +0.000 A 
ATOM      9  C   UNL     1     -16.723  50.445   4.073  0.00  0.00    +0.000 A 
ATOM     10  C   UNL     1     -17.823  50.914   9.180  0.00  0.00    +0.000 A 
ATOM     11  C   UNL     1     -16.341  49.181   4.498  0.00  0.00    +0.000 A 
ATOM     12  C   UNL     1     -16.852  48.660   9.235  0.00  0.00    +0.000 C 
ATOM     13  C   UNL     1     -16.866  50.718   2.709  0.00  0.00    +0.000 A 
ATOM     14  C   UNL     1     -16.110  48.189   3.543  0.00  0.00    +0.000 A 
ATOM     15  C   UNL     1     -16.641  49.721   1.764  0.00  0.00    +0.000 A 
ATOM     16  C   UNL     1     -16.263  48.450   2.183  0.00  0.00    +0.000 A 
ENDROOT
BRANCH   3  17
ATOM     17  N   UNL     1     -18.383  53.507   6.589  0.00  0.00    +0.000 N 
ATOM     18  H   UNL     1     -17.621  54.036   6.138  0.00  0.00    +0.000 HD
BRANCH  17  19
ATOM     19  C   UNL     1     -19.411  54.291   7.252  0.00  0.00    +0.000 C 
ATOM     20  C   UNL     1     -20.495  55.116   7.953  0.00  0.00    +0.000 C 
BRANCH  20  21
ATOM     21  N   UNL     1     -21.530  55.889   8.620  0.00  0.00    +0.000 N 
BRANCH  21  22
ATOM     22  C   UNL     1     -22.810  55.344   8.207  0.00  0.00    +0.000 C 
ATOM     23  C   UNL     1     -24.163  54.781   7.763  0.00  0.00    +0.000 C 
ENDBRANCH  21  22
BRANCH  21  24
ATOM     24  C   UNL     1     -21.466  57.237   8.087  0.00  0.00    +0.000 C 
ATOM     25  C   UNL     1     -21.408  58.654   7.508  0.00  0.00    +0.000 C 
ENDBRANCH  21  24
ENDBRANCH  20  21
ENDBRANCH  17  19
ENDBRANCH   3  17
TORSDOF 5
ENDMDL
MODEL 9
REMARK VINA RESULT:      -5.1     19.844     21.294
REMARK  Name = LUCANTHONE.pdbqt.pdb
REMARK  5 active torsions:
REMARK  status: ('A' for Active; 'I' for Inactive)
REMARK    1  A    between atoms: C_3  and  N_17
REMARK    2  A    between atoms: N_17  and  C_19
REMARK    3  A    between atoms: C_20  and  N_21
REMARK    4  A    between atoms: N_21  and  C_22
REMARK    5  A    between atoms: N_21  and  C_24
REMARK                            x       y       z     vdW  Elec       q    Type
REMARK                         _______ _______ _______ _____ _____    ______ ____
ROOT
ATOM      1  S   UNL     1     -30.921  62.471 -28.236  0.00  0.00    +0.000 S 
ATOM      2  O   UNL     1     -30.573  60.717 -24.286  0.00  0.00    +0.000 OA
ATOM      3  C   UNL     1     -32.363  62.863 -24.382  0.00  0.00    +0.000 A 
ATOM      4  C   UNL     1     -31.593  62.452 -25.507  0.00  0.00    +0.000 A 
ATOM      5  C   UNL     1     -31.835  62.998 -26.784  0.00  0.00    +0.000 A 
ATOM      6  C   UNL     1     -32.856  63.970 -26.915  0.00  0.00    +0.000 A 
ATOM      7  C   UNL     1     -30.540  61.416 -25.298  0.00  0.00    +0.000 A 
ATOM      8  C   UNL     1     -33.341  63.848 -24.563  0.00  0.00    +0.000 A 
ATOM      9  C   UNL     1     -29.438  61.219 -26.249  0.00  0.00    +0.000 A 
ATOM     10  C   UNL     1     -33.596  64.386 -25.813  0.00  0.00    +0.000 A 
ATOM     11  C   UNL     1     -29.505  61.676 -27.557  0.00  0.00    +0.000 A 
ATOM     12  C   UNL     1     -33.217  64.634 -28.226  0.00  0.00    +0.000 C 
ATOM     13  C   UNL     1     -28.304  60.535 -25.798  0.00  0.00    +0.000 A 
ATOM     14  C   UNL     1     -28.421  61.448 -28.408  0.00  0.00    +0.000 A 
ATOM     15  C   UNL     1     -27.226  60.319 -26.651  0.00  0.00    +0.000 A 
ATOM     16  C   UNL     1     -27.284  60.779 -27.961  0.00  0.00    +0.000 A 
ENDROOT
BRANCH   3  17
ATOM     17  N   UNL     1     -32.059  62.426 -23.066  0.00  0.00    +0.000 N 
ATOM     18  H   UNL     1     -32.760  61.751 -22.725  0.00  0.00    +0.000 HD
BRANCH  17  19
ATOM     19  C   UNL     1     -31.551  63.380 -22.095  0.00  0.00    +0.000 C 
ATOM     20  C   UNL     1     -31.016  64.386 -21.071  0.00  0.00    +0.000 C 
BRANCH  20  21
ATOM     21  N   UNL     1     -30.501  65.346 -20.108  0.00  0.00    +0.000 N 
BRANCH  21  22
ATOM     22  C   UNL     1     -30.301  64.637 -18.857  0.00  0.00    +0.000 C 
ATOM     23  C   UNL     1     -30.103  63.896 -17.532  0.00  0.00    +0.000 C 
ENDBRANCH  21  22
BRANCH  21  24
ATOM     24  C   UNL     1     -31.552  66.316 -19.868  0.00  0.00    +0.000 C 
ATOM     25  C   UNL     1     -32.667  67.331 -19.596  0.00  0.00    +0.000 C 
ENDBRANCH  21  24
ENDBRANCH  20  21
ENDBRANCH  17  19
ENDBRANCH   3  17
TORSDOF 5
ENDMDL
