MODEL 1
REMARK VINA RESULT:      -5.3      0.000      0.000
REMARK  Name = MeIQx.pdbqt.pdb
REMARK  0 active torsions:
REMARK  status: ('A' for Active; 'I' for Inactive)
REMARK                            x       y       z     vdW  Elec       q    Type
REMARK                         _______ _______ _______ _____ _____    ______ ____
ROOT
ATOM      1  N   UNL     1     -34.699  48.296 -16.821  0.00  0.00    +0.000 N 
ATOM      2  N   UNL     1     -33.218  47.630 -18.326  0.00  0.00    +0.000 NA
ATOM      3  N   UNL     1     -31.433  45.339 -17.892  0.00  0.00    +0.000 NA
ATOM      4  N   UNL     1     -31.673  43.965 -15.411  0.00  0.00    +0.000 NA
ATOM      5  C   UNL     1     -34.080  47.219 -16.244  0.00  0.00    +0.000 A 
ATOM      6  C   UNL     1     -33.152  46.816 -17.205  0.00  0.00    +0.000 A 
ATOM      7  C   UNL     1     -32.323  45.701 -16.929  0.00  0.00    +0.000 A 
ATOM      8  C   UNL     1     -32.453  45.026 -15.690  0.00  0.00    +0.000 A 
ATOM      9  C   UNL     1     -34.152  48.519 -18.074  0.00  0.00    +0.000 A 
ATOM     10  C   UNL     1     -34.232  46.573 -15.016  0.00  0.00    +0.000 A 
ATOM     11  C   UNL     1     -33.396  45.478 -14.777  0.00  0.00    +0.000 A 
ATOM     12  C   UNL     1     -35.772  49.041 -16.228  0.00  0.00    +0.000 C 
ATOM     13  C   UNL     1     -30.662  44.274 -17.593  0.00  0.00    +0.000 A 
ATOM     14  C   UNL     1     -30.781  43.605 -16.379  0.00  0.00    +0.000 A 
ATOM     15  C   UNL     1     -29.655  43.809 -18.606  0.00  0.00    +0.000 C 
ATOM     16  N   UNL     1     -34.536  49.512 -18.907  0.00  0.00    +0.000 N 
ATOM     17  H   UNL     1     -34.224  49.476 -19.873  0.00  0.00    +0.000 HD
ATOM     18  H   UNL     1     -35.402  50.022 -18.748  0.00  0.00    +0.000 HD
ENDROOT
TORSDOF 0
ENDMDL
MODEL 2
REMARK VINA RESULT:      -5.2      1.729      5.296
REMARK  Name = MeIQx.pdbqt.pdb
REMARK  0 active torsions:
REMARK  status: ('A' for Active; 'I' for Inactive)
REMARK                            x       y       z     vdW  Elec       q    Type
REMARK                         _______ _______ _______ _____ _____    ______ ____
ROOT
ATOM      1  N   UNL     1     -29.557  42.932 -18.149  0.00  0.00    +0.000 N 
ATOM      2  N   UNL     1     -30.395  44.714 -19.162  0.00  0.00    +0.000 NA
ATOM      3  N   UNL     1     -32.468  46.402 -17.947  0.00  0.00    +0.000 NA
ATOM      4  N   UNL     1     -33.391  45.656 -15.360  0.00  0.00    +0.000 NA
ATOM      5  C   UNL     1     -30.478  43.430 -17.267  0.00  0.00    +0.000 A 
ATOM      6  C   UNL     1     -30.994  44.549 -17.922  0.00  0.00    +0.000 A 
ATOM      7  C   UNL     1     -31.993  45.319 -17.276  0.00  0.00    +0.000 A 
ATOM      8  C   UNL     1     -32.442  44.936 -15.988  0.00  0.00    +0.000 A 
ATOM      9  C   UNL     1     -29.535  43.727 -19.284  0.00  0.00    +0.000 A 
ATOM     10  C   UNL     1     -30.900  43.030 -15.997  0.00  0.00    +0.000 A 
ATOM     11  C   UNL     1     -31.888  43.812 -15.391  0.00  0.00    +0.000 A 
ATOM     12  C   UNL     1     -28.722  41.791 -17.909  0.00  0.00    +0.000 C 
ATOM     13  C   UNL     1     -33.418  47.109 -17.301  0.00  0.00    +0.000 A 
ATOM     14  C   UNL     1     -33.867  46.741 -16.036  0.00  0.00    +0.000 A 
ATOM     15  C   UNL     1     -33.993  48.323 -17.974  0.00  0.00    +0.000 C 
ATOM     16  N   UNL     1     -28.738  43.509 -20.353  0.00  0.00    +0.000 N 
ATOM     17  H   UNL     1     -28.646  44.248 -21.043  0.00  0.00    +0.000 HD
ATOM     18  H   UNL     1     -27.951  42.867 -20.295  0.00  0.00    +0.000 HD
ENDROOT
TORSDOF 0
ENDMDL
MODEL 3
REMARK VINA RESULT:      -5.0      1.498      4.998
REMARK  Name = MeIQx.pdbqt.pdb
REMARK  0 active torsions:
REMARK  status: ('A' for Active; 'I' for Inactive)
REMARK                            x       y       z     vdW  Elec       q    Type
REMARK                         _______ _______ _______ _____ _____    ______ ____
ROOT
ATOM      1  N   UNL     1     -32.358  45.368 -16.066  0.00  0.00    +0.000 N 
ATOM      2  N   UNL     1     -32.363  45.944 -18.204  0.00  0.00    +0.000 NA
ATOM      3  N   UNL     1     -34.010  48.136 -19.255  0.00  0.00    +0.000 NA
ATOM      4  N   UNL     1     -35.644  49.534 -17.391  0.00  0.00    +0.000 NA
ATOM      5  C   UNL     1     -33.241  46.412 -16.142  0.00  0.00    +0.000 A 
ATOM      6  C   UNL     1     -33.230  46.759 -17.493  0.00  0.00    +0.000 A 
ATOM      7  C   UNL     1     -34.051  47.829 -17.931  0.00  0.00    +0.000 A 
ATOM      8  C   UNL     1     -34.858  48.516 -16.992  0.00  0.00    +0.000 A 
ATOM      9  C   UNL     1     -31.850  45.109 -17.329  0.00  0.00    +0.000 A 
ATOM     10  C   UNL     1     -34.025  47.073 -15.193  0.00  0.00    +0.000 A 
ATOM     11  C   UNL     1     -34.823  48.121 -15.662  0.00  0.00    +0.000 A 
ATOM     12  C   UNL     1     -31.993  44.686 -14.858  0.00  0.00    +0.000 C 
ATOM     13  C   UNL     1     -34.804  49.158 -19.634  0.00  0.00    +0.000 A 
ATOM     14  C   UNL     1     -35.602  49.840 -18.720  0.00  0.00    +0.000 A 
ATOM     15  C   UNL     1     -34.814  49.562 -21.081  0.00  0.00    +0.000 C 
ATOM     16  N   UNL     1     -30.955  44.134 -17.605  0.00  0.00    +0.000 N 
ATOM     17  H   UNL     1     -30.493  44.148 -18.509  0.00  0.00    +0.000 HD
ATOM     18  H   UNL     1     -30.439  43.673 -16.859  0.00  0.00    +0.000 HD
ENDROOT
TORSDOF 0
ENDMDL
MODEL 4
REMARK VINA RESULT:      -5.0     23.637     24.639
REMARK  Name = MeIQx.pdbqt.pdb
REMARK  0 active torsions:
REMARK  status: ('A' for Active; 'I' for Inactive)
REMARK                            x       y       z     vdW  Elec       q    Type
REMARK                         _______ _______ _______ _____ _____    ______ ____
ROOT
ATOM      1  N   UNL     1     -30.496  63.019   0.569  0.00  0.00    +0.000 N 
ATOM      2  N   UNL     1     -28.746  63.110  -0.785  0.00  0.00    +0.000 NA
ATOM      3  N   UNL     1     -26.023  62.451   0.094  0.00  0.00    +0.000 NA
ATOM      4  N   UNL     1     -25.695  61.671   2.812  0.00  0.00    +0.000 NA
ATOM      5  C   UNL     1     -29.435  62.646   1.349  0.00  0.00    +0.000 A 
ATOM      6  C   UNL     1     -28.345  62.710   0.481  0.00  0.00    +0.000 A 
ATOM      7  C   UNL     1     -27.058  62.377   0.973  0.00  0.00    +0.000 A 
ATOM      8  C   UNL     1     -26.910  61.991   2.327  0.00  0.00    +0.000 A 
ATOM      9  C   UNL     1     -30.045  63.297  -0.712  0.00  0.00    +0.000 A 
ATOM     10  C   UNL     1     -29.319  62.266   2.688  0.00  0.00    +0.000 A 
ATOM     11  C   UNL     1     -28.035  61.947   3.139  0.00  0.00    +0.000 A 
ATOM     12  C   UNL     1     -31.861  63.072   1.007  0.00  0.00    +0.000 C 
ATOM     13  C   UNL     1     -24.815  62.127   0.599  0.00  0.00    +0.000 A 
ATOM     14  C   UNL     1     -24.658  61.747   1.928  0.00  0.00    +0.000 A 
ATOM     15  C   UNL     1     -23.619  62.180  -0.309  0.00  0.00    +0.000 C 
ATOM     16  N   UNL     1     -30.838  63.700  -1.729  0.00  0.00    +0.000 N 
ATOM     17  H   UNL     1     -30.457  63.684  -2.671  0.00  0.00    +0.000 HD
ATOM     18  H   UNL     1     -31.850  63.614  -1.668  0.00  0.00    +0.000 HD
ENDROOT
TORSDOF 0
ENDMDL
MODEL 5
REMARK VINA RESULT:      -5.0      1.074      4.892
REMARK  Name = MeIQx.pdbqt.pdb
REMARK  0 active torsions:
REMARK  status: ('A' for Active; 'I' for Inactive)
REMARK                            x       y       z     vdW  Elec       q    Type
REMARK                         _______ _______ _______ _____ _____    ______ ____
ROOT
ATOM      1  N   UNL     1     -31.589  44.298 -16.616  0.00  0.00    +0.000 N 
ATOM      2  N   UNL     1     -32.098  45.842 -18.119  0.00  0.00    +0.000 NA
ATOM      3  N   UNL     1     -33.975  48.033 -17.573  0.00  0.00    +0.000 NA
ATOM      4  N   UNL     1     -35.152  48.112 -14.983  0.00  0.00    +0.000 NA
ATOM      5  C   UNL     1     -32.480  45.120 -15.980  0.00  0.00    +0.000 A 
ATOM      6  C   UNL     1     -32.788  46.083 -16.941  0.00  0.00    +0.000 A 
ATOM      7  C   UNL     1     -33.703  47.113 -16.609  0.00  0.00    +0.000 A 
ATOM      8  C   UNL     1     -34.281  47.140 -15.316  0.00  0.00    +0.000 A 
ATOM      9  C   UNL     1     -31.384  44.759 -17.907  0.00  0.00    +0.000 A 
ATOM     10  C   UNL     1     -33.032  45.123 -14.697  0.00  0.00    +0.000 A 
ATOM     11  C   UNL     1     -33.932  46.152 -14.405  0.00  0.00    +0.000 A 
ATOM     12  C   UNL     1     -30.944  43.165 -16.018  0.00  0.00    +0.000 C 
ATOM     13  C   UNL     1     -34.850  48.997 -17.220  0.00  0.00    +0.000 A 
ATOM     14  C   UNL     1     -35.424  49.032 -15.952  0.00  0.00    +0.000 A 
ATOM     15  C   UNL     1     -35.201  50.053 -18.228  0.00  0.00    +0.000 C 
ATOM     16  N   UNL     1     -30.564  44.171 -18.805  0.00  0.00    +0.000 N 
ATOM     17  H   UNL     1     -30.324  44.686 -19.647  0.00  0.00    +0.000 HD
ATOM     18  H   UNL     1     -29.882  43.474 -18.512  0.00  0.00    +0.000 HD
ENDROOT
TORSDOF 0
ENDMDL
MODEL 6
REMARK VINA RESULT:      -4.9      2.496      5.769
REMARK  Name = MeIQx.pdbqt.pdb
REMARK  0 active torsions:
REMARK  status: ('A' for Active; 'I' for Inactive)
REMARK                            x       y       z     vdW  Elec       q    Type
REMARK                         _______ _______ _______ _____ _____    ______ ____
ROOT
ATOM      1  N   UNL     1     -33.875  47.376 -16.763  0.00  0.00    +0.000 N 
ATOM      2  N   UNL     1     -33.330  46.985 -18.874  0.00  0.00    +0.000 NA
ATOM      3  N   UNL     1     -34.303  48.638 -21.098  0.00  0.00    +0.000 NA
ATOM      4  N   UNL     1     -36.014  50.815 -20.439  0.00  0.00    +0.000 NA
ATOM      5  C   UNL     1     -34.521  48.351 -17.475  0.00  0.00    +0.000 A 
ATOM      6  C   UNL     1     -34.167  48.088 -18.798  0.00  0.00    +0.000 A 
ATOM      7  C   UNL     1     -34.673  48.927 -19.821  0.00  0.00    +0.000 A 
ATOM      8  C   UNL     1     -35.523  50.007 -19.479  0.00  0.00    +0.000 A 
ATOM      9  C   UNL     1     -33.169  46.566 -17.638  0.00  0.00    +0.000 A 
ATOM     10  C   UNL     1     -35.355  49.410 -17.107  0.00  0.00    +0.000 A 
ATOM     11  C   UNL     1     -35.838  50.216 -18.143  0.00  0.00    +0.000 A 
ATOM     12  C   UNL     1     -33.898  47.248 -15.335  0.00  0.00    +0.000 C 
ATOM     13  C   UNL     1     -34.805  49.458 -22.043  0.00  0.00    +0.000 A 
ATOM     14  C   UNL     1     -35.641  50.521 -21.718  0.00  0.00    +0.000 A 
ATOM     15  C   UNL     1     -34.440  49.206 -23.479  0.00  0.00    +0.000 C 
ATOM     16  N   UNL     1     -32.424  45.503 -17.261  0.00  0.00    +0.000 N 
ATOM     17  H   UNL     1     -31.788  45.096 -17.940  0.00  0.00    +0.000 HD
ATOM     18  H   UNL     1     -32.166  45.366 -16.286  0.00  0.00    +0.000 HD
ENDROOT
TORSDOF 0
ENDMDL
MODEL 7
REMARK VINA RESULT:      -4.7      7.223      8.731
REMARK  Name = MeIQx.pdbqt.pdb
REMARK  0 active torsions:
REMARK  status: ('A' for Active; 'I' for Inactive)
REMARK                            x       y       z     vdW  Elec       q    Type
REMARK                         _______ _______ _______ _____ _____    ______ ____
ROOT
ATOM      1  N   UNL     1     -37.630  47.364 -10.240  0.00  0.00    +0.000 N 
ATOM      2  N   UNL     1     -36.720  47.568  -8.232  0.00  0.00    +0.000 NA
ATOM      3  N   UNL     1     -34.383  46.006  -7.381  0.00  0.00    +0.000 NA
ATOM      4  N   UNL     1     -33.298  44.173  -9.268  0.00  0.00    +0.000 NA
ATOM      5  C   UNL     1     -36.586  46.480 -10.242  0.00  0.00    +0.000 A 
ATOM      6  C   UNL     1     -36.027  46.622  -8.972  0.00  0.00    +0.000 A 
ATOM      7  C   UNL     1     -34.899  45.836  -8.629  0.00  0.00    +0.000 A 
ATOM      8  C   UNL     1     -34.369  44.928  -9.578  0.00  0.00    +0.000 A 
ATOM      9  C   UNL     1     -37.686  48.001  -9.010  0.00  0.00    +0.000 A 
ATOM     10  C   UNL     1     -36.083  45.595 -11.199  0.00  0.00    +0.000 A 
ATOM     11  C   UNL     1     -34.971  44.834 -10.825  0.00  0.00    +0.000 A 
ATOM     12  C   UNL     1     -38.498  47.614 -11.354  0.00  0.00    +0.000 C 
ATOM     13  C   UNL     1     -33.311  45.241  -7.092  0.00  0.00    +0.000 A 
ATOM     14  C   UNL     1     -32.783  44.345  -8.017  0.00  0.00    +0.000 A 
ATOM     15  C   UNL     1     -32.681  45.371  -5.734  0.00  0.00    +0.000 C 
ATOM     16  N   UNL     1     -38.606  48.933  -8.675  0.00  0.00    +0.000 N 
ATOM     17  H   UNL     1     -38.448  49.484  -7.837  0.00  0.00    +0.000 HD
ATOM     18  H   UNL     1     -39.182  49.377  -9.387  0.00  0.00    +0.000 HD
ENDROOT
TORSDOF 0
ENDMDL
MODEL 8
REMARK VINA RESULT:      -4.5      1.845      3.359
REMARK  Name = MeIQx.pdbqt.pdb
REMARK  0 active torsions:
REMARK  status: ('A' for Active; 'I' for Inactive)
REMARK                            x       y       z     vdW  Elec       q    Type
REMARK                         _______ _______ _______ _____ _____    ______ ____
ROOT
ATOM      1  N   UNL     1     -35.804  49.324 -17.335  0.00  0.00    +0.000 N 
ATOM      2  N   UNL     1     -35.730  48.408 -15.320  0.00  0.00    +0.000 NA
ATOM      3  N   UNL     1     -33.934  46.183 -14.652  0.00  0.00    +0.000 NA
ATOM      4  N   UNL     1     -32.247  45.215 -16.730  0.00  0.00    +0.000 NA
ATOM      5  C   UNL     1     -34.858  48.339 -17.436  0.00  0.00    +0.000 A 
ATOM      6  C   UNL     1     -34.827  47.775 -16.161  0.00  0.00    +0.000 A 
ATOM      7  C   UNL     1     -33.934  46.704 -15.909  0.00  0.00    +0.000 A 
ATOM      8  C   UNL     1     -33.101  46.232 -16.952  0.00  0.00    +0.000 A 
ATOM      9  C   UNL     1     -36.314  49.335 -16.046  0.00  0.00    +0.000 A 
ATOM     10  C   UNL     1     -34.046  47.897 -18.484  0.00  0.00    +0.000 A 
ATOM     11  C   UNL     1     -33.180  46.837 -18.199  0.00  0.00    +0.000 A 
ATOM     12  C   UNL     1     -36.171  50.223 -18.390  0.00  0.00    +0.000 C 
ATOM     13  C   UNL     1     -33.072  45.165 -14.451  0.00  0.00    +0.000 A 
ATOM     14  C   UNL     1     -32.249  44.694 -15.469  0.00  0.00    +0.000 A 
ATOM     15  C   UNL     1     -33.009  44.536 -13.088  0.00  0.00    +0.000 C 
ATOM     16  N   UNL     1     -37.271  50.184 -15.613  0.00  0.00    +0.000 N 
ATOM     17  H   UNL     1     -37.436  50.253 -14.613  0.00  0.00    +0.000 HD
ATOM     18  H   UNL     1     -37.520  51.010 -16.152  0.00  0.00    +0.000 HD
ENDROOT
TORSDOF 0
ENDMDL
MODEL 9
REMARK VINA RESULT:      -4.5      1.982      3.278
REMARK  Name = MeIQx.pdbqt.pdb
REMARK  0 active torsions:
REMARK  status: ('A' for Active; 'I' for Inactive)
REMARK                            x       y       z     vdW  Elec       q    Type
REMARK                         _______ _______ _______ _____ _____    ______ ____
ROOT
ATOM      1  N   UNL     1     -34.740  46.436 -15.036  0.00  0.00    +0.000 N 
ATOM      2  N   UNL     1     -33.110  45.196 -14.192  0.00  0.00    +0.000 NA
ATOM      3  N   UNL     1     -30.880  44.187 -15.814  0.00  0.00    +0.000 NA
ATOM      4  N   UNL     1     -30.880  44.868 -18.577  0.00  0.00    +0.000 NA
ATOM      5  C   UNL     1     -33.916  46.176 -16.098  0.00  0.00    +0.000 A 
ATOM      6  C   UNL     1     -32.899  45.396 -15.548  0.00  0.00    +0.000 A 
ATOM      7  C   UNL     1     -31.853  44.943 -16.390  0.00  0.00    +0.000 A 
ATOM      8  C   UNL     1     -31.865  45.290 -17.763  0.00  0.00    +0.000 A 
ATOM      9  C   UNL     1     -34.227  45.826 -13.902  0.00  0.00    +0.000 A 
ATOM     10  C   UNL     1     -33.954  46.536 -17.447  0.00  0.00    +0.000 A 
ATOM     11  C   UNL     1     -32.906  46.070 -18.248  0.00  0.00    +0.000 A 
ATOM     12  C   UNL     1     -35.922  47.246 -15.090  0.00  0.00    +0.000 C 
ATOM     13  C   UNL     1     -29.903  43.774 -16.647  0.00  0.00    +0.000 A 
ATOM     14  C   UNL     1     -29.906  44.109 -17.998  0.00  0.00    +0.000 A 
ATOM     15  C   UNL     1     -28.789  42.936 -16.087  0.00  0.00    +0.000 C 
ATOM     16  N   UNL     1     -34.803  45.881 -12.680  0.00  0.00    +0.000 N 
ATOM     17  H   UNL     1     -34.257  45.578 -11.878  0.00  0.00    +0.000 HD
ATOM     18  H   UNL     1     -35.536  46.557 -12.479  0.00  0.00    +0.000 HD
ENDROOT
TORSDOF 0
ENDMDL
