MODEL 1
REMARK VINA RESULT:      -5.0      0.000      0.000
REMARK  Name = Monobenzone.pdbqt.pdb
REMARK  4 active torsions:
REMARK  status: ('A' for Active; 'I' for Inactive)
REMARK    1  A    between atoms: C_1  and  O_7
REMARK    2  A    between atoms: C_6  and  O_15
REMARK    3  A    between atoms: O_7  and  C_8
REMARK    4  A    between atoms: C_8  and  C_9
REMARK                            x       y       z     vdW  Elec       q    Type
REMARK                         _______ _______ _______ _____ _____    ______ ____
ROOT
ATOM      1  C   UNL     1     -33.882  45.006  -7.758  0.00  0.00    +0.000 A 
ATOM      2  C   UNL     1     -32.948  45.816  -7.106  0.00  0.00    +0.000 A 
ATOM      3  C   UNL     1     -34.562  44.020  -7.041  0.00  0.00    +0.000 A 
ATOM      4  C   UNL     1     -32.695  45.642  -5.748  0.00  0.00    +0.000 A 
ATOM      5  C   UNL     1     -34.312  43.842  -5.683  0.00  0.00    +0.000 A 
ATOM      6  C   UNL     1     -33.380  44.655  -5.047  0.00  0.00    +0.000 A 
ENDROOT
BRANCH   6   7
ATOM      7  O   UNL     1     -33.152  44.463  -3.716  0.00  0.00    +0.000 OA
ATOM      8  H   UNL     1     -32.211  44.248  -3.595  0.00  0.00    +0.000 HD
ENDBRANCH   6   7
BRANCH   1   9
ATOM      9  O   UNL     1     -34.198  45.103  -9.090  0.00  0.00    +0.000 OA
BRANCH   9  10
ATOM     10  C   UNL     1     -35.282  45.827  -9.356  0.00  0.00    +0.000 C 
BRANCH  10  11
ATOM     11  C   UNL     1     -36.436  46.612  -9.653  0.00  0.00    +0.000 A 
ATOM     12  C   UNL     1     -37.042  46.509 -10.903  0.00  0.00    +0.000 A 
ATOM     13  C   UNL     1     -38.166  47.280 -11.194  0.00  0.00    +0.000 A 
ATOM     14  C   UNL     1     -38.679  48.151 -10.237  0.00  0.00    +0.000 A 
ATOM     15  C   UNL     1     -38.071  48.253  -8.987  0.00  0.00    +0.000 A 
ATOM     16  C   UNL     1     -36.948  47.483  -8.694  0.00  0.00    +0.000 A 
ENDBRANCH  10  11
ENDBRANCH   9  10
ENDBRANCH   1   9
TORSDOF 4
ENDMDL
MODEL 2
REMARK VINA RESULT:      -4.9     26.129     27.646
REMARK  Name = Monobenzone.pdbqt.pdb
REMARK  4 active torsions:
REMARK  status: ('A' for Active; 'I' for Inactive)
REMARK    1  A    between atoms: C_1  and  O_7
REMARK    2  A    between atoms: C_6  and  O_15
REMARK    3  A    between atoms: O_7  and  C_8
REMARK    4  A    between atoms: C_8  and  C_9
REMARK                            x       y       z     vdW  Elec       q    Type
REMARK                         _______ _______ _______ _____ _____    ______ ____
ROOT
ATOM      1  C   UNL     1     -17.802  55.867 -27.376  0.00  0.00    +0.000 A 
ATOM      2  C   UNL     1     -17.798  54.504 -27.072  0.00  0.00    +0.000 A 
ATOM      3  C   UNL     1     -18.308  56.300 -28.603  0.00  0.00    +0.000 A 
ATOM      4  C   UNL     1     -18.296  53.579 -27.986  0.00  0.00    +0.000 A 
ATOM      5  C   UNL     1     -18.806  55.380 -29.521  0.00  0.00    +0.000 A 
ATOM      6  C   UNL     1     -18.797  54.026 -29.205  0.00  0.00    +0.000 A 
ENDROOT
BRANCH   6   7
ATOM      7  O   UNL     1     -19.291  53.142 -30.119  0.00  0.00    +0.000 OA
ATOM      8  H   UNL     1     -20.234  53.338 -30.254  0.00  0.00    +0.000 HD
ENDBRANCH   6   7
BRANCH   1   9
ATOM      9  O   UNL     1     -17.334  56.851 -26.541  0.00  0.00    +0.000 OA
BRANCH   9  10
ATOM     10  C   UNL     1     -16.985  56.434 -25.326  0.00  0.00    +0.000 C 
BRANCH  10  11
ATOM     11  C   UNL     1     -16.602  55.976 -24.031  0.00  0.00    +0.000 A 
ATOM     12  C   UNL     1     -15.919  54.769 -23.897  0.00  0.00    +0.000 A 
ATOM     13  C   UNL     1     -15.550  54.319 -22.631  0.00  0.00    +0.000 A 
ATOM     14  C   UNL     1     -15.863  55.075 -21.504  0.00  0.00    +0.000 A 
ATOM     15  C   UNL     1     -16.546  56.282 -21.641  0.00  0.00    +0.000 A 
ATOM     16  C   UNL     1     -16.916  56.733 -22.905  0.00  0.00    +0.000 A 
ENDBRANCH  10  11
ENDBRANCH   9  10
ENDBRANCH   1   9
TORSDOF 4
ENDMDL
MODEL 3
REMARK VINA RESULT:      -4.9     16.254     19.135
REMARK  Name = Monobenzone.pdbqt.pdb
REMARK  4 active torsions:
REMARK  status: ('A' for Active; 'I' for Inactive)
REMARK    1  A    between atoms: C_1  and  O_7
REMARK    2  A    between atoms: C_6  and  O_15
REMARK    3  A    between atoms: O_7  and  C_8
REMARK    4  A    between atoms: C_8  and  C_9
REMARK                            x       y       z     vdW  Elec       q    Type
REMARK                         _______ _______ _______ _____ _____    ______ ____
ROOT
ATOM      1  C   UNL     1     -19.082  39.728  -3.402  0.00  0.00    +0.000 A 
ATOM      2  C   UNL     1     -18.462  39.351  -4.596  0.00  0.00    +0.000 A 
ATOM      3  C   UNL     1     -20.475  39.742  -3.321  0.00  0.00    +0.000 A 
ATOM      4  C   UNL     1     -19.228  38.990  -5.701  0.00  0.00    +0.000 A 
ATOM      5  C   UNL     1     -21.247  39.382  -4.423  0.00  0.00    +0.000 A 
ATOM      6  C   UNL     1     -20.616  39.008  -5.605  0.00  0.00    +0.000 A 
ENDROOT
BRANCH   6   7
ATOM      7  O   UNL     1     -21.392  38.659  -6.672  0.00  0.00    +0.000 OA
ATOM      8  H   UNL     1     -21.927  39.431  -6.926  0.00  0.00    +0.000 HD
ENDBRANCH   6   7
BRANCH   1   9
ATOM      9  O   UNL     1     -18.413  40.099  -2.263  0.00  0.00    +0.000 OA
BRANCH   9  10
ATOM     10  C   UNL     1     -17.615  41.155  -2.402  0.00  0.00    +0.000 C 
BRANCH  10  11
ATOM     11  C   UNL     1     -16.769  42.295  -2.539  0.00  0.00    +0.000 A 
ATOM     12  C   UNL     1     -17.317  43.575  -2.490  0.00  0.00    +0.000 A 
ATOM     13  C   UNL     1     -16.491  44.689  -2.630  0.00  0.00    +0.000 A 
ATOM     14  C   UNL     1     -15.121  44.520  -2.818  0.00  0.00    +0.000 A 
ATOM     15  C   UNL     1     -14.576  43.239  -2.867  0.00  0.00    +0.000 A 
ATOM     16  C   UNL     1     -15.400  42.125  -2.728  0.00  0.00    +0.000 A 
ENDBRANCH  10  11
ENDBRANCH   9  10
ENDBRANCH   1   9
TORSDOF 4
ENDMDL
MODEL 4
REMARK VINA RESULT:      -4.7     19.695     21.841
REMARK  Name = Monobenzone.pdbqt.pdb
REMARK  4 active torsions:
REMARK  status: ('A' for Active; 'I' for Inactive)
REMARK    1  A    between atoms: C_1  and  O_7
REMARK    2  A    between atoms: C_6  and  O_15
REMARK    3  A    between atoms: O_7  and  C_8
REMARK    4  A    between atoms: C_8  and  C_9
REMARK                            x       y       z     vdW  Elec       q    Type
REMARK                         _______ _______ _______ _____ _____    ______ ____
ROOT
ATOM      1  C   UNL     1     -13.450  47.507  -3.871  0.00  0.00    +0.000 A 
ATOM      2  C   UNL     1     -14.601  47.524  -4.663  0.00  0.00    +0.000 A 
ATOM      3  C   UNL     1     -12.524  48.545  -3.975  0.00  0.00    +0.000 A 
ATOM      4  C   UNL     1     -14.824  48.571  -5.553  0.00  0.00    +0.000 A 
ATOM      5  C   UNL     1     -12.742  49.595  -4.864  0.00  0.00    +0.000 A 
ATOM      6  C   UNL     1     -13.892  49.599  -5.646  0.00  0.00    +0.000 A 
ENDROOT
BRANCH   6   7
ATOM      7  O   UNL     1     -14.085  50.637  -6.510  0.00  0.00    +0.000 OA
ATOM      8  H   UNL     1     -14.600  50.312  -7.268  0.00  0.00    +0.000 HD
ENDBRANCH   6   7
BRANCH   1   9
ATOM      9  O   UNL     1     -13.144  46.520  -2.967  0.00  0.00    +0.000 OA
BRANCH   9  10
ATOM     10  C   UNL     1     -14.039  45.539  -2.886  0.00  0.00    +0.000 C 
BRANCH  10  11
ATOM     11  C   UNL     1     -15.001  44.490  -2.784  0.00  0.00    +0.000 A 
ATOM     12  C   UNL     1     -16.349  44.800  -2.623  0.00  0.00    +0.000 A 
ATOM     13  C   UNL     1     -17.288  43.776  -2.518  0.00  0.00    +0.000 A 
ATOM     14  C   UNL     1     -16.877  42.446  -2.574  0.00  0.00    +0.000 A 
ATOM     15  C   UNL     1     -15.527  42.139  -2.736  0.00  0.00    +0.000 A 
ATOM     16  C   UNL     1     -14.588  43.161  -2.841  0.00  0.00    +0.000 A 
ENDBRANCH  10  11
ENDBRANCH   9  10
ENDBRANCH   1   9
TORSDOF 4
ENDMDL
MODEL 5
REMARK VINA RESULT:      -4.6     27.748     29.279
REMARK  Name = Monobenzone.pdbqt.pdb
REMARK  4 active torsions:
REMARK  status: ('A' for Active; 'I' for Inactive)
REMARK    1  A    between atoms: C_1  and  O_7
REMARK    2  A    between atoms: C_6  and  O_15
REMARK    3  A    between atoms: O_7  and  C_8
REMARK    4  A    between atoms: C_8  and  C_9
REMARK                            x       y       z     vdW  Elec       q    Type
REMARK                         _______ _______ _______ _____ _____    ______ ____
ROOT
ATOM      1  C   UNL     1     -20.477  54.510 -32.196  0.00  0.00    +0.000 A 
ATOM      2  C   UNL     1     -21.830  54.560 -32.542  0.00  0.00    +0.000 A 
ATOM      3  C   UNL     1     -19.757  53.331 -32.393  0.00  0.00    +0.000 A 
ATOM      4  C   UNL     1     -22.458  53.440 -33.081  0.00  0.00    +0.000 A 
ATOM      5  C   UNL     1     -20.380  52.208 -32.930  0.00  0.00    +0.000 A 
ATOM      6  C   UNL     1     -21.727  52.272 -33.271  0.00  0.00    +0.000 A 
ENDROOT
BRANCH   6   7
ATOM      7  O   UNL     1     -22.317  51.160 -33.797  0.00  0.00    +0.000 OA
ATOM      8  H   UNL     1     -21.704  50.764 -34.440  0.00  0.00    +0.000 HD
ENDBRANCH   6   7
BRANCH   1   9
ATOM      9  O   UNL     1     -19.773  55.560 -31.661  0.00  0.00    +0.000 OA
BRANCH   9  10
ATOM     10  C   UNL     1     -19.230  55.319 -30.470  0.00  0.00    +0.000 C 
BRANCH  10  11
ATOM     11  C   UNL     1     -18.634  55.055 -29.202  0.00  0.00    +0.000 A 
ATOM     12  C   UNL     1     -18.156  56.110 -28.428  0.00  0.00    +0.000 A 
ATOM     13  C   UNL     1     -17.569  55.851 -27.191  0.00  0.00    +0.000 A 
ATOM     14  C   UNL     1     -17.462  54.541 -26.731  0.00  0.00    +0.000 A 
ATOM     15  C   UNL     1     -17.942  53.488 -27.507  0.00  0.00    +0.000 A 
ATOM     16  C   UNL     1     -18.528  53.744 -28.743  0.00  0.00    +0.000 A 
ENDBRANCH  10  11
ENDBRANCH   9  10
ENDBRANCH   1   9
TORSDOF 4
ENDMDL
MODEL 6
REMARK VINA RESULT:      -4.6     16.799     19.218
REMARK  Name = Monobenzone.pdbqt.pdb
REMARK  4 active torsions:
REMARK  status: ('A' for Active; 'I' for Inactive)
REMARK    1  A    between atoms: C_1  and  O_7
REMARK    2  A    between atoms: C_6  and  O_15
REMARK    3  A    between atoms: O_7  and  C_8
REMARK    4  A    between atoms: C_8  and  C_9
REMARK                            x       y       z     vdW  Elec       q    Type
REMARK                         _______ _______ _______ _____ _____    ______ ____
ROOT
ATOM      1  C   UNL     1     -16.494  41.878  -2.095  0.00  0.00    +0.000 A 
ATOM      2  C   UNL     1     -15.111  42.054  -2.186  0.00  0.00    +0.000 A 
ATOM      3  C   UNL     1     -17.345  42.962  -2.315  0.00  0.00    +0.000 A 
ATOM      4  C   UNL     1     -14.582  43.304  -2.495  0.00  0.00    +0.000 A 
ATOM      5  C   UNL     1     -16.821  44.215  -2.623  0.00  0.00    +0.000 A 
ATOM      6  C   UNL     1     -15.442  44.375  -2.711  0.00  0.00    +0.000 A 
ENDROOT
BRANCH   6   7
ATOM      7  O   UNL     1     -14.951  45.611  -3.015  0.00  0.00    +0.000 OA
ATOM      8  H   UNL     1     -15.171  46.215  -2.285  0.00  0.00    +0.000 HD
ENDBRANCH   6   7
BRANCH   1   9
ATOM      9  O   UNL     1     -17.108  40.686  -1.797  0.00  0.00    +0.000 OA
BRANCH   9  10
ATOM     10  C   UNL     1     -17.993  40.273  -2.700  0.00  0.00    +0.000 C 
BRANCH  10  11
ATOM     11  C   UNL     1     -18.941  39.814  -3.663  0.00  0.00    +0.000 A 
ATOM     12  C   UNL     1     -20.300  39.828  -3.359  0.00  0.00    +0.000 A 
ATOM     13  C   UNL     1     -21.225  39.375  -4.298  0.00  0.00    +0.000 A 
ATOM     14  C   UNL     1     -20.789  38.909  -5.536  0.00  0.00    +0.000 A 
ATOM     15  C   UNL     1     -19.429  38.897  -5.838  0.00  0.00    +0.000 A 
ATOM     16  C   UNL     1     -18.503  39.349  -4.901  0.00  0.00    +0.000 A 
ENDBRANCH  10  11
ENDBRANCH   9  10
ENDBRANCH   1   9
TORSDOF 4
ENDMDL
MODEL 7
REMARK VINA RESULT:      -4.5     21.701     23.343
REMARK  Name = Monobenzone.pdbqt.pdb
REMARK  4 active torsions:
REMARK  status: ('A' for Active; 'I' for Inactive)
REMARK    1  A    between atoms: C_1  and  O_7
REMARK    2  A    between atoms: C_6  and  O_15
REMARK    3  A    between atoms: O_7  and  C_8
REMARK    4  A    between atoms: C_8  and  C_9
REMARK                            x       y       z     vdW  Elec       q    Type
REMARK                         _______ _______ _______ _____ _____    ______ ____
ROOT
ATOM      1  C   UNL     1     -16.359  49.452   3.395  0.00  0.00    +0.000 A 
ATOM      2  C   UNL     1     -16.657  50.041   2.164  0.00  0.00    +0.000 A 
ATOM      3  C   UNL     1     -16.668  50.126   4.577  0.00  0.00    +0.000 A 
ATOM      4  C   UNL     1     -17.261  51.294   2.113  0.00  0.00    +0.000 A 
ATOM      5  C   UNL     1     -17.271  51.380   4.533  0.00  0.00    +0.000 A 
ATOM      6  C   UNL     1     -17.564  51.954   3.300  0.00  0.00    +0.000 A 
ENDROOT
BRANCH   6   7
ATOM      7  O   UNL     1     -18.155  53.183   3.280  0.00  0.00    +0.000 OA
ATOM      8  H   UNL     1     -17.676  53.744   2.646  0.00  0.00    +0.000 HD
ENDBRANCH   6   7
BRANCH   1   9
ATOM      9  O   UNL     1     -15.766  48.223   3.545  0.00  0.00    +0.000 OA
BRANCH   9  10
ATOM     10  C   UNL     1     -16.154  47.542   4.620  0.00  0.00    +0.000 C 
BRANCH  10  11
ATOM     11  C   UNL     1     -16.585  46.810   5.766  0.00  0.00    +0.000 A 
ATOM     12  C   UNL     1     -16.455  47.369   7.035  0.00  0.00    +0.000 A 
ATOM     13  C   UNL     1     -16.871  46.651   8.155  0.00  0.00    +0.000 A 
ATOM     14  C   UNL     1     -17.415  45.378   8.003  0.00  0.00    +0.000 A 
ATOM     15  C   UNL     1     -17.544  44.821   6.732  0.00  0.00    +0.000 A 
ATOM     16  C   UNL     1     -17.129  45.537   5.613  0.00  0.00    +0.000 A 
ENDBRANCH  10  11
ENDBRANCH   9  10
ENDBRANCH   1   9
TORSDOF 4
ENDMDL
MODEL 8
REMARK VINA RESULT:      -4.4     22.258     23.488
REMARK  Name = Monobenzone.pdbqt.pdb
REMARK  4 active torsions:
REMARK  status: ('A' for Active; 'I' for Inactive)
REMARK    1  A    between atoms: C_1  and  O_7
REMARK    2  A    between atoms: C_6  and  O_15
REMARK    3  A    between atoms: O_7  and  C_8
REMARK    4  A    between atoms: C_8  and  C_9
REMARK                            x       y       z     vdW  Elec       q    Type
REMARK                         _______ _______ _______ _____ _____    ______ ____
ROOT
ATOM      1  C   UNL     1     -16.895  50.451   5.952  0.00  0.00    +0.000 A 
ATOM      2  C   UNL     1     -16.918  50.441   4.555  0.00  0.00    +0.000 A 
ATOM      3  C   UNL     1     -17.464  51.521   6.645  0.00  0.00    +0.000 A 
ATOM      4  C   UNL     1     -17.506  51.491   3.856  0.00  0.00    +0.000 A 
ATOM      5  C   UNL     1     -18.053  52.574   5.951  0.00  0.00    +0.000 A 
ATOM      6  C   UNL     1     -18.069  52.551   4.560  0.00  0.00    +0.000 A 
ENDROOT
BRANCH   6   7
ATOM      7  O   UNL     1     -18.652  53.593   3.900  0.00  0.00    +0.000 OA
ATOM      8  H   UNL     1     -18.708  54.348   4.511  0.00  0.00    +0.000 HD
ENDBRANCH   6   7
BRANCH   1   9
ATOM      9  O   UNL     1     -16.340  49.464   6.727  0.00  0.00    +0.000 OA
BRANCH   9  10
ATOM     10  C   UNL     1     -16.410  48.240   6.208  0.00  0.00    +0.000 C 
BRANCH  10  11
ATOM     11  C   UNL     1     -16.500  46.930   5.653  0.00  0.00    +0.000 A 
ATOM     12  C   UNL     1     -16.742  45.840   6.485  0.00  0.00    +0.000 A 
ATOM     13  C   UNL     1     -16.825  44.559   5.943  0.00  0.00    +0.000 A 
ATOM     14  C   UNL     1     -16.667  44.372   4.572  0.00  0.00    +0.000 A 
ATOM     15  C   UNL     1     -16.426  45.464   3.741  0.00  0.00    +0.000 A 
ATOM     16  C   UNL     1     -16.343  46.744   4.281  0.00  0.00    +0.000 A 
ENDBRANCH  10  11
ENDBRANCH   9  10
ENDBRANCH   1   9
TORSDOF 4
ENDMDL
MODEL 9
REMARK VINA RESULT:      -4.3     24.591     25.505
REMARK  Name = Monobenzone.pdbqt.pdb
REMARK  4 active torsions:
REMARK  status: ('A' for Active; 'I' for Inactive)
REMARK    1  A    between atoms: C_1  and  O_7
REMARK    2  A    between atoms: C_6  and  O_15
REMARK    3  A    between atoms: O_7  and  C_8
REMARK    4  A    between atoms: C_8  and  C_9
REMARK                            x       y       z     vdW  Elec       q    Type
REMARK                         _______ _______ _______ _____ _____    ______ ____
ROOT
ATOM      1  C   UNL     1     -18.987  61.728 -17.850  0.00  0.00    +0.000 A 
ATOM      2  C   UNL     1     -17.954  60.807 -17.662  0.00  0.00    +0.000 A 
ATOM      3  C   UNL     1     -20.129  61.658 -17.050  0.00  0.00    +0.000 A 
ATOM      4  C   UNL     1     -18.059  59.824 -16.682  0.00  0.00    +0.000 A 
ATOM      5  C   UNL     1     -20.240  60.677 -16.068  0.00  0.00    +0.000 A 
ATOM      6  C   UNL     1     -19.203  59.767 -15.892  0.00  0.00    +0.000 A 
ENDROOT
BRANCH   6   7
ATOM      7  O   UNL     1     -19.333  58.814 -14.924  0.00  0.00    +0.000 OA
ATOM      8  H   UNL     1     -18.908  57.998 -15.239  0.00  0.00    +0.000 HD
ENDBRANCH   6   7
BRANCH   1   9
ATOM      9  O   UNL     1     -18.974  62.730 -18.788  0.00  0.00    +0.000 OA
BRANCH   9  10
ATOM     10  C   UNL     1     -18.667  62.337 -20.021  0.00  0.00    +0.000 C 
BRANCH  10  11
ATOM     11  C   UNL     1     -18.349  61.926 -21.350  0.00  0.00    +0.000 A 
ATOM     12  C   UNL     1     -17.458  60.875 -21.555  0.00  0.00    +0.000 A 
ATOM     13  C   UNL     1     -17.143  60.477 -22.853  0.00  0.00    +0.000 A 
ATOM     14  C   UNL     1     -17.719  61.129 -23.940  0.00  0.00    +0.000 A 
ATOM     15  C   UNL     1     -18.611  62.180 -23.732  0.00  0.00    +0.000 A 
ATOM     16  C   UNL     1     -18.926  62.579 -22.436  0.00  0.00    +0.000 A 
ENDBRANCH  10  11
ENDBRANCH   9  10
ENDBRANCH   1   9
TORSDOF 4
ENDMDL
