MODEL 1
REMARK VINA RESULT:      -5.0      0.000      0.000
REMARK  Name = 
REMARK  5 active torsions:
REMARK  status: ('A' for Active; 'I' for Inactive)
REMARK    1  A    between atoms: O_4  and  C_15
REMARK    2  A    between atoms: C_6  and  C_13
REMARK    3  A    between atoms: C_7  and  C_12
REMARK    4  A    between atoms: C_8  and  C_14
REMARK    5  A    between atoms: C_12  and  C_15
REMARK                            x       y       z     vdW  Elec       q    Type
REMARK                         _______ _______ _______ _____ _____    ______ ____
ROOT
ATOM      1  C   UNL     1     -16.604  49.576   3.595  0.00  0.00    +0.000 A 
ATOM      2  C   UNL     1     -17.388  51.315   5.133  0.00  0.00    +0.000 A 
ATOM      3  C   UNL     1     -16.301  48.745   4.695  0.00  0.00    +0.000 A 
ATOM      4  C   UNL     1     -17.145  50.856   3.832  0.00  0.00    +0.000 A 
ATOM      5  C   UNL     1     -17.073  50.485   6.213  0.00  0.00    +0.000 A 
ATOM      6  C   UNL     1     -16.538  49.215   5.995  0.00  0.00    +0.000 A 
ATOM      7  C   UNL     1     -15.717  47.371   4.506  0.00  0.00    +0.000 C 
ENDROOT
BRANCH   1  11
ATOM      8  F   UNL     1     -16.710  50.070   1.252  0.00  0.00    +0.000 F 
ATOM      9  F   UNL     1     -15.055  48.830   1.907  0.00  0.00    +0.000 F 
ATOM     10  F   UNL     1     -17.062  48.005   1.840  0.00  0.00    +0.000 F 
ATOM     11  C   UNL     1     -16.360  49.125   2.170  0.00  0.00    +0.000 C 
ENDBRANCH   1  11
BRANCH   2  12
ATOM     12  C   UNL     1     -17.951  52.697   5.368  0.00  0.00    +0.000 C 
BRANCH  12  14
ATOM     13  O   UNL     1     -16.651  54.261   3.984  0.00  0.00    +0.000 OA
ATOM     14  C   UNL     1     -17.684  53.666   4.242  0.00  0.00    +0.000 C 
BRANCH  14  15
ATOM     15  O   UNL     1     -18.768  53.829   3.454  0.00  0.00    +0.000 OA
ATOM     16  H   UNL     1     -18.798  53.002   2.927  0.00  0.00    +0.000 HD
ENDBRANCH  14  15
ENDBRANCH  12  14
ENDBRANCH   2  12
TORSDOF 4
ENDMDL
MODEL 2
REMARK VINA RESULT:      -4.9     21.526     22.620
REMARK  Name = 
REMARK  5 active torsions:
REMARK  status: ('A' for Active; 'I' for Inactive)
REMARK    1  A    between atoms: O_4  and  C_15
REMARK    2  A    between atoms: C_6  and  C_13
REMARK    3  A    between atoms: C_7  and  C_12
REMARK    4  A    between atoms: C_8  and  C_14
REMARK    5  A    between atoms: C_12  and  C_15
REMARK                            x       y       z     vdW  Elec       q    Type
REMARK                         _______ _______ _______ _____ _____    ______ ____
ROOT
ATOM      1  C   UNL     1     -35.583  46.154  -9.145  0.00  0.00    +0.000 A 
ATOM      2  C   UNL     1     -33.575  45.706  -7.813  0.00  0.00    +0.000 A 
ATOM      3  C   UNL     1     -35.267  45.061  -9.982  0.00  0.00    +0.000 A 
ATOM      4  C   UNL     1     -34.727  46.461  -8.068  0.00  0.00    +0.000 A 
ATOM      5  C   UNL     1     -33.269  44.634  -8.657  0.00  0.00    +0.000 A 
ATOM      6  C   UNL     1     -34.107  44.315  -9.727  0.00  0.00    +0.000 A 
ATOM      7  C   UNL     1     -36.139  44.687 -11.150  0.00  0.00    +0.000 C 
ENDROOT
BRANCH   1  11
ATOM      8  F   UNL     1     -37.968  46.355  -9.039  0.00  0.00    +0.000 F 
ATOM      9  F   UNL     1     -36.827  48.160  -8.662  0.00  0.00    +0.000 F 
ATOM     10  F   UNL     1     -36.966  47.373 -10.681  0.00  0.00    +0.000 F 
ATOM     11  C   UNL     1     -36.816  47.000  -9.379  0.00  0.00    +0.000 C 
ENDBRANCH   1  11
BRANCH   2  12
ATOM     12  C   UNL     1     -32.660  46.062  -6.665  0.00  0.00    +0.000 C 
BRANCH  12  14
ATOM     13  O   UNL     1     -32.324  44.206  -5.087  0.00  0.00    +0.000 OA
ATOM     14  C   UNL     1     -32.885  45.235  -5.424  0.00  0.00    +0.000 C 
BRANCH  14  15
ATOM     15  O   UNL     1     -33.831  45.777  -4.626  0.00  0.00    +0.000 OA
ATOM     16  H   UNL     1     -33.394  46.575  -4.258  0.00  0.00    +0.000 HD
ENDBRANCH  14  15
ENDBRANCH  12  14
ENDBRANCH   2  12
TORSDOF 4
ENDMDL
MODEL 3
REMARK VINA RESULT:      -4.9      3.384      4.472
REMARK  Name = 
REMARK  5 active torsions:
REMARK  status: ('A' for Active; 'I' for Inactive)
REMARK    1  A    between atoms: O_4  and  C_15
REMARK    2  A    between atoms: C_6  and  C_13
REMARK    3  A    between atoms: C_7  and  C_12
REMARK    4  A    between atoms: C_8  and  C_14
REMARK    5  A    between atoms: C_12  and  C_15
REMARK                            x       y       z     vdW  Elec       q    Type
REMARK                         _______ _______ _______ _____ _____    ______ ____
ROOT
ATOM      1  C   UNL     1     -17.356  51.420   6.193  0.00  0.00    +0.000 A 
ATOM      2  C   UNL     1     -16.683  49.941   4.358  0.00  0.00    +0.000 A 
ATOM      3  C   UNL     1     -17.115  50.379   7.115  0.00  0.00    +0.000 A 
ATOM      4  C   UNL     1     -17.136  51.184   4.821  0.00  0.00    +0.000 A 
ATOM      5  C   UNL     1     -16.459  48.917   5.282  0.00  0.00    +0.000 A 
ATOM      6  C   UNL     1     -16.670  49.135   6.644  0.00  0.00    +0.000 A 
ATOM      7  C   UNL     1     -17.336  50.569   8.592  0.00  0.00    +0.000 C 
ENDROOT
BRANCH   1  11
ATOM      8  F   UNL     1     -18.976  52.707   7.402  0.00  0.00    +0.000 F 
ATOM      9  F   UNL     1     -16.942  53.461   7.405  0.00  0.00    +0.000 F 
ATOM     10  F   UNL     1     -18.145  53.609   5.604  0.00  0.00    +0.000 F 
ATOM     11  C   UNL     1     -17.845  52.780   6.643  0.00  0.00    +0.000 C 
ENDBRANCH   1  11
BRANCH   2  12
ATOM     12  C   UNL     1     -16.470  49.702   2.882  0.00  0.00    +0.000 C 
BRANCH  12  14
ATOM     13  O   UNL     1     -15.969  51.752   1.618  0.00  0.00    +0.000 OA
ATOM     14  C   UNL     1     -16.753  50.908   2.019  0.00  0.00    +0.000 C 
BRANCH  14  15
ATOM     15  O   UNL     1     -18.057  50.982   1.675  0.00  0.00    +0.000 OA
ATOM     16  H   UNL     1     -18.347  51.842   2.049  0.00  0.00    +0.000 HD
ENDBRANCH  14  15
ENDBRANCH  12  14
ENDBRANCH   2  12
TORSDOF 4
ENDMDL
MODEL 4
REMARK VINA RESULT:      -4.9      2.550      3.382
REMARK  Name = 
REMARK  5 active torsions:
REMARK  status: ('A' for Active; 'I' for Inactive)
REMARK    1  A    between atoms: O_4  and  C_15
REMARK    2  A    between atoms: C_6  and  C_13
REMARK    3  A    between atoms: C_7  and  C_12
REMARK    4  A    between atoms: C_8  and  C_14
REMARK    5  A    between atoms: C_12  and  C_15
REMARK                            x       y       z     vdW  Elec       q    Type
REMARK                         _______ _______ _______ _____ _____    ______ ____
ROOT
ATOM      1  C   UNL     1     -16.703  49.435   5.995  0.00  0.00    +0.000 A 
ATOM      2  C   UNL     1     -17.310  51.509   4.839  0.00  0.00    +0.000 A 
ATOM      3  C   UNL     1     -17.034  50.032   7.231  0.00  0.00    +0.000 A 
ATOM      4  C   UNL     1     -16.847  50.188   4.812  0.00  0.00    +0.000 A 
ATOM      5  C   UNL     1     -17.623  52.091   6.072  0.00  0.00    +0.000 A 
ATOM      6  C   UNL     1     -17.488  51.359   7.253  0.00  0.00    +0.000 A 
ATOM      7  C   UNL     1     -16.896  49.282   8.529  0.00  0.00    +0.000 C 
ENDROOT
BRANCH   1  11
ATOM      8  F   UNL     1     -14.919  47.879   6.366  0.00  0.00    +0.000 F 
ATOM      9  F   UNL     1     -16.935  47.127   6.647  0.00  0.00    +0.000 F 
ATOM     10  F   UNL     1     -16.198  47.519   4.642  0.00  0.00    +0.000 F 
ATOM     11  C   UNL     1     -16.199  48.010   5.913  0.00  0.00    +0.000 C 
ENDBRANCH   1  11
BRANCH   2  12
ATOM     12  C   UNL     1     -17.440  52.305   3.562  0.00  0.00    +0.000 C 
BRANCH  12  14
ATOM     13  O   UNL     1     -15.893  51.429   1.862  0.00  0.00    +0.000 OA
ATOM     14  C   UNL     1     -17.014  51.552   2.326  0.00  0.00    +0.000 C 
BRANCH  14  15
ATOM     15  O   UNL     1     -18.061  50.950   1.721  0.00  0.00    +0.000 OA
ATOM     16  H   UNL     1     -18.793  51.055   2.367  0.00  0.00    +0.000 HD
ENDBRANCH  14  15
ENDBRANCH  12  14
ENDBRANCH   2  12
TORSDOF 4
ENDMDL
MODEL 5
REMARK VINA RESULT:      -4.9     21.314     22.235
REMARK  Name = 
REMARK  5 active torsions:
REMARK  status: ('A' for Active; 'I' for Inactive)
REMARK    1  A    between atoms: O_4  and  C_15
REMARK    2  A    between atoms: C_6  and  C_13
REMARK    3  A    between atoms: C_7  and  C_12
REMARK    4  A    between atoms: C_8  and  C_14
REMARK    5  A    between atoms: C_12  and  C_15
REMARK                            x       y       z     vdW  Elec       q    Type
REMARK                         _______ _______ _______ _____ _____    ______ ____
ROOT
ATOM      1  C   UNL     1     -34.233  45.722  -7.138  0.00  0.00    +0.000 A 
ATOM      2  C   UNL     1     -36.265  46.347  -8.359  0.00  0.00    +0.000 A 
ATOM      3  C   UNL     1     -34.967  44.754  -6.419  0.00  0.00    +0.000 A 
ATOM      4  C   UNL     1     -34.897  46.508  -8.101  0.00  0.00    +0.000 A 
ATOM      5  C   UNL     1     -36.981  45.392  -7.631  0.00  0.00    +0.000 A 
ATOM      6  C   UNL     1     -36.338  44.604  -6.675  0.00  0.00    +0.000 A 
ATOM      7  C   UNL     1     -34.316  43.888  -5.375  0.00  0.00    +0.000 C 
ENDROOT
BRANCH   1  11
ATOM      8  F   UNL     1     -32.453  46.085  -5.576  0.00  0.00    +0.000 F 
ATOM      9  F   UNL     1     -31.976  44.901  -7.330  0.00  0.00    +0.000 F 
ATOM     10  F   UNL     1     -32.267  47.044  -7.521  0.00  0.00    +0.000 F 
ATOM     11  C   UNL     1     -32.754  45.935  -6.897  0.00  0.00    +0.000 C 
ENDBRANCH   1  11
BRANCH   2  12
ATOM     12  C   UNL     1     -36.963  47.212  -9.382  0.00  0.00    +0.000 C 
BRANCH  12  14
ATOM     13  O   UNL     1     -37.643  48.953  -7.783  0.00  0.00    +0.000 OA
ATOM     14  C   UNL     1     -37.841  48.281  -8.781  0.00  0.00    +0.000 C 
BRANCH  14  15
ATOM     15  O   UNL     1     -38.963  48.474  -9.510  0.00  0.00    +0.000 OA
ATOM     16  H   UNL     1     -39.671  48.537  -8.833  0.00  0.00    +0.000 HD
ENDBRANCH  14  15
ENDBRANCH  12  14
ENDBRANCH   2  12
TORSDOF 4
ENDMDL
MODEL 6
REMARK VINA RESULT:      -4.8     25.979     27.058
REMARK  Name = 
REMARK  5 active torsions:
REMARK  status: ('A' for Active; 'I' for Inactive)
REMARK    1  A    between atoms: O_4  and  C_15
REMARK    2  A    between atoms: C_6  and  C_13
REMARK    3  A    between atoms: C_7  and  C_12
REMARK    4  A    between atoms: C_8  and  C_14
REMARK    5  A    between atoms: C_12  and  C_15
REMARK                            x       y       z     vdW  Elec       q    Type
REMARK                         _______ _______ _______ _____ _____    ______ ____
ROOT
ATOM      1  C   UNL     1     -33.333  46.795 -17.224  0.00  0.00    +0.000 A 
ATOM      2  C   UNL     1     -31.906  44.803 -17.290  0.00  0.00    +0.000 A 
ATOM      3  C   UNL     1     -33.552  46.588 -15.845  0.00  0.00    +0.000 A 
ATOM      4  C   UNL     1     -32.509  45.895 -17.929  0.00  0.00    +0.000 A 
ATOM      5  C   UNL     1     -32.142  44.604 -15.927  0.00  0.00    +0.000 A 
ATOM      6  C   UNL     1     -32.953  45.487 -15.213  0.00  0.00    +0.000 A 
ATOM      7  C   UNL     1     -34.425  47.511 -15.038  0.00  0.00    +0.000 C 
ENDROOT
BRANCH   1  11
ATOM      8  F   UNL     1     -33.655  47.970 -19.287  0.00  0.00    +0.000 F 
ATOM      9  F   UNL     1     -35.324  47.970 -17.902  0.00  0.00    +0.000 F 
ATOM     10  F   UNL     1     -33.566  49.170 -17.474  0.00  0.00    +0.000 F 
ATOM     11  C   UNL     1     -33.961  47.960 -17.959  0.00  0.00    +0.000 C 
ENDBRANCH   1  11
BRANCH   2  12
ATOM     12  C   UNL     1     -31.042  43.839 -18.067  0.00  0.00    +0.000 C 
BRANCH  12  14
ATOM     13  O   UNL     1     -29.219  45.043 -19.198  0.00  0.00    +0.000 OA
ATOM     14  C   UNL     1     -29.634  44.330 -18.300  0.00  0.00    +0.000 C 
BRANCH  14  15
ATOM     15  O   UNL     1     -28.788  43.898 -17.340  0.00  0.00    +0.000 OA
ATOM     16  H   UNL     1     -28.516  44.723 -16.882  0.00  0.00    +0.000 HD
ENDBRANCH  14  15
ENDBRANCH  12  14
ENDBRANCH   2  12
TORSDOF 4
ENDMDL
MODEL 7
REMARK VINA RESULT:      -4.8      3.662      4.951
REMARK  Name = 
REMARK  5 active torsions:
REMARK  status: ('A' for Active; 'I' for Inactive)
REMARK    1  A    between atoms: O_4  and  C_15
REMARK    2  A    between atoms: C_6  and  C_13
REMARK    3  A    between atoms: C_7  and  C_12
REMARK    4  A    between atoms: C_8  and  C_14
REMARK    5  A    between atoms: C_12  and  C_15
REMARK                            x       y       z     vdW  Elec       q    Type
REMARK                         _______ _______ _______ _____ _____    ______ ____
ROOT
ATOM      1  C   UNL     1     -17.493  51.659   4.615  0.00  0.00    +0.000 A 
ATOM      2  C   UNL     1     -16.504  49.885   3.243  0.00  0.00    +0.000 A 
ATOM      3  C   UNL     1     -17.197  50.918   5.780  0.00  0.00    +0.000 A 
ATOM      4  C   UNL     1     -17.141  51.128   3.358  0.00  0.00    +0.000 A 
ATOM      5  C   UNL     1     -16.228  49.158   4.404  0.00  0.00    +0.000 A 
ATOM      6  C   UNL     1     -16.568  49.670   5.657  0.00  0.00    +0.000 A 
ATOM      7  C   UNL     1     -17.553  51.429   7.150  0.00  0.00    +0.000 C 
ENDROOT
BRANCH   1  11
ATOM      8  F   UNL     1     -18.399  53.551   3.457  0.00  0.00    +0.000 F 
ATOM      9  F   UNL     1     -19.403  52.965   5.288  0.00  0.00    +0.000 F 
ATOM     10  F   UNL     1     -17.462  53.932   5.384  0.00  0.00    +0.000 F 
ATOM     11  C   UNL     1     -18.180  53.007   4.687  0.00  0.00    +0.000 C 
ENDBRANCH   1  11
BRANCH   2  12
ATOM     12  C   UNL     1     -16.151  49.325   1.886  0.00  0.00    +0.000 C 
BRANCH  12  14
ATOM     13  O   UNL     1     -15.127  47.091   2.000  0.00  0.00    +0.000 OA
ATOM     14  C   UNL     1     -16.094  47.818   1.842  0.00  0.00    +0.000 C 
BRANCH  14  15
ATOM     15  O   UNL     1     -17.310  47.277   1.613  0.00  0.00    +0.000 OA
ATOM     16  H   UNL     1     -17.106  46.364   1.316  0.00  0.00    +0.000 HD
ENDBRANCH  14  15
ENDBRANCH  12  14
ENDBRANCH   2  12
TORSDOF 4
ENDMDL
MODEL 8
REMARK VINA RESULT:      -4.8     20.814     21.903
REMARK  Name = 
REMARK  5 active torsions:
REMARK  status: ('A' for Active; 'I' for Inactive)
REMARK    1  A    between atoms: O_4  and  C_15
REMARK    2  A    between atoms: C_6  and  C_13
REMARK    3  A    between atoms: C_7  and  C_12
REMARK    4  A    between atoms: C_8  and  C_14
REMARK    5  A    between atoms: C_12  and  C_15
REMARK                            x       y       z     vdW  Elec       q    Type
REMARK                         _______ _______ _______ _____ _____    ______ ____
ROOT
ATOM      1  C   UNL     1     -35.678  45.583  -6.662  0.00  0.00    +0.000 A 
ATOM      2  C   UNL     1     -33.396  45.125  -5.897  0.00  0.00    +0.000 A 
ATOM      3  C   UNL     1     -35.164  46.380  -7.708  0.00  0.00    +0.000 A 
ATOM      4  C   UNL     1     -34.782  44.966  -5.768  0.00  0.00    +0.000 A 
ATOM      5  C   UNL     1     -32.901  45.926  -6.930  0.00  0.00    +0.000 A 
ATOM      6  C   UNL     1     -33.775  46.544  -7.826  0.00  0.00    +0.000 A 
ATOM      7  C   UNL     1     -36.070  47.070  -8.692  0.00  0.00    +0.000 C 
ENDROOT
BRANCH   1  11
ATOM      8  F   UNL     1     -37.466  44.622  -5.388  0.00  0.00    +0.000 F 
ATOM      9  F   UNL     1     -37.862  46.542  -6.317  0.00  0.00    +0.000 F 
ATOM     10  F   UNL     1     -37.751  44.753  -7.541  0.00  0.00    +0.000 F 
ATOM     11  C   UNL     1     -37.168  45.380  -6.481  0.00  0.00    +0.000 C 
ENDBRANCH   1  11
BRANCH   2  12
ATOM     12  C   UNL     1     -32.452  44.470  -4.916  0.00  0.00    +0.000 C 
BRANCH  12  14
ATOM     13  O   UNL     1     -33.563  43.156  -3.159  0.00  0.00    +0.000 OA
ATOM     14  C   UNL     1     -33.020  43.243  -4.247  0.00  0.00    +0.000 C 
BRANCH  14  15
ATOM     15  O   UNL     1     -32.888  42.144  -5.022  0.00  0.00    +0.000 OA
ATOM     16  H   UNL     1     -33.797  41.775  -5.058  0.00  0.00    +0.000 HD
ENDBRANCH  14  15
ENDBRANCH  12  14
ENDBRANCH   2  12
TORSDOF 4
ENDMDL
MODEL 9
REMARK VINA RESULT:      -4.6     28.011     29.748
REMARK  Name = 
REMARK  5 active torsions:
REMARK  status: ('A' for Active; 'I' for Inactive)
REMARK    1  A    between atoms: O_4  and  C_15
REMARK    2  A    between atoms: C_6  and  C_13
REMARK    3  A    between atoms: C_7  and  C_12
REMARK    4  A    between atoms: C_8  and  C_14
REMARK    5  A    between atoms: C_12  and  C_15
REMARK                            x       y       z     vdW  Elec       q    Type
REMARK                         _______ _______ _______ _____ _____    ______ ____
ROOT
ATOM      1  C   UNL     1     -16.351  55.209 -24.608  0.00  0.00    +0.000 A 
ATOM      2  C   UNL     1     -16.018  53.142 -25.881  0.00  0.00    +0.000 A 
ATOM      3  C   UNL     1     -15.869  54.567 -23.446  0.00  0.00    +0.000 A 
ATOM      4  C   UNL     1     -16.419  54.482 -25.813  0.00  0.00    +0.000 A 
ATOM      5  C   UNL     1     -15.554  52.515 -24.720  0.00  0.00    +0.000 A 
ATOM      6  C   UNL     1     -15.479  53.221 -23.519  0.00  0.00    +0.000 A 
ATOM      7  C   UNL     1     -15.778  55.287 -22.128  0.00  0.00    +0.000 C 
ENDROOT
BRANCH   1  11
ATOM      8  F   UNL     1     -17.697  56.914 -23.597  0.00  0.00    +0.000 F 
ATOM      9  F   UNL     1     -15.774  57.538 -24.383  0.00  0.00    +0.000 F 
ATOM     10  F   UNL     1     -17.390  57.047 -25.747  0.00  0.00    +0.000 F 
ATOM     11  C   UNL     1     -16.795  56.656 -24.586  0.00  0.00    +0.000 C 
ENDBRANCH   1  11
BRANCH   2  12
ATOM     12  C   UNL     1     -16.116  52.374 -27.179  0.00  0.00    +0.000 C 
BRANCH  12  14
ATOM     13  O   UNL     1     -18.108  52.920 -28.515  0.00  0.00    +0.000 OA
ATOM     14  C   UNL     1     -17.526  52.227 -27.697  0.00  0.00    +0.000 C 
BRANCH  14  15
ATOM     15  O   UNL     1     -18.150  51.159 -27.154  0.00  0.00    +0.000 OA
ATOM     16  H   UNL     1     -18.176  51.369 -26.195  0.00  0.00    +0.000 HD
ENDBRANCH  14  15
ENDBRANCH  12  14
ENDBRANCH   2  12
TORSDOF 4
ENDMDL
