MODEL 1
REMARK VINA RESULT:      -6.8      0.000      0.000
REMARK  Name = OTSSP167.pdbqt.pdb
REMARK  7 active torsions:
REMARK  status: ('A' for Active; 'I' for Inactive)
REMARK    1  A    between atoms: C_5  and  N_19
REMARK    2  A    between atoms: C_7  and  C_31
REMARK    3  A    between atoms: C_11  and  C_13
REMARK    4  A    between atoms: C_18  and  O_34
REMARK    5  A    between atoms: N_19  and  C_21
REMARK    6  A    between atoms: C_24  and  C_27
REMARK    7  A    between atoms: C_27  and  N_28
REMARK                            x       y       z     vdW  Elec       q    Type
REMARK                         _______ _______ _______ _____ _____    ______ ____
ROOT
ATOM      1  N   UNL     1     -17.439  55.288 -26.731  0.00  0.00    +0.000 NA
ATOM      2  N   UNL     1     -18.217  57.532 -29.508  0.00  0.00    +0.000 NA
ATOM      3  C   UNL     1     -18.445  54.794 -28.892  0.00  0.00    +0.000 A 
ATOM      4  C   UNL     1     -17.895  55.695 -27.942  0.00  0.00    +0.000 A 
ATOM      5  C   UNL     1     -18.863  55.309 -30.136  0.00  0.00    +0.000 A 
ATOM      6  C   UNL     1     -17.809  57.051 -28.322  0.00  0.00    +0.000 A 
ATOM      7  C   UNL     1     -18.732  56.656 -30.390  0.00  0.00    +0.000 A 
ATOM      8  C   UNL     1     -17.265  57.935 -27.408  0.00  0.00    +0.000 A 
ATOM      9  C   UNL     1     -16.918  56.178 -25.850  0.00  0.00    +0.000 A 
ATOM     10  C   UNL     1     -16.814  57.519 -26.164  0.00  0.00    +0.000 A 
ENDROOT
BRANCH   9  13
ATOM     11 CL   UNL     1     -15.033  52.165 -23.197  0.00  0.00    +0.000 Cl
ATOM     12 CL   UNL     1     -16.328  56.864 -20.761  0.00  0.00    +0.000 Cl
ATOM     13  C   UNL     1     -16.494  55.634 -24.558  0.00  0.00    +0.000 A 
ATOM     14  C   UNL     1     -16.579  56.384 -23.379  0.00  0.00    +0.000 A 
ATOM     15  C   UNL     1     -15.999  54.327 -24.457  0.00  0.00    +0.000 A 
ATOM     16  C   UNL     1     -15.608  53.787 -23.233  0.00  0.00    +0.000 A 
ATOM     17  C   UNL     1     -16.185  55.855 -22.149  0.00  0.00    +0.000 A 
ATOM     18  C   UNL     1     -15.697  54.551 -22.070  0.00  0.00    +0.000 A 
BRANCH  18  19
ATOM     19  O   UNL     1     -15.316  54.036 -20.860  0.00  0.00    +0.000 OA
ATOM     20  H   UNL     1     -15.848  54.464 -20.163  0.00  0.00    +0.000 HD
ENDBRANCH  18  19
ENDBRANCH   9  13
BRANCH   5  21
ATOM     21  C   UNL     1     -19.400  54.472 -31.207  0.00  0.00    +0.000 C 
ATOM     22  O   UNL     1     -18.899  53.432 -31.600  0.00  0.00    +0.000 OA
ATOM     23  C   UNL     1     -20.624  54.813 -32.001  0.00  0.00    +0.000 C 
ENDBRANCH   5  21
BRANCH   3  24
ATOM     24  N   UNL     1     -18.689  53.412 -28.606  0.00  0.00    +0.000 N 
ATOM     25  H   UNL     1     -19.628  53.087 -28.853  0.00  0.00    +0.000 HD
BRANCH  24  26
ATOM     26  C   UNL     1     -17.773  52.402 -28.504  0.00  0.00    +0.000 A 
ATOM     27  C   UNL     1     -17.709  51.683 -27.257  0.00  0.00    +0.000 A 
ATOM     28  C   UNL     1     -16.418  51.217 -26.535  0.00  0.00    +0.000 A 
ATOM     29  C   UNL     1     -15.076  51.449 -27.012  0.00  0.00    +0.000 A 
ATOM     30  C   UNL     1     -15.136  52.191 -28.246  0.00  0.00    +0.000 A 
ATOM     31  C   UNL     1     -16.428  52.656 -28.962  0.00  0.00    +0.000 A 
BRANCH  29  32
ATOM     32  C   UNL     1     -13.901  50.915 -26.440  0.00  0.00    +0.000 C 
BRANCH  32  33
ATOM     33  N   UNL     1     -12.703  50.355 -25.839  0.00  0.00    +0.000 NA
ATOM     34  C   UNL     1     -13.128  49.444 -24.788  0.00  0.00    +0.000 C 
ATOM     35  C   UNL     1     -11.990  51.446 -25.196  0.00  0.00    +0.000 C 
ENDBRANCH  32  33
ENDBRANCH  29  32
ENDBRANCH  24  26
ENDBRANCH   3  24
TORSDOF 7
ENDMDL
MODEL 2
REMARK VINA RESULT:      -6.0     19.147     20.831
REMARK  Name = OTSSP167.pdbqt.pdb
REMARK  7 active torsions:
REMARK  status: ('A' for Active; 'I' for Inactive)
REMARK    1  A    between atoms: C_5  and  N_19
REMARK    2  A    between atoms: C_7  and  C_31
REMARK    3  A    between atoms: C_11  and  C_13
REMARK    4  A    between atoms: C_18  and  O_34
REMARK    5  A    between atoms: N_19  and  C_21
REMARK    6  A    between atoms: C_24  and  C_27
REMARK    7  A    between atoms: C_27  and  N_28
REMARK                            x       y       z     vdW  Elec       q    Type
REMARK                         _______ _______ _______ _____ _____    ______ ____
ROOT
ATOM      1  N   UNL     1     -32.643  46.240 -17.495  0.00  0.00    +0.000 NA
ATOM      2  N   UNL     1     -34.872  48.008 -15.202  0.00  0.00    +0.000 NA
ATOM      3  C   UNL     1     -34.204  48.056 -17.937  0.00  0.00    +0.000 A 
ATOM      4  C   UNL     1     -33.584  47.119 -17.068  0.00  0.00    +0.000 A 
ATOM      5  C   UNL     1     -35.148  48.950 -17.391  0.00  0.00    +0.000 A 
ATOM      6  C   UNL     1     -33.966  47.157 -15.710  0.00  0.00    +0.000 A 
ATOM      7  C   UNL     1     -35.442  48.887 -16.047  0.00  0.00    +0.000 A 
ATOM      8  C   UNL     1     -33.360  46.256 -14.853  0.00  0.00    +0.000 A 
ATOM      9  C   UNL     1     -32.072  45.362 -16.635  0.00  0.00    +0.000 A 
ATOM     10  C   UNL     1     -32.410  45.347 -15.296  0.00  0.00    +0.000 A 
ENDROOT
BRANCH   9  13
ATOM     11 CL   UNL     1     -30.013  43.266 -20.885  0.00  0.00    +0.000 Cl
ATOM     12 CL   UNL     1     -28.365  41.837 -15.891  0.00  0.00    +0.000 Cl
ATOM     13  C   UNL     1     -31.098  44.432 -17.214  0.00  0.00    +0.000 A 
ATOM     14  C   UNL     1     -30.263  43.646 -16.412  0.00  0.00    +0.000 A 
ATOM     15  C   UNL     1     -30.981  44.288 -18.602  0.00  0.00    +0.000 A 
ATOM     16  C   UNL     1     -30.074  43.396 -19.169  0.00  0.00    +0.000 A 
ATOM     17  C   UNL     1     -29.346  42.754 -16.969  0.00  0.00    +0.000 A 
ATOM     18  C   UNL     1     -29.248  42.624 -18.354  0.00  0.00    +0.000 A 
BRANCH  18  19
ATOM     19  O   UNL     1     -28.350  41.743 -18.896  0.00  0.00    +0.000 OA
ATOM     20  H   UNL     1     -27.984  41.196 -18.176  0.00  0.00    +0.000 HD
ENDBRANCH  18  19
ENDBRANCH   9  13
BRANCH   5  21
ATOM     21  C   UNL     1     -35.815  49.985 -18.178  0.00  0.00    +0.000 C 
ATOM     22  O   UNL     1     -35.245  50.846 -18.827  0.00  0.00    +0.000 OA
ATOM     23  C   UNL     1     -37.302  50.153 -18.249  0.00  0.00    +0.000 C 
ENDBRANCH   5  21
BRANCH   3  24
ATOM     24  N   UNL     1     -33.992  48.064 -19.353  0.00  0.00    +0.000 N 
ATOM     25  H   UNL     1     -33.009  48.034 -19.635  0.00  0.00    +0.000 HD
BRANCH  24  26
ATOM     26  C   UNL     1     -34.852  47.650 -20.333  0.00  0.00    +0.000 A 
ATOM     27  C   UNL     1     -34.779  46.272 -20.746  0.00  0.00    +0.000 A 
ATOM     28  C   UNL     1     -34.877  45.748 -22.203  0.00  0.00    +0.000 A 
ATOM     29  C   UNL     1     -35.049  46.580 -23.369  0.00  0.00    +0.000 A 
ATOM     30  C   UNL     1     -35.096  47.962 -22.961  0.00  0.00    +0.000 A 
ATOM     31  C   UNL     1     -34.996  48.480 -21.505  0.00  0.00    +0.000 A 
BRANCH  29  32
ATOM     32  C   UNL     1     -35.277  46.112 -24.682  0.00  0.00    +0.000 C 
BRANCH  32  33
ATOM     33  N   UNL     1     -35.520  45.646 -26.036  0.00  0.00    +0.000 NA
ATOM     34  C   UNL     1     -34.332  44.929 -26.469  0.00  0.00    +0.000 C 
ATOM     35  C   UNL     1     -35.641  46.821 -26.883  0.00  0.00    +0.000 C 
ENDBRANCH  32  33
ENDBRANCH  29  32
ENDBRANCH  24  26
ENDBRANCH   3  24
TORSDOF 7
ENDMDL
MODEL 3
REMARK VINA RESULT:      -5.9     21.364     22.946
REMARK  Name = OTSSP167.pdbqt.pdb
REMARK  7 active torsions:
REMARK  status: ('A' for Active; 'I' for Inactive)
REMARK    1  A    between atoms: C_5  and  N_19
REMARK    2  A    between atoms: C_7  and  C_31
REMARK    3  A    between atoms: C_11  and  C_13
REMARK    4  A    between atoms: C_18  and  O_34
REMARK    5  A    between atoms: N_19  and  C_21
REMARK    6  A    between atoms: C_24  and  C_27
REMARK    7  A    between atoms: C_27  and  N_28
REMARK                            x       y       z     vdW  Elec       q    Type
REMARK                         _______ _______ _______ _____ _____    ______ ____
ROOT
ATOM      1  N   UNL     1     -35.888  47.822 -15.262  0.00  0.00    +0.000 NA
ATOM      2  N   UNL     1     -37.317  46.805 -12.057  0.00  0.00    +0.000 NA
ATOM      3  C   UNL     1     -34.924  46.449 -13.498  0.00  0.00    +0.000 A 
ATOM      4  C   UNL     1     -35.973  47.237 -14.041  0.00  0.00    +0.000 A 
ATOM      5  C   UNL     1     -35.121  45.856 -12.233  0.00  0.00    +0.000 A 
ATOM      6  C   UNL     1     -37.143  47.368 -13.264  0.00  0.00    +0.000 A 
ATOM      7  C   UNL     1     -36.309  46.061 -11.567  0.00  0.00    +0.000 A 
ATOM      8  C   UNL     1     -38.175  48.124 -13.789  0.00  0.00    +0.000 A 
ATOM      9  C   UNL     1     -36.911  48.566 -15.749  0.00  0.00    +0.000 A 
ATOM     10  C   UNL     1     -38.079  48.735 -15.031  0.00  0.00    +0.000 A 
ENDROOT
BRANCH   9  13
ATOM     11 CL   UNL     1     -34.327  48.543 -20.223  0.00  0.00    +0.000 Cl
ATOM     12 CL   UNL     1     -38.105  52.309 -19.108  0.00  0.00    +0.000 Cl
ATOM     13  C   UNL     1     -36.694  49.183 -17.060  0.00  0.00    +0.000 A 
ATOM     14  C   UNL     1     -37.401  50.322 -17.464  0.00  0.00    +0.000 A 
ATOM     15  C   UNL     1     -35.752  48.657 -17.954  0.00  0.00    +0.000 A 
ATOM     16  C   UNL     1     -35.520  49.242 -19.196  0.00  0.00    +0.000 A 
ATOM     17  C   UNL     1     -37.180  50.912 -18.709  0.00  0.00    +0.000 A 
ATOM     18  C   UNL     1     -36.235  50.374 -19.583  0.00  0.00    +0.000 A 
BRANCH  18  19
ATOM     19  O   UNL     1     -36.020  50.960 -20.802  0.00  0.00    +0.000 OA
ATOM     20  H   UNL     1     -36.709  51.636 -20.943  0.00  0.00    +0.000 HD
ENDBRANCH  18  19
ENDBRANCH   9  13
BRANCH   5  21
ATOM     21  C   UNL     1     -34.133  44.989 -11.596  0.00  0.00    +0.000 C 
ATOM     22  O   UNL     1     -32.973  45.294 -11.376  0.00  0.00    +0.000 OA
ATOM     23  C   UNL     1     -34.409  43.578 -11.171  0.00  0.00    +0.000 C 
ENDBRANCH   5  21
BRANCH   3  24
ATOM     24  N   UNL     1     -33.644  46.314 -14.125  0.00  0.00    +0.000 N 
ATOM     25  H   UNL     1     -32.862  46.684 -13.577  0.00  0.00    +0.000 HD
BRANCH  24  26
ATOM     26  C   UNL     1     -33.264  45.401 -15.069  0.00  0.00    +0.000 A 
ATOM     27  C   UNL     1     -32.123  44.572 -14.773  0.00  0.00    +0.000 A 
ATOM     28  C   UNL     1     -31.001  44.174 -15.766  0.00  0.00    +0.000 A 
ATOM     29  C   UNL     1     -30.933  44.591 -17.146  0.00  0.00    +0.000 A 
ATOM     30  C   UNL     1     -32.060  45.442 -17.437  0.00  0.00    +0.000 A 
ATOM     31  C   UNL     1     -33.177  45.838 -16.441  0.00  0.00    +0.000 A 
BRANCH  29  32
ATOM     32  C   UNL     1     -29.996  44.128 -18.096  0.00  0.00    +0.000 C 
BRANCH  32  33
ATOM     33  N   UNL     1     -29.030  43.636 -19.062  0.00  0.00    +0.000 NA
ATOM     34  C   UNL     1     -29.640  43.737 -20.377  0.00  0.00    +0.000 C 
ATOM     35  C   UNL     1     -28.829  42.222 -18.793  0.00  0.00    +0.000 C 
ENDBRANCH  32  33
ENDBRANCH  29  32
ENDBRANCH  24  26
ENDBRANCH   3  24
TORSDOF 7
ENDMDL
MODEL 4
REMARK VINA RESULT:      -5.8      3.497      8.529
REMARK  Name = OTSSP167.pdbqt.pdb
REMARK  7 active torsions:
REMARK  status: ('A' for Active; 'I' for Inactive)
REMARK    1  A    between atoms: C_5  and  N_19
REMARK    2  A    between atoms: C_7  and  C_31
REMARK    3  A    between atoms: C_11  and  C_13
REMARK    4  A    between atoms: C_18  and  O_34
REMARK    5  A    between atoms: N_19  and  C_21
REMARK    6  A    between atoms: C_24  and  C_27
REMARK    7  A    between atoms: C_27  and  N_28
REMARK                            x       y       z     vdW  Elec       q    Type
REMARK                         _______ _______ _______ _____ _____    ______ ____
ROOT
ATOM      1  N   UNL     1     -16.544  53.501 -26.461  0.00  0.00    +0.000 NA
ATOM      2  N   UNL     1     -15.264  50.702 -24.492  0.00  0.00    +0.000 NA
ATOM      3  C   UNL     1     -15.154  53.516 -24.463  0.00  0.00    +0.000 A 
ATOM      4  C   UNL     1     -15.893  52.842 -25.471  0.00  0.00    +0.000 A 
ATOM      5  C   UNL     1     -14.485  52.739 -23.494  0.00  0.00    +0.000 A 
ATOM      6  C   UNL     1     -15.900  51.431 -25.424  0.00  0.00    +0.000 A 
ATOM      7  C   UNL     1     -14.570  51.366 -23.550  0.00  0.00    +0.000 A 
ATOM      8  C   UNL     1     -16.607  50.765 -26.408  0.00  0.00    +0.000 A 
ATOM      9  C   UNL     1     -17.238  52.823 -27.408  0.00  0.00    +0.000 A 
ATOM     10  C   UNL     1     -17.286  51.443 -27.410  0.00  0.00    +0.000 A 
ENDROOT
BRANCH   9  13
ATOM     11 CL   UNL     1     -19.805  53.012 -31.888  0.00  0.00    +0.000 Cl
ATOM     12 CL   UNL     1     -18.790  57.500 -28.969  0.00  0.00    +0.000 Cl
ATOM     13  C   UNL     1     -17.936  53.639 -28.405  0.00  0.00    +0.000 A 
ATOM     14  C   UNL     1     -18.050  55.028 -28.272  0.00  0.00    +0.000 A 
ATOM     15  C   UNL     1     -18.505  53.051 -29.543  0.00  0.00    +0.000 A 
ATOM     16  C   UNL     1     -19.156  53.814 -30.510  0.00  0.00    +0.000 A 
ATOM     17  C   UNL     1     -18.705  55.801 -29.231  0.00  0.00    +0.000 A 
ATOM     18  C   UNL     1     -19.262  55.195 -30.358  0.00  0.00    +0.000 A 
BRANCH  18  19
ATOM     19  O   UNL     1     -19.900  55.960 -31.299  0.00  0.00    +0.000 OA
ATOM     20  H   UNL     1     -19.980  56.868 -30.953  0.00  0.00    +0.000 HD
ENDBRANCH  18  19
ENDBRANCH   9  13
BRANCH   5  21
ATOM     21  C   UNL     1     -13.658  53.320 -22.439  0.00  0.00    +0.000 C 
ATOM     22  O   UNL     1     -14.075  53.731 -21.369  0.00  0.00    +0.000 OA
ATOM     23  C   UNL     1     -12.179  53.531 -22.556  0.00  0.00    +0.000 C 
ENDBRANCH   5  21
BRANCH   3  24
ATOM     24  N   UNL     1     -15.143  54.941 -24.325  0.00  0.00    +0.000 N 
ATOM     25  H   UNL     1     -14.452  55.419 -24.910  0.00  0.00    +0.000 HD
BRANCH  24  26
ATOM     26  C   UNL     1     -16.166  55.752 -23.918  0.00  0.00    +0.000 A 
ATOM     27  C   UNL     1     -16.486  56.888 -24.745  0.00  0.00    +0.000 A 
ATOM     28  C   UNL     1     -16.848  58.310 -24.245  0.00  0.00    +0.000 A 
ATOM     29  C   UNL     1     -16.907  58.707 -22.859  0.00  0.00    +0.000 A 
ATOM     30  C   UNL     1     -16.562  57.579 -22.030  0.00  0.00    +0.000 A 
ATOM     31  C   UNL     1     -16.200  56.161 -22.535  0.00  0.00    +0.000 A 
BRANCH  29  32
ATOM     32  C   UNL     1     -17.366  59.956 -22.384  0.00  0.00    +0.000 C 
BRANCH  32  33
ATOM     33  N   UNL     1     -17.821  61.247 -21.899  0.00  0.00    +0.000 NA
ATOM     34  C   UNL     1     -18.881  61.696 -22.788  0.00  0.00    +0.000 C 
ATOM     35  C   UNL     1     -16.716  62.180 -22.048  0.00  0.00    +0.000 C 
ENDBRANCH  32  33
ENDBRANCH  29  32
ENDBRANCH  24  26
ENDBRANCH   3  24
TORSDOF 7
ENDMDL
MODEL 5
REMARK VINA RESULT:      -5.8     23.086     24.489
REMARK  Name = OTSSP167.pdbqt.pdb
REMARK  7 active torsions:
REMARK  status: ('A' for Active; 'I' for Inactive)
REMARK    1  A    between atoms: C_5  and  N_19
REMARK    2  A    between atoms: C_7  and  C_31
REMARK    3  A    between atoms: C_11  and  C_13
REMARK    4  A    between atoms: C_18  and  O_34
REMARK    5  A    between atoms: N_19  and  C_21
REMARK    6  A    between atoms: C_24  and  C_27
REMARK    7  A    between atoms: C_27  and  N_28
REMARK                            x       y       z     vdW  Elec       q    Type
REMARK                         _______ _______ _______ _____ _____    ______ ____
ROOT
ATOM      1  N   UNL     1     -34.630  47.101 -14.771  0.00  0.00    +0.000 NA
ATOM      2  N   UNL     1     -33.040  46.801 -18.047  0.00  0.00    +0.000 NA
ATOM      3  C   UNL     1     -34.893  48.485 -16.758  0.00  0.00    +0.000 A 
ATOM      4  C   UNL     1     -34.311  47.395 -16.056  0.00  0.00    +0.000 A 
ATOM      5  C   UNL     1     -34.519  48.688 -18.102  0.00  0.00    +0.000 A 
ATOM      6  C   UNL     1     -33.394  46.593 -16.769  0.00  0.00    +0.000 A 
ATOM      7  C   UNL     1     -33.608  47.839 -18.689  0.00  0.00    +0.000 A 
ATOM      8  C   UNL     1     -32.830  45.523 -16.098  0.00  0.00    +0.000 A 
ATOM      9  C   UNL     1     -34.055  46.051 -14.135  0.00  0.00    +0.000 A 
ATOM     10  C   UNL     1     -33.146  45.235 -14.779  0.00  0.00    +0.000 A 
ENDROOT
BRANCH   9  13
ATOM     11 CL   UNL     1     -32.930  43.997  -9.530  0.00  0.00    +0.000 Cl
ATOM     12 CL   UNL     1     -37.514  46.821 -10.372  0.00  0.00    +0.000 Cl
ATOM     13  C   UNL     1     -34.444  45.852 -12.737  0.00  0.00    +0.000 A 
ATOM     14  C   UNL     1     -35.645  46.358 -12.227  0.00  0.00    +0.000 A 
ATOM     15  C   UNL     1     -33.624  45.130 -11.860  0.00  0.00    +0.000 A 
ATOM     16  C   UNL     1     -33.986  44.916 -10.532  0.00  0.00    +0.000 A 
ATOM     17  C   UNL     1     -36.015  46.154 -10.897  0.00  0.00    +0.000 A 
ATOM     18  C   UNL     1     -35.186  45.429 -10.041  0.00  0.00    +0.000 A 
BRANCH  18  19
ATOM     19  O   UNL     1     -35.556  45.229  -8.738  0.00  0.00    +0.000 OA
ATOM     20  H   UNL     1     -36.274  45.854  -8.523  0.00  0.00    +0.000 HD
ENDBRANCH  18  19
ENDBRANCH   9  13
BRANCH   5  21
ATOM     21  C   UNL     1     -35.085  49.747 -18.935  0.00  0.00    +0.000 C 
ATOM     22  O   UNL     1     -35.367  50.868 -18.547  0.00  0.00    +0.000 OA
ATOM     23  C   UNL     1     -35.442  49.573 -20.380  0.00  0.00    +0.000 C 
ENDBRANCH   5  21
BRANCH   3  24
ATOM     24  N   UNL     1     -35.757  49.441 -16.134  0.00  0.00    +0.000 N 
ATOM     25  H   UNL     1     -35.522  50.418 -16.333  0.00  0.00    +0.000 HD
BRANCH  24  26
ATOM     26  C   UNL     1     -37.050  49.263 -15.727  0.00  0.00    +0.000 A 
ATOM     27  C   UNL     1     -37.357  49.529 -14.345  0.00  0.00    +0.000 A 
ATOM     28  C   UNL     1     -38.292  48.688 -13.438  0.00  0.00    +0.000 A 
ATOM     29  C   UNL     1     -38.990  47.495 -13.853  0.00  0.00    +0.000 A 
ATOM     30  C   UNL     1     -38.665  47.212 -15.228  0.00  0.00    +0.000 A 
ATOM     31  C   UNL     1     -37.729  48.055 -16.129  0.00  0.00    +0.000 A 
BRANCH  29  32
ATOM     32  C   UNL     1     -39.948  46.799 -13.084  0.00  0.00    +0.000 C 
BRANCH  32  33
ATOM     33  N   UNL     1     -40.922  46.084 -12.278  0.00  0.00    +0.000 NA
ATOM     34  C   UNL     1     -41.993  45.659 -13.164  0.00  0.00    +0.000 C 
ATOM     35  C   UNL     1     -41.496  47.038 -11.343  0.00  0.00    +0.000 C 
ENDBRANCH  32  33
ENDBRANCH  29  32
ENDBRANCH  24  26
ENDBRANCH   3  24
TORSDOF 7
ENDMDL
MODEL 6
REMARK VINA RESULT:      -5.8      3.848      9.153
REMARK  Name = OTSSP167.pdbqt.pdb
REMARK  7 active torsions:
REMARK  status: ('A' for Active; 'I' for Inactive)
REMARK    1  A    between atoms: C_5  and  N_19
REMARK    2  A    between atoms: C_7  and  C_31
REMARK    3  A    between atoms: C_11  and  C_13
REMARK    4  A    between atoms: C_18  and  O_34
REMARK    5  A    between atoms: N_19  and  C_21
REMARK    6  A    between atoms: C_24  and  C_27
REMARK    7  A    between atoms: C_27  and  N_28
REMARK                            x       y       z     vdW  Elec       q    Type
REMARK                         _______ _______ _______ _____ _____    ______ ____
ROOT
ATOM      1  N   UNL     1     -16.997  55.592 -25.233  0.00  0.00    +0.000 NA
ATOM      2  N   UNL     1     -15.112  53.796 -22.670  0.00  0.00    +0.000 NA
ATOM      3  C   UNL     1     -16.405  56.278 -22.973  0.00  0.00    +0.000 A 
ATOM      4  C   UNL     1     -16.409  55.338 -24.038  0.00  0.00    +0.000 A 
ATOM      5  C   UNL     1     -15.738  55.933 -21.780  0.00  0.00    +0.000 A 
ATOM      6  C   UNL     1     -15.738  54.117 -23.814  0.00  0.00    +0.000 A 
ATOM      7  C   UNL     1     -15.122  54.706 -21.679  0.00  0.00    +0.000 A 
ATOM      8  C   UNL     1     -15.726  53.198 -24.848  0.00  0.00    +0.000 A 
ATOM      9  C   UNL     1     -16.979  54.669 -26.226  0.00  0.00    +0.000 A 
ATOM     10  C   UNL     1     -16.343  53.454 -26.063  0.00  0.00    +0.000 A 
ENDROOT
BRANCH   9  13
ATOM     11 CL   UNL     1     -19.412  53.102 -30.506  0.00  0.00    +0.000 Cl
ATOM     12 CL   UNL     1     -18.685  58.385 -29.389  0.00  0.00    +0.000 Cl
ATOM     13  C   UNL     1     -17.680  55.035 -27.459  0.00  0.00    +0.000 A 
ATOM     14  C   UNL     1     -17.859  56.371 -27.838  0.00  0.00    +0.000 A 
ATOM     15  C   UNL     1     -18.188  54.049 -28.316  0.00  0.00    +0.000 A 
ATOM     16  C   UNL     1     -18.841  54.377 -29.501  0.00  0.00    +0.000 A 
ATOM     17  C   UNL     1     -18.517  56.712 -29.020  0.00  0.00    +0.000 A 
ATOM     18  C   UNL     1     -19.012  55.714 -29.860  0.00  0.00    +0.000 A 
BRANCH  18  19
ATOM     19  O   UNL     1     -19.654  56.054 -31.021  0.00  0.00    +0.000 OA
ATOM     20  H   UNL     1     -20.248  55.321 -31.269  0.00  0.00    +0.000 HD
ENDBRANCH  18  19
ENDBRANCH   9  13
BRANCH   5  21
ATOM     21  C   UNL     1     -15.629  56.837 -20.637  0.00  0.00    +0.000 C 
ATOM     22  O   UNL     1     -16.568  57.393 -20.093  0.00  0.00    +0.000 OA
ATOM     23  C   UNL     1     -14.329  57.239 -20.010  0.00  0.00    +0.000 C 
ENDBRANCH   5  21
BRANCH   3  24
ATOM     24  N   UNL     1     -17.131  57.511 -23.020  0.00  0.00    +0.000 N 
ATOM     25  H   UNL     1     -17.966  57.535 -22.427  0.00  0.00    +0.000 HD
BRANCH  24  26
ATOM     26  C   UNL     1     -16.657  58.753 -23.342  0.00  0.00    +0.000 A 
ATOM     27  C   UNL     1     -17.320  59.892 -22.760  0.00  0.00    +0.000 A 
ATOM     28  C   UNL     1     -17.653  61.223 -23.482  0.00  0.00    +0.000 A 
ATOM     29  C   UNL     1     -17.350  61.511 -24.864  0.00  0.00    +0.000 A 
ATOM     30  C   UNL     1     -16.710  60.364 -25.456  0.00  0.00    +0.000 A 
ATOM     31  C   UNL     1     -16.381  59.035 -24.730  0.00  0.00    +0.000 A 
BRANCH  29  32
ATOM     32  C   UNL     1     -17.522  62.763 -25.495  0.00  0.00    +0.000 C 
BRANCH  32  33
ATOM     33  N   UNL     1     -17.703  64.041 -26.161  0.00  0.00    +0.000 NA
ATOM     34  C   UNL     1     -18.801  64.725 -25.497  0.00  0.00    +0.000 C 
ATOM     35  C   UNL     1     -18.134  63.764 -27.521  0.00  0.00    +0.000 C 
ENDBRANCH  32  33
ENDBRANCH  29  32
ENDBRANCH  24  26
ENDBRANCH   3  24
TORSDOF 7
ENDMDL
MODEL 7
REMARK VINA RESULT:      -5.8     19.837     21.361
REMARK  Name = OTSSP167.pdbqt.pdb
REMARK  7 active torsions:
REMARK  status: ('A' for Active; 'I' for Inactive)
REMARK    1  A    between atoms: C_5  and  N_19
REMARK    2  A    between atoms: C_7  and  C_31
REMARK    3  A    between atoms: C_11  and  C_13
REMARK    4  A    between atoms: C_18  and  O_34
REMARK    5  A    between atoms: N_19  and  C_21
REMARK    6  A    between atoms: C_24  and  C_27
REMARK    7  A    between atoms: C_27  and  N_28
REMARK                            x       y       z     vdW  Elec       q    Type
REMARK                         _______ _______ _______ _____ _____    ______ ____
ROOT
ATOM      1  N   UNL     1     -33.893  46.890 -19.803  0.00  0.00    +0.000 NA
ATOM      2  N   UNL     1     -36.538  47.171 -22.309  0.00  0.00    +0.000 NA
ATOM      3  C   UNL     1     -35.292  48.799 -20.378  0.00  0.00    +0.000 A 
ATOM      4  C   UNL     1     -34.872  47.453 -20.554  0.00  0.00    +0.000 A 
ATOM      5  C   UNL     1     -36.340  49.282 -21.188  0.00  0.00    +0.000 A 
ATOM      6  C   UNL     1     -35.545  46.698 -21.538  0.00  0.00    +0.000 A 
ATOM      7  C   UNL     1     -36.917  48.448 -22.119  0.00  0.00    +0.000 A 
ATOM      8  C   UNL     1     -35.151  45.383 -21.710  0.00  0.00    +0.000 A 
ATOM      9  C   UNL     1     -33.521  45.602 -19.999  0.00  0.00    +0.000 A 
ATOM     10  C   UNL     1     -34.138  44.815 -20.952  0.00  0.00    +0.000 A 
ENDROOT
BRANCH   9  13
ATOM     11 CL   UNL     1     -31.520  45.117 -15.261  0.00  0.00    +0.000 Cl
ATOM     12 CL   UNL     1     -28.938  43.233 -19.673  0.00  0.00    +0.000 Cl
ATOM     13  C   UNL     1     -32.426  45.111 -19.159  0.00  0.00    +0.000 A 
ATOM     14  C   UNL     1     -31.309  44.467 -19.705  0.00  0.00    +0.000 A 
ATOM     15  C   UNL     1     -32.454  45.285 -17.769  0.00  0.00    +0.000 A 
ATOM     16  C   UNL     1     -31.414  44.841 -16.956  0.00  0.00    +0.000 A 
ATOM     17  C   UNL     1     -30.263  44.013 -18.900  0.00  0.00    +0.000 A 
ATOM     18  C   UNL     1     -30.311  44.200 -17.518  0.00  0.00    +0.000 A 
BRANCH  18  19
ATOM     19  O   UNL     1     -29.280  43.756 -16.733  0.00  0.00    +0.000 OA
ATOM     20  H   UNL     1     -28.482  44.271 -16.954  0.00  0.00    +0.000 HD
ENDBRANCH  18  19
ENDBRANCH   9  13
BRANCH   5  21
ATOM     21  C   UNL     1     -36.886  50.632 -21.064  0.00  0.00    +0.000 C 
ATOM     22  O   UNL     1     -36.256  51.661 -21.246  0.00  0.00    +0.000 OA
ATOM     23  C   UNL     1     -38.293  50.930 -20.644  0.00  0.00    +0.000 C 
ENDBRANCH   5  21
BRANCH   3  24
ATOM     24  N   UNL     1     -34.633  49.711 -19.493  0.00  0.00    +0.000 N 
ATOM     25  H   UNL     1     -34.358  50.598 -19.925  0.00  0.00    +0.000 HD
BRANCH  24  26
ATOM     26  C   UNL     1     -34.730  49.777 -18.131  0.00  0.00    +0.000 A 
ATOM     27  C   UNL     1     -33.785  49.013 -17.357  0.00  0.00    +0.000 A 
ATOM     28  C   UNL     1     -34.098  48.203 -16.072  0.00  0.00    +0.000 A 
ATOM     29  C   UNL     1     -35.402  48.089 -15.465  0.00  0.00    +0.000 A 
ATOM     30  C   UNL     1     -36.355  48.831 -16.252  0.00  0.00    +0.000 A 
ATOM     31  C   UNL     1     -36.037  49.637 -17.536  0.00  0.00    +0.000 A 
BRANCH  29  32
ATOM     32  C   UNL     1     -35.676  47.471 -14.225  0.00  0.00    +0.000 C 
BRANCH  32  33
ATOM     33  N   UNL     1     -35.941  46.827 -12.951  0.00  0.00    +0.000 NA
ATOM     34  C   UNL     1     -34.905  45.829 -12.744  0.00  0.00    +0.000 C 
ATOM     35  C   UNL     1     -37.201  46.114 -13.079  0.00  0.00    +0.000 C 
ENDBRANCH  32  33
ENDBRANCH  29  32
ENDBRANCH  24  26
ENDBRANCH   3  24
TORSDOF 7
ENDMDL
MODEL 8
REMARK VINA RESULT:      -5.7      5.019      9.212
REMARK  Name = OTSSP167.pdbqt.pdb
REMARK  7 active torsions:
REMARK  status: ('A' for Active; 'I' for Inactive)
REMARK    1  A    between atoms: C_5  and  N_19
REMARK    2  A    between atoms: C_7  and  C_31
REMARK    3  A    between atoms: C_11  and  C_13
REMARK    4  A    between atoms: C_18  and  O_34
REMARK    5  A    between atoms: N_19  and  C_21
REMARK    6  A    between atoms: C_24  and  C_27
REMARK    7  A    between atoms: C_27  and  N_28
REMARK                            x       y       z     vdW  Elec       q    Type
REMARK                         _______ _______ _______ _____ _____    ______ ____
ROOT
ATOM      1  N   UNL     1     -16.418  58.853 -20.219  0.00  0.00    +0.000 NA
ATOM      2  N   UNL     1     -15.752  58.126 -16.701  0.00  0.00    +0.000 NA
ATOM      3  C   UNL     1     -15.328  56.924 -19.211  0.00  0.00    +0.000 A 
ATOM      4  C   UNL     1     -15.967  58.189 -19.126  0.00  0.00    +0.000 A 
ATOM      5  C   UNL     1     -14.924  56.298 -18.013  0.00  0.00    +0.000 A 
ATOM      6  C   UNL     1     -16.148  58.728 -17.834  0.00  0.00    +0.000 A 
ATOM      7  C   UNL     1     -15.152  56.927 -16.810  0.00  0.00    +0.000 A 
ATOM      8  C   UNL     1     -16.780  59.955 -17.739  0.00  0.00    +0.000 A 
ATOM      9  C   UNL     1     -17.025  60.059 -20.098  0.00  0.00    +0.000 A 
ATOM     10  C   UNL     1     -17.225  60.640 -18.860  0.00  0.00    +0.000 A 
ENDROOT
BRANCH   9  13
ATOM     11 CL   UNL     1     -19.855  63.706 -22.418  0.00  0.00    +0.000 Cl
ATOM     12 CL   UNL     1     -16.740  60.251 -25.255  0.00  0.00    +0.000 Cl
ATOM     13  C   UNL     1     -17.435  60.704 -21.348  0.00  0.00    +0.000 A 
ATOM     14  C   UNL     1     -16.970  60.262 -22.592  0.00  0.00    +0.000 A 
ATOM     15  C   UNL     1     -18.325  61.785 -21.340  0.00  0.00    +0.000 A 
ATOM     16  C   UNL     1     -18.740  62.399 -22.519  0.00  0.00    +0.000 A 
ATOM     17  C   UNL     1     -17.374  60.872 -23.780  0.00  0.00    +0.000 A 
ATOM     18  C   UNL     1     -18.264  61.946 -23.749  0.00  0.00    +0.000 A 
BRANCH  18  19
ATOM     19  O   UNL     1     -18.660  62.539 -24.919  0.00  0.00    +0.000 OA
ATOM     20  H   UNL     1     -17.935  63.111 -25.234  0.00  0.00    +0.000 HD
ENDBRANCH  18  19
ENDBRANCH   9  13
BRANCH   5  21
ATOM     21  C   UNL     1     -14.300  54.978 -17.974  0.00  0.00    +0.000 C 
ATOM     22  O   UNL     1     -14.824  53.944 -18.353  0.00  0.00    +0.000 OA
ATOM     23  C   UNL     1     -12.936  54.713 -17.411  0.00  0.00    +0.000 C 
ENDBRANCH   5  21
BRANCH   3  24
ATOM     24  N   UNL     1     -14.985  56.306 -20.456  0.00  0.00    +0.000 N 
ATOM     25  H   UNL     1     -14.007  56.010 -20.528  0.00  0.00    +0.000 HD
BRANCH  24  26
ATOM     26  C   UNL     1     -15.815  55.657 -21.327  0.00  0.00    +0.000 A 
ATOM     27  C   UNL     1     -15.423  54.343 -21.770  0.00  0.00    +0.000 A 
ATOM     28  C   UNL     1     -15.556  53.786 -23.211  0.00  0.00    +0.000 A 
ATOM     29  C   UNL     1     -16.090  54.519 -24.333  0.00  0.00    +0.000 A 
ATOM     30  C   UNL     1     -16.459  55.843 -23.899  0.00  0.00    +0.000 A 
ATOM     31  C   UNL     1     -16.323  56.395 -22.459  0.00  0.00    +0.000 A 
BRANCH  29  32
ATOM     32  C   UNL     1     -16.343  53.982 -25.615  0.00  0.00    +0.000 C 
BRANCH  32  33
ATOM     33  N   UNL     1     -16.594  53.415 -26.928  0.00  0.00    +0.000 NA
ATOM     34  C   UNL     1     -17.956  53.762 -27.299  0.00  0.00    +0.000 C 
ATOM     35  C   UNL     1     -16.545  51.968 -26.792  0.00  0.00    +0.000 C 
ENDBRANCH  32  33
ENDBRANCH  29  32
ENDBRANCH  24  26
ENDBRANCH   3  24
TORSDOF 7
ENDMDL
MODEL 9
REMARK VINA RESULT:      -5.7     27.976     31.561
REMARK  Name = OTSSP167.pdbqt.pdb
REMARK  7 active torsions:
REMARK  status: ('A' for Active; 'I' for Inactive)
REMARK    1  A    between atoms: C_5  and  N_19
REMARK    2  A    between atoms: C_7  and  C_31
REMARK    3  A    between atoms: C_11  and  C_13
REMARK    4  A    between atoms: C_18  and  O_34
REMARK    5  A    between atoms: N_19  and  C_21
REMARK    6  A    between atoms: C_24  and  C_27
REMARK    7  A    between atoms: C_27  and  N_28
REMARK                            x       y       z     vdW  Elec       q    Type
REMARK                         _______ _______ _______ _____ _____    ______ ____
ROOT
ATOM      1  N   UNL     1     -16.830  49.161   5.223  0.00  0.00    +0.000 NA
ATOM      2  N   UNL     1     -16.887  52.229   7.206  0.00  0.00    +0.000 NA
ATOM      3  C   UNL     1     -17.322  51.446   4.537  0.00  0.00    +0.000 A 
ATOM      4  C   UNL     1     -16.983  50.476   5.519  0.00  0.00    +0.000 A 
ATOM      5  C   UNL     1     -17.427  52.793   4.939  0.00  0.00    +0.000 A 
ATOM      6  C   UNL     1     -16.777  50.944   6.834  0.00  0.00    +0.000 A 
ATOM      7  C   UNL     1     -17.206  53.127   6.256  0.00  0.00    +0.000 A 
ATOM      8  C   UNL     1     -16.436  50.010   7.795  0.00  0.00    +0.000 A 
ATOM      9  C   UNL     1     -16.504  48.266   6.186  0.00  0.00    +0.000 A 
ATOM     10  C   UNL     1     -16.296  48.663   7.493  0.00  0.00    +0.000 A 
ENDROOT
BRANCH   9  13
ATOM     11 CL   UNL     1     -15.383  44.905   2.426  0.00  0.00    +0.000 Cl
ATOM     12 CL   UNL     1     -17.093  43.260   7.331  0.00  0.00    +0.000 Cl
ATOM     13  C   UNL     1     -16.404  46.868   5.761  0.00  0.00    +0.000 A 
ATOM     14  C   UNL     1     -16.741  45.811   6.615  0.00  0.00    +0.000 A 
ATOM     15  C   UNL     1     -15.978  46.539   4.467  0.00  0.00    +0.000 A 
ATOM     16  C   UNL     1     -15.895  45.217   4.040  0.00  0.00    +0.000 A 
ATOM     17  C   UNL     1     -16.656  44.482   6.200  0.00  0.00    +0.000 A 
ATOM     18  C   UNL     1     -16.232  44.178   4.906  0.00  0.00    +0.000 A 
BRANCH  18  19
ATOM     19  O   UNL     1     -16.154  42.871   4.502  0.00  0.00    +0.000 OA
ATOM     20  H   UNL     1     -15.214  42.612   4.483  0.00  0.00    +0.000 HD
ENDBRANCH  18  19
ENDBRANCH   9  13
BRANCH   5  21
ATOM     21  C   UNL     1     -17.724  53.881   4.010  0.00  0.00    +0.000 C 
ATOM     22  O   UNL     1     -18.627  53.875   3.191  0.00  0.00    +0.000 OA
ATOM     23  C   UNL     1     -16.916  55.140   3.910  0.00  0.00    +0.000 C 
ENDBRANCH   5  21
BRANCH   3  24
ATOM     24  N   UNL     1     -17.661  51.104   3.189  0.00  0.00    +0.000 N 
ATOM     25  H   UNL     1     -18.567  51.463   2.875  0.00  0.00    +0.000 HD
BRANCH  24  26
ATOM     26  C   UNL     1     -16.811  50.798   2.162  0.00  0.00    +0.000 A 
ATOM     27  C   UNL     1     -16.513  49.407   1.934  0.00  0.00    +0.000 A 
ATOM     28  C   UNL     1     -15.125  48.816   1.576  0.00  0.00    +0.000 A 
ATOM     29  C   UNL     1     -13.913  49.586   1.428  0.00  0.00    +0.000 A 
ATOM     30  C   UNL     1     -14.203  50.975   1.681  0.00  0.00    +0.000 A 
ATOM     31  C   UNL     1     -15.592  51.560   2.039  0.00  0.00    +0.000 A 
BRANCH  29  32
ATOM     32  C   UNL     1     -12.676  49.083   0.971  0.00  0.00    +0.000 C 
BRANCH  32  33
ATOM     33  N   UNL     1     -11.407  48.571   0.482  0.00  0.00    +0.000 NA
ATOM     34  C   UNL     1     -10.883  49.540  -0.466  0.00  0.00    +0.000 C 
ATOM     35  C   UNL     1     -11.689  47.355  -0.264  0.00  0.00    +0.000 C 
ENDBRANCH  32  33
ENDBRANCH  29  32
ENDBRANCH  24  26
ENDBRANCH   3  24
TORSDOF 7
ENDMDL
