MODEL 1
REMARK VINA RESULT:      -5.8      0.000      0.000
REMARK  Name = 
REMARK  0 active torsions:
REMARK  status: ('A' for Active; 'I' for Inactive)
REMARK                            x       y       z     vdW  Elec       q    Type
REMARK                         _______ _______ _______ _____ _____    ______ ____
ROOT
ATOM      1  O   UNL     1     -36.472  43.754  -9.303  0.00  0.00    +0.000 OA
ATOM      2  O   UNL     1     -35.070  46.279  -4.966  0.00  0.00    +0.000 OA
ATOM      3  N   UNL     1     -36.281  44.608 -10.353  0.00  0.00    +0.000 N 
ATOM      4  N   UNL     1     -34.601  45.797  -7.180  0.00  0.00    +0.000 N 
ATOM      5  C   UNL     1     -35.415  45.828  -9.984  0.00  0.00    +0.000 C 
ATOM      6  C   UNL     1     -33.981  45.446  -9.567  0.00  0.00    +0.000 C 
ATOM      7  C   UNL     1     -36.072  46.742  -8.943  0.00  0.00    +0.000 C 
ATOM      8  C   UNL     1     -33.919  44.878  -8.120  0.00  0.00    +0.000 C 
ATOM      9  C   UNL     1     -33.340  44.568 -10.657  0.00  0.00    +0.000 C 
ATOM     10  C   UNL     1     -35.977  46.160  -7.533  0.00  0.00    +0.000 C 
ATOM     11  C   UNL     1     -35.602  43.840 -11.467  0.00  0.00    +0.000 C 
ATOM     12  C   UNL     1     -37.508  47.112  -9.337  0.00  0.00    +0.000 C 
ATOM     13  C   UNL     1     -37.635  45.092 -10.830  0.00  0.00    +0.000 C 
ATOM     14  C   UNL     1     -34.208  43.381 -11.053  0.00  0.00    +0.000 C 
ATOM     15  C   UNL     1     -38.344  45.909  -9.758  0.00  0.00    +0.000 C 
ATOM     16  C   UNL     1     -32.466  44.601  -7.704  0.00  0.00    +0.000 C 
ATOM     17  C   UNL     1     -32.403  44.216  -6.239  0.00  0.00    +0.000 C 
ATOM     18  C   UNL     1     -34.309  45.809  -5.814  0.00  0.00    +0.000 C 
ATOM     19  C   UNL     1     -32.924  45.364  -5.405  0.00  0.00    +0.000 C 
ENDROOT
TORSDOF 0
ENDMDL
MODEL 2
REMARK VINA RESULT:      -5.6      1.740      5.155
REMARK  Name = 
REMARK  0 active torsions:
REMARK  status: ('A' for Active; 'I' for Inactive)
REMARK                            x       y       z     vdW  Elec       q    Type
REMARK                         _______ _______ _______ _____ _____    ______ ____
ROOT
ATOM      1  O   UNL     1     -35.627  44.001  -7.472  0.00  0.00    +0.000 OA
ATOM      2  O   UNL     1     -32.923  44.607 -11.885  0.00  0.00    +0.000 OA
ATOM      3  N   UNL     1     -35.474  45.144  -6.739  0.00  0.00    +0.000 N 
ATOM      4  N   UNL     1     -34.351  45.551 -10.326  0.00  0.00    +0.000 N 
ATOM      5  C   UNL     1     -34.901  46.313  -7.563  0.00  0.00    +0.000 C 
ATOM      6  C   UNL     1     -35.826  46.749  -8.717  0.00  0.00    +0.000 C 
ATOM      7  C   UNL     1     -33.474  46.058  -8.060  0.00  0.00    +0.000 C 
ATOM      8  C   UNL     1     -35.759  45.773  -9.926  0.00  0.00    +0.000 C 
ATOM      9  C   UNL     1     -37.236  47.040  -8.170  0.00  0.00    +0.000 C 
ATOM     10  C   UNL     1     -33.449  45.110  -9.258  0.00  0.00    +0.000 C 
ATOM     11  C   UNL     1     -36.832  45.541  -6.197  0.00  0.00    +0.000 C 
ATOM     12  C   UNL     1     -32.549  45.604  -6.924  0.00  0.00    +0.000 C 
ATOM     13  C   UNL     1     -34.539  44.851  -5.583  0.00  0.00    +0.000 C 
ATOM     14  C   UNL     1     -37.793  45.903  -7.323  0.00  0.00    +0.000 C 
ATOM     15  C   UNL     1     -33.144  44.486  -6.075  0.00  0.00    +0.000 C 
ATOM     16  C   UNL     1     -36.616  46.291 -11.092  0.00  0.00    +0.000 C 
ATOM     17  C   UNL     1     -36.406  45.429 -12.322  0.00  0.00    +0.000 C 
ATOM     18  C   UNL     1     -34.004  45.134 -11.614  0.00  0.00    +0.000 C 
ATOM     19  C   UNL     1     -34.953  45.502 -12.732  0.00  0.00    +0.000 C 
ENDROOT
TORSDOF 0
ENDMDL
MODEL 3
REMARK VINA RESULT:      -5.5      2.224      5.162
REMARK  Name = 
REMARK  0 active torsions:
REMARK  status: ('A' for Active; 'I' for Inactive)
REMARK                            x       y       z     vdW  Elec       q    Type
REMARK                         _______ _______ _______ _____ _____    ______ ____
ROOT
ATOM      1  O   UNL     1     -35.145  43.754  -5.146  0.00  0.00    +0.000 OA
ATOM      2  O   UNL     1     -38.104  44.263  -9.404  0.00  0.00    +0.000 OA
ATOM      3  N   UNL     1     -33.941  43.243  -5.543  0.00  0.00    +0.000 N 
ATOM      4  N   UNL     1     -36.015  44.512  -8.439  0.00  0.00    +0.000 N 
ATOM      5  C   UNL     1     -33.725  43.330  -7.066  0.00  0.00    +0.000 C 
ATOM      6  C   UNL     1     -33.689  44.780  -7.588  0.00  0.00    +0.000 C 
ATOM      7  C   UNL     1     -34.716  42.476  -7.866  0.00  0.00    +0.000 C 
ATOM      8  C   UNL     1     -35.109  45.408  -7.684  0.00  0.00    +0.000 C 
ATOM      9  C   UNL     1     -32.652  45.592  -6.792  0.00  0.00    +0.000 C 
ATOM     10  C   UNL     1     -36.094  43.131  -7.952  0.00  0.00    +0.000 C 
ATOM     11  C   UNL     1     -32.845  44.021  -4.845  0.00  0.00    +0.000 C 
ATOM     12  C   UNL     1     -34.776  41.035  -7.341  0.00  0.00    +0.000 C 
ATOM     13  C   UNL     1     -33.873  41.790  -5.119  0.00  0.00    +0.000 C 
ATOM     14  C   UNL     1     -32.836  45.480  -5.285  0.00  0.00    +0.000 C 
ATOM     15  C   UNL     1     -34.930  40.953  -5.827  0.00  0.00    +0.000 C 
ATOM     16  C   UNL     1     -35.043  46.814  -8.300  0.00  0.00    +0.000 C 
ATOM     17  C   UNL     1     -36.442  47.345  -8.549  0.00  0.00    +0.000 C 
ATOM     18  C   UNL     1     -37.161  44.988  -9.080  0.00  0.00    +0.000 C 
ATOM     19  C   UNL     1     -37.147  46.432  -9.526  0.00  0.00    +0.000 C 
ENDROOT
TORSDOF 0
ENDMDL
MODEL 4
REMARK VINA RESULT:      -5.3      9.438     11.330
REMARK  Name = 
REMARK  0 active torsions:
REMARK  status: ('A' for Active; 'I' for Inactive)
REMARK                            x       y       z     vdW  Elec       q    Type
REMARK                         _______ _______ _______ _____ _____    ______ ____
ROOT
ATOM      1  O   UNL     1     -34.907  50.603 -19.497  0.00  0.00    +0.000 OA
ATOM      2  O   UNL     1     -32.419  46.367 -17.761  0.00  0.00    +0.000 OA
ATOM      3  N   UNL     1     -35.999  50.176 -20.200  0.00  0.00    +0.000 N 
ATOM      4  N   UNL     1     -34.443  47.433 -18.114  0.00  0.00    +0.000 N 
ATOM      5  C   UNL     1     -36.331  48.692 -19.951  0.00  0.00    +0.000 C 
ATOM      6  C   UNL     1     -36.709  48.396 -18.486  0.00  0.00    +0.000 C 
ATOM      7  C   UNL     1     -35.238  47.738 -20.446  0.00  0.00    +0.000 C 
ATOM      8  C   UNL     1     -35.465  48.346 -17.554  0.00  0.00    +0.000 C 
ATOM      9  C   UNL     1     -37.840  49.342 -18.041  0.00  0.00    +0.000 C 
ATOM     10  C   UNL     1     -34.040  47.702 -19.498  0.00  0.00    +0.000 C 
ATOM     11  C   UNL     1     -37.185  51.022 -19.787  0.00  0.00    +0.000 C 
ATOM     12  C   UNL     1     -34.837  48.037 -21.897  0.00  0.00    +0.000 C 
ATOM     13  C   UNL     1     -35.728  50.379 -21.677  0.00  0.00    +0.000 C 
ATOM     14  C   UNL     1     -37.534  50.808 -18.319  0.00  0.00    +0.000 C 
ATOM     15  C   UNL     1     -34.567  49.515 -22.153  0.00  0.00    +0.000 C 
ATOM     16  C   UNL     1     -35.870  47.952 -16.125  0.00  0.00    +0.000 C 
ATOM     17  C   UNL     1     -34.636  47.735 -15.270  0.00  0.00    +0.000 C 
ATOM     18  C   UNL     1     -33.470  46.830 -17.313  0.00  0.00    +0.000 C 
ATOM     19  C   UNL     1     -33.821  46.608 -15.859  0.00  0.00    +0.000 C 
ENDROOT
TORSDOF 0
ENDMDL
MODEL 5
REMARK VINA RESULT:      -5.3     24.583     25.961
REMARK  Name = 
REMARK  0 active torsions:
REMARK  status: ('A' for Active; 'I' for Inactive)
REMARK                            x       y       z     vdW  Elec       q    Type
REMARK                         _______ _______ _______ _____ _____    ______ ____
ROOT
ATOM      1  O   UNL     1     -28.966  60.090 -25.790  0.00  0.00    +0.000 OA
ATOM      2  O   UNL     1     -26.259  60.007 -30.241  0.00  0.00    +0.000 OA
ATOM      3  N   UNL     1     -29.448  61.359 -25.628  0.00  0.00    +0.000 N 
ATOM      4  N   UNL     1     -28.155  60.723 -29.124  0.00  0.00    +0.000 N 
ATOM      5  C   UNL     1     -29.360  62.203 -26.914  0.00  0.00    +0.000 C 
ATOM      6  C   UNL     1     -30.215  61.639 -28.065  0.00  0.00    +0.000 C 
ATOM      7  C   UNL     1     -27.918  62.462 -27.368  0.00  0.00    +0.000 C 
ATOM      8  C   UNL     1     -29.551  60.408 -28.746  0.00  0.00    +0.000 C 
ATOM      9  C   UNL     1     -31.664  61.436 -27.584  0.00  0.00    +0.000 C 
ATOM     10  C   UNL     1     -27.305  61.237 -28.046  0.00  0.00    +0.000 C 
ATOM     11  C   UNL     1     -30.897  61.262 -25.200  0.00  0.00    +0.000 C 
ATOM     12  C   UNL     1     -27.051  63.004 -26.224  0.00  0.00    +0.000 C 
ATOM     13  C   UNL     1     -28.647  62.040 -24.537  0.00  0.00    +0.000 C 
ATOM     14  C   UNL     1     -31.755  60.634 -26.292  0.00  0.00    +0.000 C 
ATOM     15  C   UNL     1     -27.186  62.201 -24.936  0.00  0.00    +0.000 C 
ATOM     16  C   UNL     1     -30.383  59.935 -29.948  0.00  0.00    +0.000 C 
ATOM     17  C   UNL     1     -29.641  58.850 -30.706  0.00  0.00    +0.000 C 
ATOM     18  C   UNL     1     -27.487  60.028 -30.134  0.00  0.00    +0.000 C 
ATOM     19  C   UNL     1     -28.338  59.415 -31.223  0.00  0.00    +0.000 C 
ENDROOT
TORSDOF 0
ENDMDL
MODEL 6
REMARK VINA RESULT:      -5.2     26.593     27.960
REMARK  Name = 
REMARK  0 active torsions:
REMARK  status: ('A' for Active; 'I' for Inactive)
REMARK                            x       y       z     vdW  Elec       q    Type
REMARK                         _______ _______ _______ _____ _____    ______ ____
ROOT
ATOM      1  O   UNL     1     -16.197  55.142 -29.509  0.00  0.00    +0.000 OA
ATOM      2  O   UNL     1     -16.131  50.590 -26.975  0.00  0.00    +0.000 OA
ATOM      3  N   UNL     1     -17.479  55.615 -29.467  0.00  0.00    +0.000 N 
ATOM      4  N   UNL     1     -16.890  52.776 -27.040  0.00  0.00    +0.000 N 
ATOM      5  C   UNL     1     -18.353  54.886 -28.429  0.00  0.00    +0.000 C 
ATOM      6  C   UNL     1     -17.855  55.071 -26.982  0.00  0.00    +0.000 C 
ATOM      7  C   UNL     1     -18.569  53.404 -28.757  0.00  0.00    +0.000 C 
ATOM      8  C   UNL     1     -16.618  54.182 -26.666  0.00  0.00    +0.000 C 
ATOM      9  C   UNL     1     -17.695  56.572 -26.677  0.00  0.00    +0.000 C 
ATOM     10  C   UNL     1     -17.341  52.560 -28.418  0.00  0.00    +0.000 C 
ATOM     11  C   UNL     1     -17.426  57.088 -29.119  0.00  0.00    +0.000 C 
ATOM     12  C   UNL     1     -19.046  53.205 -30.202  0.00  0.00    +0.000 C 
ATOM     13  C   UNL     1     -18.098  55.446 -30.839  0.00  0.00    +0.000 C 
ATOM     14  C   UNL     1     -16.863  57.306 -27.720  0.00  0.00    +0.000 C 
ATOM     15  C   UNL     1     -18.213  53.975 -31.220  0.00  0.00    +0.000 C 
ATOM     16  C   UNL     1     -16.211  54.319 -25.191  0.00  0.00    +0.000 C 
ATOM     17  C   UNL     1     -15.120  53.322 -24.852  0.00  0.00    +0.000 C 
ATOM     18  C   UNL     1     -16.198  51.709 -26.462  0.00  0.00    +0.000 C 
ATOM     19  C   UNL     1     -15.648  51.922 -25.070  0.00  0.00    +0.000 C 
ENDROOT
TORSDOF 0
ENDMDL
MODEL 7
REMARK VINA RESULT:      -5.2     22.623     23.883
REMARK  Name = 
REMARK  0 active torsions:
REMARK  status: ('A' for Active; 'I' for Inactive)
REMARK                            x       y       z     vdW  Elec       q    Type
REMARK                         _______ _______ _______ _____ _____    ______ ____
ROOT
ATOM      1  O   UNL     1     -15.104  50.958   4.884  0.00  0.00    +0.000 OA
ATOM      2  O   UNL     1     -15.228  55.937   3.353  0.00  0.00    +0.000 OA
ATOM      3  N   UNL     1     -16.339  50.424   4.640  0.00  0.00    +0.000 N 
ATOM      4  N   UNL     1     -15.814  53.743   2.905  0.00  0.00    +0.000 N 
ATOM      5  C   UNL     1     -17.196  51.300   3.706  0.00  0.00    +0.000 C 
ATOM      6  C   UNL     1     -16.588  51.455   2.298  0.00  0.00    +0.000 C 
ATOM      7  C   UNL     1     -17.551  52.663   4.312  0.00  0.00    +0.000 C 
ATOM      8  C   UNL     1     -15.407  52.467   2.274  0.00  0.00    +0.000 C 
ATOM      9  C   UNL     1     -16.291  50.065   1.706  0.00  0.00    +0.000 C 
ATOM     10  C   UNL     1     -16.372  53.634   4.256  0.00  0.00    +0.000 C 
ATOM     11  C   UNL     1     -16.147  49.065   4.003  0.00  0.00    +0.000 C 
ATOM     12  C   UNL     1     -18.137  52.522   5.723  0.00  0.00    +0.000 C 
ATOM     13  C   UNL     1     -17.061  50.262   5.962  0.00  0.00    +0.000 C 
ATOM     14  C   UNL     1     -15.475  49.182   2.640  0.00  0.00    +0.000 C 
ATOM     15  C   UNL     1     -17.317  51.608   6.626  0.00  0.00    +0.000 C 
ATOM     16  C   UNL     1     -14.892  52.670   0.840  0.00  0.00    +0.000 C 
ATOM     17  C   UNL     1     -13.863  53.783   0.805  0.00  0.00    +0.000 C 
ATOM     18  C   UNL     1     -15.170  54.949   2.618  0.00  0.00    +0.000 C 
ATOM     19  C   UNL     1     -14.513  55.069   1.261  0.00  0.00    +0.000 C 
ENDROOT
TORSDOF 0
ENDMDL
MODEL 8
REMARK VINA RESULT:      -5.2     22.322     23.996
REMARK  Name = 
REMARK  0 active torsions:
REMARK  status: ('A' for Active; 'I' for Inactive)
REMARK                            x       y       z     vdW  Elec       q    Type
REMARK                         _______ _______ _______ _____ _____    ______ ____
ROOT
ATOM      1  O   UNL     1     -14.686  51.943   4.370  0.00  0.00    +0.000 OA
ATOM      2  O   UNL     1     -15.985  46.905   4.654  0.00  0.00    +0.000 OA
ATOM      3  N   UNL     1     -15.783  52.624   3.921  0.00  0.00    +0.000 N 
ATOM      4  N   UNL     1     -16.603  49.103   5.033  0.00  0.00    +0.000 N 
ATOM      5  C   UNL     1     -17.078  51.792   3.999  0.00  0.00    +0.000 C 
ATOM      6  C   UNL     1     -17.461  51.405   5.441  0.00  0.00    +0.000 C 
ATOM      7  C   UNL     1     -17.063  50.565   3.080  0.00  0.00    +0.000 C 
ATOM      8  C   UNL     1     -16.595  50.235   5.988  0.00  0.00    +0.000 C 
ATOM      9  C   UNL     1     -17.510  52.668   6.321  0.00  0.00    +0.000 C 
ATOM     10  C   UNL     1     -16.217  49.431   3.657  0.00  0.00    +0.000 C 
ATOM     11  C   UNL     1     -15.945  53.868   4.768  0.00  0.00    +0.000 C 
ATOM     12  C   UNL     1     -16.663  50.934   1.645  0.00  0.00    +0.000 C 
ATOM     13  C   UNL     1     -15.542  53.025   2.480  0.00  0.00    +0.000 C 
ATOM     14  C   UNL     1     -16.247  53.514   6.219  0.00  0.00    +0.000 C 
ATOM     15  C   UNL     1     -15.414  51.806   1.576  0.00  0.00    +0.000 C 
ATOM     16  C   UNL     1     -17.070  49.813   7.387  0.00  0.00    +0.000 C 
ATOM     17  C   UNL     1     -16.337  48.563   7.836  0.00  0.00    +0.000 C 
ATOM     18  C   UNL     1     -16.333  47.793   5.435  0.00  0.00    +0.000 C 
ATOM     19  C   UNL     1     -16.644  47.440   6.872  0.00  0.00    +0.000 C 
ENDROOT
TORSDOF 0
ENDMDL
MODEL 9
REMARK VINA RESULT:      -5.2     27.152     28.327
REMARK  Name = 
REMARK  0 active torsions:
REMARK  status: ('A' for Active; 'I' for Inactive)
REMARK                            x       y       z     vdW  Elec       q    Type
REMARK                         _______ _______ _______ _____ _____    ______ ____
ROOT
ATOM      1  O   UNL     1     -15.142  54.410 -27.936  0.00  0.00    +0.000 OA
ATOM      2  O   UNL     1     -18.847  57.316 -30.167  0.00  0.00    +0.000 OA
ATOM      3  N   UNL     1     -15.609  54.021 -26.711  0.00  0.00    +0.000 N 
ATOM      4  N   UNL     1     -18.327  55.429 -28.932  0.00  0.00    +0.000 N 
ATOM      5  C   UNL     1     -17.127  54.236 -26.553  0.00  0.00    +0.000 C 
ATOM      6  C   UNL     1     -17.962  53.396 -27.540  0.00  0.00    +0.000 C 
ATOM      7  C   UNL     1     -17.535  55.714 -26.597  0.00  0.00    +0.000 C 
ATOM      8  C   UNL     1     -17.958  53.996 -28.975  0.00  0.00    +0.000 C 
ATOM      9  C   UNL     1     -17.556  51.915 -27.432  0.00  0.00    +0.000 C 
ATOM     10  C   UNL     1     -17.535  56.262 -28.023  0.00  0.00    +0.000 C 
ATOM     11  C   UNL     1     -15.300  52.549 -26.536  0.00  0.00    +0.000 C 
ATOM     12  C   UNL     1     -16.695  56.563 -25.633  0.00  0.00    +0.000 C 
ATOM     13  C   UNL     1     -14.885  54.817 -25.646  0.00  0.00    +0.000 C 
ATOM     14  C   UNL     1     -16.053  51.699 -27.551  0.00  0.00    +0.000 C 
ATOM     15  C   UNL     1     -15.198  56.304 -25.753  0.00  0.00    +0.000 C 
ATOM     16  C   UNL     1     -18.878  53.190 -29.905  0.00  0.00    +0.000 C 
ATOM     17  C   UNL     1     -19.003  53.882 -31.249  0.00  0.00    +0.000 C 
ATOM     18  C   UNL     1     -18.858  56.090 -30.042  0.00  0.00    +0.000 C 
ATOM     19  C   UNL     1     -19.615  55.248 -31.044  0.00  0.00    +0.000 C 
ENDROOT
TORSDOF 0
ENDMDL
