MODEL 1
REMARK VINA RESULT:      -6.0      0.000      0.000
REMARK  Name = 
REMARK  23 active torsions:
REMARK  status: ('A' for Active; 'I' for Inactive)
REMARK    1  A    between atoms: O_2  and  C_17
REMARK    2  A    between atoms: O_2  and  C_36
REMARK    3  A    between atoms: O_3  and  C_20
REMARK    4  A    between atoms: O_3  and  C_37
REMARK    5  A    between atoms: O_4  and  C_21
REMARK    6  A    between atoms: O_5  and  C_22
REMARK    7  A    between atoms: O_6  and  C_30
REMARK    8  A    between atoms: O_6  and  C_39
REMARK    9  A    between atoms: O_8  and  C_31
REMARK   10  A    between atoms: O_8  and  C_40
REMARK   11  A    between atoms: O_13  and  C_42
REMARK   12  A    between atoms: N_15  and  C_46
REMARK   13  A    between atoms: C_18  and  C_29
REMARK   14  A    between atoms: C_24  and  C_33
REMARK   15  A    between atoms: C_24  and  C_34
REMARK   16  A    between atoms: C_32  and  C_35
REMARK   17  A    between atoms: C_36  and  C_38
REMARK   18  A    between atoms: C_37  and  C_41
REMARK   19  A    between atoms: C_39  and  C_43
REMARK   20  A    between atoms: C_40  and  C_42
REMARK   21  A    between atoms: C_42  and  C_46
REMARK   22  A    between atoms: C_46  and  C_50
REMARK   23  A    between atoms: C_53  and  C_56
REMARK                            x       y       z     vdW  Elec       q    Type
REMARK                         _______ _______ _______ _____ _____    ______ ____
ROOT
ATOM      1  O   UNL     1     -34.937  47.616 -20.872  0.00  0.00    +0.000 OA
ATOM      2  O   UNL     1     -40.026  44.481 -17.917  0.00  0.00    +0.000 OA
ATOM      3  C   UNL     1     -36.615  47.191 -17.898  0.00  0.00    +0.000 C 
ATOM      4  C   UNL     1     -35.379  47.107 -18.841  0.00  0.00    +0.000 C 
ATOM      5  C   UNL     1     -37.612  45.597 -18.146  0.00  0.00    +0.000 C 
ATOM      6  C   UNL     1     -36.164  47.201 -20.212  0.00  0.00    +0.000 C 
ATOM      7  C   UNL     1     -36.157  47.817 -16.202  0.00  0.00    +0.000 C 
ATOM      8  C   UNL     1     -36.909  48.170 -14.500  0.00  0.00    +0.000 C 
ATOM      9  C   UNL     1     -38.007  45.622 -19.682  0.00  0.00    +0.000 C 
ATOM     10  C   UNL     1     -36.843  45.931 -20.673  0.00  0.00    +0.000 C 
ATOM     11  C   UNL     1     -38.504  47.708 -13.877  0.00  0.00    +0.000 C 
ATOM     12  C   UNL     1     -34.579  48.249 -19.583  0.00  0.00    +0.000 C 
ATOM     13  C   UNL     1     -39.163  45.064 -17.225  0.00  0.00    +0.000 C 
ATOM     14  C   UNL     1     -35.977  47.413 -13.446  0.00  0.00    +0.000 C 
ATOM     15  C   UNL     1     -38.765  46.130 -14.017  0.00  0.00    +0.000 C 
ATOM     16  C   UNL     1     -36.715  44.295 -18.034  0.00  0.00    +0.000 C 
ATOM     17  C   UNL     1     -39.614  45.313 -15.374  0.00  0.00    +0.000 C 
ATOM     18  C   UNL     1     -36.419  45.965 -12.945  0.00  0.00    +0.000 C 
ATOM     19  C   UNL     1     -37.843  45.400 -13.303  0.00  0.00    +0.000 C 
ATOM     20  C   UNL     1     -38.493  48.050 -12.303  0.00  0.00    +0.000 C 
ATOM     21  C   UNL     1     -39.740  48.607 -14.203  0.00  0.00    +0.000 C 
ATOM     22  C   UNL     1     -38.004  43.922 -13.046  0.00  0.00    +0.000 C 
ENDROOT
BRANCH   9  23
ATOM     23  O   UNL     1     -39.006  46.619 -19.890  0.00  0.00    +0.000 OA
ATOM     24  H   UNL     1     -38.650  47.448 -19.511  0.00  0.00    +0.000 HD
ENDBRANCH   9  23
BRANCH   8  25
ATOM     25  O   UNL     1     -36.719  49.581 -14.278  0.00  0.00    +0.000 OA
ATOM     26  H   UNL     1     -36.365  49.981 -15.092  0.00  0.00    +0.000 HD
ENDBRANCH   8  25
BRANCH  18  27
ATOM     27  O   UNL     1     -35.453  44.999 -13.453  0.00  0.00    +0.000 OA
BRANCH  27  29
ATOM     28  O   UNL     1     -34.747  43.096 -12.452  0.00  0.00    +0.000 OA
ATOM     29  C   UNL     1     -34.721  44.320 -12.532  0.00  0.00    +0.000 C 
BRANCH  29  30
ATOM     30  C   UNL     1     -34.000  45.208 -11.514  0.00  0.00    +0.000 C 
BRANCH  30  31
ATOM     31  O   UNL     1     -32.577  45.272 -11.657  0.00  0.00    +0.000 OA
ATOM     32  H   UNL     1     -32.377  46.175 -11.966  0.00  0.00    +0.000 HD
ENDBRANCH  30  31
BRANCH  30  33
ATOM     33  C   UNL     1     -34.383  44.718 -10.090  0.00  0.00    +0.000 C 
BRANCH  33  34
ATOM     34  C   UNL     1     -35.737  45.278  -9.676  0.00  0.00    +0.000 A 
ATOM     35  C   UNL     1     -35.851  46.641  -9.350  0.00  0.00    +0.000 A 
ATOM     36  C   UNL     1     -36.879  44.467  -9.577  0.00  0.00    +0.000 A 
ATOM     37  C   UNL     1     -37.076  47.180  -8.955  0.00  0.00    +0.000 A 
ATOM     38  C   UNL     1     -38.104  45.009  -9.184  0.00  0.00    +0.000 A 
ATOM     39  C   UNL     1     -38.203  46.365  -8.875  0.00  0.00    +0.000 A 
ENDBRANCH  33  34
BRANCH  33  41
ATOM     40  O   UNL     1     -31.993  44.666  -7.377  0.00  0.00    +0.000 OA
ATOM     41  N   UNL     1     -33.343  45.090  -9.123  0.00  0.00    +0.000 N 
ATOM     42  C   UNL     1     -33.115  44.593  -7.869  0.00  0.00    +0.000 C 
ATOM     43  H   UNL     1     -32.540  45.565  -9.524  0.00  0.00    +0.000 HD
BRANCH  42  44
ATOM     44  C   UNL     1     -34.201  43.922  -7.118  0.00  0.00    +0.000 A 
ATOM     45  C   UNL     1     -35.075  44.644  -6.300  0.00  0.00    +0.000 A 
ATOM     46  C   UNL     1     -34.297  42.527  -7.185  0.00  0.00    +0.000 A 
ATOM     47  C   UNL     1     -36.081  43.977  -5.599  0.00  0.00    +0.000 A 
ATOM     48  C   UNL     1     -35.302  41.863  -6.481  0.00  0.00    +0.000 A 
ATOM     49  C   UNL     1     -36.198  42.590  -5.697  0.00  0.00    +0.000 A 
ENDBRANCH  42  44
ENDBRANCH  33  41
ENDBRANCH  30  33
ENDBRANCH  29  30
ENDBRANCH  27  29
ENDBRANCH  18  27
BRANCH  17  50
ATOM     50  O   UNL     1     -40.994  45.694 -15.187  0.00  0.00    +0.000 OA
BRANCH  50  52
ATOM     51  O   UNL     1     -43.151  45.119 -15.024  0.00  0.00    +0.000 OA
ATOM     52  C   UNL     1     -41.971  44.808 -14.890  0.00  0.00    +0.000 C 
ATOM     53  C   UNL     1     -41.565  43.485 -14.313  0.00  0.00    +0.000 C 
ENDBRANCH  50  52
ENDBRANCH  17  50
BRANCH   7  54
ATOM     54  O   UNL     1     -36.063  46.549 -15.862  0.00  0.00    +0.000 OA
BRANCH  54  56
ATOM     55  O   UNL     1     -34.544  47.862 -15.931  0.00  0.00    +0.000 OA
ATOM     56  C   UNL     1     -34.698  46.659 -15.749  0.00  0.00    +0.000 C 
BRANCH  56  57
ATOM     57  C   UNL     1     -33.501  45.166 -15.674  0.00  0.00    +0.000 A 
ATOM     58  C   UNL     1     -33.848  43.788 -16.016  0.00  0.00    +0.000 A 
ATOM     59  C   UNL     1     -32.098  45.191 -15.412  0.00  0.00    +0.000 A 
ATOM     60  C   UNL     1     -32.973  42.676 -16.084  0.00  0.00    +0.000 A 
ATOM     61  C   UNL     1     -31.203  44.085 -15.474  0.00  0.00    +0.000 A 
ATOM     62  C   UNL     1     -31.638  42.826 -15.813  0.00  0.00    +0.000 A 
ENDBRANCH  56  57
ENDBRANCH  54  56
ENDBRANCH   7  54
BRANCH   4  63
ATOM     63  O   UNL     1     -34.636  45.878 -18.662  0.00  0.00    +0.000 OA
BRANCH  63  65
ATOM     64  O   UNL     1     -32.440  46.294 -18.593  0.00  0.00    +0.000 OA
ATOM     65  C   UNL     1     -33.373  45.675 -19.101  0.00  0.00    +0.000 C 
ATOM     66  C   UNL     1     -33.140  44.786 -20.281  0.00  0.00    +0.000 C 
ENDBRANCH  63  65
ENDBRANCH   4  63
TORSDOF 17
ENDMDL
MODEL 2
REMARK VINA RESULT:      -6.0      3.032      8.817
REMARK  Name = 
REMARK  23 active torsions:
REMARK  status: ('A' for Active; 'I' for Inactive)
REMARK    1  A    between atoms: O_2  and  C_17
REMARK    2  A    between atoms: O_2  and  C_36
REMARK    3  A    between atoms: O_3  and  C_20
REMARK    4  A    between atoms: O_3  and  C_37
REMARK    5  A    between atoms: O_4  and  C_21
REMARK    6  A    between atoms: O_5  and  C_22
REMARK    7  A    between atoms: O_6  and  C_30
REMARK    8  A    between atoms: O_6  and  C_39
REMARK    9  A    between atoms: O_8  and  C_31
REMARK   10  A    between atoms: O_8  and  C_40
REMARK   11  A    between atoms: O_13  and  C_42
REMARK   12  A    between atoms: N_15  and  C_46
REMARK   13  A    between atoms: C_18  and  C_29
REMARK   14  A    between atoms: C_24  and  C_33
REMARK   15  A    between atoms: C_24  and  C_34
REMARK   16  A    between atoms: C_32  and  C_35
REMARK   17  A    between atoms: C_36  and  C_38
REMARK   18  A    between atoms: C_37  and  C_41
REMARK   19  A    between atoms: C_39  and  C_43
REMARK   20  A    between atoms: C_40  and  C_42
REMARK   21  A    between atoms: C_42  and  C_46
REMARK   22  A    between atoms: C_46  and  C_50
REMARK   23  A    between atoms: C_53  and  C_56
REMARK                            x       y       z     vdW  Elec       q    Type
REMARK                         _______ _______ _______ _____ _____    ______ ____
ROOT
ATOM      1  O   UNL     1     -40.227  45.497  -5.603  0.00  0.00    +0.000 OA
ATOM      2  O   UNL     1     -39.618  49.878 -10.592  0.00  0.00    +0.000 OA
ATOM      3  C   UNL     1     -39.547  45.840  -8.959  0.00  0.00    +0.000 C 
ATOM      4  C   UNL     1     -39.212  45.459  -7.488  0.00  0.00    +0.000 C 
ATOM      5  C   UNL     1     -39.123  47.678  -9.166  0.00  0.00    +0.000 C 
ATOM      6  C   UNL     1     -40.339  46.326  -6.793  0.00  0.00    +0.000 C 
ATOM      7  C   UNL     1     -38.956  44.548 -10.167  0.00  0.00    +0.000 C 
ATOM      8  C   UNL     1     -38.860  44.188 -12.024  0.00  0.00    +0.000 C 
ATOM      9  C   UNL     1     -40.055  48.411  -8.112  0.00  0.00    +0.000 C 
ATOM     10  C   UNL     1     -40.055  47.806  -6.676  0.00  0.00    +0.000 C 
ATOM     11  C   UNL     1     -39.165  45.289 -13.381  0.00  0.00    +0.000 C 
ATOM     12  C   UNL     1     -39.881  44.396  -6.529  0.00  0.00    +0.000 C 
ATOM     13  C   UNL     1     -39.220  48.703 -10.740  0.00  0.00    +0.000 C 
ATOM     14  C   UNL     1     -37.335  43.812 -12.316  0.00  0.00    +0.000 C 
ATOM     15  C   UNL     1     -38.287  46.628 -13.272  0.00  0.00    +0.000 C 
ATOM     16  C   UNL     1     -37.665  48.027  -8.650  0.00  0.00    +0.000 C 
ATOM     17  C   UNL     1     -38.815  48.185 -12.545  0.00  0.00    +0.000 C 
ATOM     18  C   UNL     1     -36.361  44.957 -12.851  0.00  0.00    +0.000 C 
ATOM     19  C   UNL     1     -36.939  46.352 -13.291  0.00  0.00    +0.000 C 
ATOM     20  C   UNL     1     -38.687  44.513 -14.709  0.00  0.00    +0.000 C 
ATOM     21  C   UNL     1     -40.633  45.506 -13.872  0.00  0.00    +0.000 C 
ATOM     22  C   UNL     1     -35.895  47.426 -13.466  0.00  0.00    +0.000 C 
ENDROOT
BRANCH   9  23
ATOM     23  O   UNL     1     -41.404  48.374  -8.579  0.00  0.00    +0.000 OA
ATOM     24  H   UNL     1     -41.428  47.710  -9.297  0.00  0.00    +0.000 HD
ENDBRANCH   9  23
BRANCH   8  25
ATOM     25  O   UNL     1     -39.626  42.985 -12.225  0.00  0.00    +0.000 OA
ATOM     26  H   UNL     1     -39.376  42.594 -13.081  0.00  0.00    +0.000 HD
ENDBRANCH   8  25
BRANCH  18  27
ATOM     27  O   UNL     1     -35.375  45.229 -11.812  0.00  0.00    +0.000 OA
BRANCH  27  29
ATOM     28  O   UNL     1     -33.117  45.251 -11.674  0.00  0.00    +0.000 OA
ATOM     29  C   UNL     1     -34.152  44.659 -11.962  0.00  0.00    +0.000 C 
BRANCH  29  30
ATOM     30  C   UNL     1     -34.168  43.297 -12.662  0.00  0.00    +0.000 C 
BRANCH  30  31
ATOM     31  O   UNL     1     -33.852  42.176 -11.828  0.00  0.00    +0.000 OA
ATOM     32  H   UNL     1     -34.695  41.712 -11.668  0.00  0.00    +0.000 HD
ENDBRANCH  30  31
BRANCH  30  33
ATOM     33  C   UNL     1     -33.198  43.366 -13.874  0.00  0.00    +0.000 C 
BRANCH  33  34
ATOM     34  C   UNL     1     -33.759  44.272 -14.960  0.00  0.00    +0.000 A 
ATOM     35  C   UNL     1     -34.896  43.865 -15.680  0.00  0.00    +0.000 A 
ATOM     36  C   UNL     1     -33.157  45.495 -15.294  0.00  0.00    +0.000 A 
ATOM     37  C   UNL     1     -35.426  44.668 -16.690  0.00  0.00    +0.000 A 
ATOM     38  C   UNL     1     -33.690  46.298 -16.304  0.00  0.00    +0.000 A 
ATOM     39  C   UNL     1     -34.825  45.886 -17.000  0.00  0.00    +0.000 A 
ENDBRANCH  33  34
BRANCH  33  41
ATOM     40  O   UNL     1     -31.613  40.463 -15.338  0.00  0.00    +0.000 OA
ATOM     41  N   UNL     1     -32.934  42.019 -14.396  0.00  0.00    +0.000 N 
ATOM     42  C   UNL     1     -32.017  41.622 -15.331  0.00  0.00    +0.000 C 
ATOM     43  H   UNL     1     -33.269  41.262 -13.808  0.00  0.00    +0.000 HD
BRANCH  42  44
ATOM     44  C   UNL     1     -31.472  42.593 -16.307  0.00  0.00    +0.000 A 
ATOM     45  C   UNL     1     -30.363  43.387 -16.003  0.00  0.00    +0.000 A 
ATOM     46  C   UNL     1     -32.136  42.757 -17.529  0.00  0.00    +0.000 A 
ATOM     47  C   UNL     1     -29.883  44.300 -16.945  0.00  0.00    +0.000 A 
ATOM     48  C   UNL     1     -31.656  43.671 -18.466  0.00  0.00    +0.000 A 
ATOM     49  C   UNL     1     -30.524  44.434 -18.177  0.00  0.00    +0.000 A 
ENDBRANCH  42  44
ENDBRANCH  33  41
ENDBRANCH  30  33
ENDBRANCH  29  30
ENDBRANCH  27  29
ENDBRANCH  18  27
BRANCH  17  50
ATOM     50  O   UNL     1     -39.776  48.692 -13.496  0.00  0.00    +0.000 OA
BRANCH  50  52
ATOM     51  O   UNL     1     -40.535  50.354 -14.789  0.00  0.00    +0.000 OA
ATOM     52  C   UNL     1     -39.597  49.842 -14.185  0.00  0.00    +0.000 C 
ATOM     53  C   UNL     1     -38.210  50.407 -14.257  0.00  0.00    +0.000 C 
ENDBRANCH  50  52
ENDBRANCH  17  50
BRANCH   7  54
ATOM     54  O   UNL     1     -37.875  45.289 -10.287  0.00  0.00    +0.000 OA
BRANCH  54  56
ATOM     55  O   UNL     1     -37.965  43.466  -9.446  0.00  0.00    +0.000 OA
ATOM     56  C   UNL     1     -37.133  44.353  -9.605  0.00  0.00    +0.000 C 
BRANCH  56  57
ATOM     57  C   UNL     1     -35.390  44.679  -8.885  0.00  0.00    +0.000 A 
ATOM     58  C   UNL     1     -34.844  45.995  -8.559  0.00  0.00    +0.000 A 
ATOM     59  C   UNL     1     -34.437  43.712  -8.444  0.00  0.00    +0.000 A 
ATOM     60  C   UNL     1     -33.609  46.278  -7.923  0.00  0.00    +0.000 A 
ATOM     61  C   UNL     1     -33.192  43.975  -7.806  0.00  0.00    +0.000 A 
ATOM     62  C   UNL     1     -32.777  45.258  -7.541  0.00  0.00    +0.000 A 
ENDBRANCH  56  57
ENDBRANCH  54  56
ENDBRANCH   7  54
BRANCH   4  63
ATOM     63  O   UNL     1     -37.862  45.828  -7.119  0.00  0.00    +0.000 OA
BRANCH  63  65
ATOM     64  O   UNL     1     -36.967  46.328  -5.132  0.00  0.00    +0.000 OA
ATOM     65  C   UNL     1     -37.258  45.470  -5.963  0.00  0.00    +0.000 C 
ATOM     66  C   UNL     1     -36.844  44.047  -5.761  0.00  0.00    +0.000 C 
ENDBRANCH  63  65
ENDBRANCH   4  63
TORSDOF 17
ENDMDL
MODEL 3
REMARK VINA RESULT:      -5.9     19.522     23.778
REMARK  Name = 
REMARK  23 active torsions:
REMARK  status: ('A' for Active; 'I' for Inactive)
REMARK    1  A    between atoms: O_2  and  C_17
REMARK    2  A    between atoms: O_2  and  C_36
REMARK    3  A    between atoms: O_3  and  C_20
REMARK    4  A    between atoms: O_3  and  C_37
REMARK    5  A    between atoms: O_4  and  C_21
REMARK    6  A    between atoms: O_5  and  C_22
REMARK    7  A    between atoms: O_6  and  C_30
REMARK    8  A    between atoms: O_6  and  C_39
REMARK    9  A    between atoms: O_8  and  C_31
REMARK   10  A    between atoms: O_8  and  C_40
REMARK   11  A    between atoms: O_13  and  C_42
REMARK   12  A    between atoms: N_15  and  C_46
REMARK   13  A    between atoms: C_18  and  C_29
REMARK   14  A    between atoms: C_24  and  C_33
REMARK   15  A    between atoms: C_24  and  C_34
REMARK   16  A    between atoms: C_32  and  C_35
REMARK   17  A    between atoms: C_36  and  C_38
REMARK   18  A    between atoms: C_37  and  C_41
REMARK   19  A    between atoms: C_39  and  C_43
REMARK   20  A    between atoms: C_40  and  C_42
REMARK   21  A    between atoms: C_42  and  C_46
REMARK   22  A    between atoms: C_46  and  C_50
REMARK   23  A    between atoms: C_53  and  C_56
REMARK                            x       y       z     vdW  Elec       q    Type
REMARK                         _______ _______ _______ _____ _____    ______ ____
ROOT
ATOM      1  O   UNL     1     -29.400  63.395 -22.561  0.00  0.00    +0.000 OA
ATOM      2  O   UNL     1     -35.886  63.266 -24.102  0.00  0.00    +0.000 OA
ATOM      3  C   UNL     1     -31.716  62.236 -24.828  0.00  0.00    +0.000 C 
ATOM      4  C   UNL     1     -30.481  63.072 -24.381  0.00  0.00    +0.000 C 
ATOM      5  C   UNL     1     -33.251  63.308 -24.519  0.00  0.00    +0.000 C 
ATOM      6  C   UNL     1     -30.795  63.082 -22.829  0.00  0.00    +0.000 C 
ATOM      7  C   UNL     1     -31.423  61.375 -26.456  0.00  0.00    +0.000 C 
ATOM      8  C   UNL     1     -32.294  60.274 -27.727  0.00  0.00    +0.000 C 
ATOM      9  C   UNL     1     -33.225  63.581 -22.957  0.00  0.00    +0.000 C 
ATOM     10  C   UNL     1     -31.858  64.057 -22.378  0.00  0.00    +0.000 C 
ATOM     11  C   UNL     1     -34.017  59.868 -27.845  0.00  0.00    +0.000 C 
ATOM     12  C   UNL     1     -29.097  62.607 -23.777  0.00  0.00    +0.000 C 
ATOM     13  C   UNL     1     -35.037  62.894 -24.940  0.00  0.00    +0.000 C 
ATOM     14  C   UNL     1     -32.087  60.992 -29.139  0.00  0.00    +0.000 C 
ATOM     15  C   UNL     1     -34.938  61.183 -27.881  0.00  0.00    +0.000 C 
ATOM     16  C   UNL     1     -33.110  64.763 -25.133  0.00  0.00    +0.000 C 
ATOM     17  C   UNL     1     -35.732  61.958 -26.467  0.00  0.00    +0.000 C 
ATOM     18  C   UNL     1     -33.251  61.934 -29.689  0.00  0.00    +0.000 C 
ATOM     19  C   UNL     1     -34.649  61.972 -28.970  0.00  0.00    +0.000 C 
ATOM     20  C   UNL     1     -34.209  59.114 -29.255  0.00  0.00    +0.000 C 
ATOM     21  C   UNL     1     -34.585  58.694 -26.984  0.00  0.00    +0.000 C 
ATOM     22  C   UNL     1     -35.530  63.122 -29.392  0.00  0.00    +0.000 C 
ENDROOT
BRANCH   9  23
ATOM     23  O   UNL     1     -33.571  62.379 -22.269  0.00  0.00    +0.000 OA
ATOM     24  H   UNL     1     -32.741  62.035 -21.881  0.00  0.00    +0.000 HD
ENDBRANCH   9  23
BRANCH   8  25
ATOM     25  O   UNL     1     -31.529  59.054 -27.771  0.00  0.00    +0.000 OA
ATOM     26  H   UNL     1     -31.223  58.909 -28.683  0.00  0.00    +0.000 HD
ENDBRANCH   8  25
BRANCH  18  27
ATOM     27  O   UNL     1     -32.754  63.304 -29.696  0.00  0.00    +0.000 OA
BRANCH  27  29
ATOM     28  O   UNL     1     -33.040  63.679 -31.909  0.00  0.00    +0.000 OA
ATOM     29  C   UNL     1     -32.364  63.810 -30.894  0.00  0.00    +0.000 C 
BRANCH  29  30
ATOM     30  C   UNL     1     -30.953  64.406 -30.903  0.00  0.00    +0.000 C 
BRANCH  30  31
ATOM     31  O   UNL     1     -30.784  65.569 -31.721  0.00  0.00    +0.000 OA
ATOM     32  H   UNL     1     -31.021  65.299 -32.628  0.00  0.00    +0.000 HD
ENDBRANCH  30  31
BRANCH  30  33
ATOM     33  C   UNL     1     -29.960  63.290 -31.331  0.00  0.00    +0.000 C 
BRANCH  33  34
ATOM     34  C   UNL     1     -28.554  63.605 -30.841  0.00  0.00    +0.000 A 
ATOM     35  C   UNL     1     -28.377  64.531 -29.798  0.00  0.00    +0.000 A 
ATOM     36  C   UNL     1     -27.415  63.022 -31.420  0.00  0.00    +0.000 A 
ATOM     37  C   UNL     1     -27.100  64.850 -29.336  0.00  0.00    +0.000 A 
ATOM     38  C   UNL     1     -26.139  63.341 -30.955  0.00  0.00    +0.000 A 
ATOM     39  C   UNL     1     -25.981  64.253 -29.913  0.00  0.00    +0.000 A 
ENDBRANCH  33  34
BRANCH  33  41
ATOM     40  O   UNL     1     -30.596  62.041 -34.665  0.00  0.00    +0.000 OA
ATOM     41  N   UNL     1     -29.982  63.115 -32.789  0.00  0.00    +0.000 N 
ATOM     42  C   UNL     1     -30.167  61.972 -33.517  0.00  0.00    +0.000 C 
ATOM     43  H   UNL     1     -30.157  63.966 -33.316  0.00  0.00    +0.000 HD
BRANCH  42  44
ATOM     44  C   UNL     1     -29.897  60.647 -32.915  0.00  0.00    +0.000 A 
ATOM     45  C   UNL     1     -28.637  60.047 -33.005  0.00  0.00    +0.000 A 
ATOM     46  C   UNL     1     -30.956  59.961 -32.307  0.00  0.00    +0.000 A 
ATOM     47  C   UNL     1     -28.423  58.792 -32.433  0.00  0.00    +0.000 A 
ATOM     48  C   UNL     1     -30.739  58.706 -31.739  0.00  0.00    +0.000 A 
ATOM     49  C   UNL     1     -29.470  58.127 -31.795  0.00  0.00    +0.000 A 
ENDBRANCH  42  44
ENDBRANCH  33  41
ENDBRANCH  30  33
ENDBRANCH  29  30
ENDBRANCH  27  29
ENDBRANCH  18  27
BRANCH  17  50
ATOM     50  O   UNL     1     -36.780  61.029 -26.117  0.00  0.00    +0.000 OA
BRANCH  50  52
ATOM     51  O   UNL     1     -38.792  61.225 -25.156  0.00  0.00    +0.000 OA
ATOM     52  C   UNL     1     -38.094  61.349 -26.158  0.00  0.00    +0.000 C 
ATOM     53  C   UNL     1     -38.673  61.766 -27.476  0.00  0.00    +0.000 C 
ENDBRANCH  50  52
ENDBRANCH  17  50
BRANCH   7  54
ATOM     54  O   UNL     1     -32.008  62.418 -27.007  0.00  0.00    +0.000 OA
BRANCH  54  56
ATOM     55  O   UNL     1     -31.089  64.095 -27.623  0.00  0.00    +0.000 OA
ATOM     56  C   UNL     1     -30.788  62.932 -27.377  0.00  0.00    +0.000 C 
BRANCH  56  57
ATOM     57  C   UNL     1     -29.226  61.872 -27.696  0.00  0.00    +0.000 A 
ATOM     58  C   UNL     1     -29.048  60.947 -28.814  0.00  0.00    +0.000 A 
ATOM     59  C   UNL     1     -27.985  61.920 -26.992  0.00  0.00    +0.000 A 
ATOM     60  C   UNL     1     -27.874  60.229 -29.153  0.00  0.00    +0.000 A 
ATOM     61  C   UNL     1     -26.797  61.205 -27.317  0.00  0.00    +0.000 A 
ATOM     62  C   UNL     1     -26.737  60.361 -28.399  0.00  0.00    +0.000 A 
ENDBRANCH  56  57
ENDBRANCH  54  56
ENDBRANCH   7  54
BRANCH   4  63
ATOM     63  O   UNL     1     -30.453  64.382 -24.993  0.00  0.00    +0.000 OA
BRANCH  63  65
ATOM     64  O   UNL     1     -29.511  66.155 -24.010  0.00  0.00    +0.000 OA
ATOM     65  C   UNL     1     -29.442  65.270 -24.860  0.00  0.00    +0.000 C 
ATOM     66  C   UNL     1     -28.303  65.236 -25.829  0.00  0.00    +0.000 C 
ENDBRANCH  63  65
ENDBRANCH   4  63
TORSDOF 17
ENDMDL
MODEL 4
REMARK VINA RESULT:      -5.8      2.358      5.890
REMARK  Name = 
REMARK  23 active torsions:
REMARK  status: ('A' for Active; 'I' for Inactive)
REMARK    1  A    between atoms: O_2  and  C_17
REMARK    2  A    between atoms: O_2  and  C_36
REMARK    3  A    between atoms: O_3  and  C_20
REMARK    4  A    between atoms: O_3  and  C_37
REMARK    5  A    between atoms: O_4  and  C_21
REMARK    6  A    between atoms: O_5  and  C_22
REMARK    7  A    between atoms: O_6  and  C_30
REMARK    8  A    between atoms: O_6  and  C_39
REMARK    9  A    between atoms: O_8  and  C_31
REMARK   10  A    between atoms: O_8  and  C_40
REMARK   11  A    between atoms: O_13  and  C_42
REMARK   12  A    between atoms: N_15  and  C_46
REMARK   13  A    between atoms: C_18  and  C_29
REMARK   14  A    between atoms: C_24  and  C_33
REMARK   15  A    between atoms: C_24  and  C_34
REMARK   16  A    between atoms: C_32  and  C_35
REMARK   17  A    between atoms: C_36  and  C_38
REMARK   18  A    between atoms: C_37  and  C_41
REMARK   19  A    between atoms: C_39  and  C_43
REMARK   20  A    between atoms: C_40  and  C_42
REMARK   21  A    between atoms: C_42  and  C_46
REMARK   22  A    between atoms: C_46  and  C_50
REMARK   23  A    between atoms: C_53  and  C_56
REMARK                            x       y       z     vdW  Elec       q    Type
REMARK                         _______ _______ _______ _____ _____    ______ ____
ROOT
ATOM      1  O   UNL     1     -37.268  46.071 -21.549  0.00  0.00    +0.000 OA
ATOM      2  O   UNL     1     -31.216  44.841 -19.037  0.00  0.00    +0.000 OA
ATOM      3  C   UNL     1     -35.554  44.447 -19.046  0.00  0.00    +0.000 C 
ATOM      4  C   UNL     1     -36.562  45.489 -19.614  0.00  0.00    +0.000 C 
ATOM      5  C   UNL     1     -33.848  45.278 -19.031  0.00  0.00    +0.000 C 
ATOM      6  C   UNL     1     -35.998  45.528 -21.093  0.00  0.00    +0.000 C 
ATOM      7  C   UNL     1     -36.235  43.561 -17.553  0.00  0.00    +0.000 C 
ATOM      8  C   UNL     1     -35.757  42.273 -16.249  0.00  0.00    +0.000 C 
ATOM      9  C   UNL     1     -33.576  45.630 -20.553  0.00  0.00    +0.000 C 
ATOM     10  C   UNL     1     -34.743  46.345 -21.299  0.00  0.00    +0.000 C 
ATOM     11  C   UNL     1     -34.156  41.595 -15.897  0.00  0.00    +0.000 C 
ATOM     12  C   UNL     1     -37.881  45.280 -20.459  0.00  0.00    +0.000 C 
ATOM     13  C   UNL     1     -32.237  44.566 -18.371  0.00  0.00    +0.000 C 
ATOM     14  C   UNL     1     -36.086  42.942 -14.836  0.00  0.00    +0.000 C 
ATOM     15  C   UNL     1     -33.070  42.744 -15.619  0.00  0.00    +0.000 C 
ATOM     16  C   UNL     1     -33.872  46.703 -18.338  0.00  0.00    +0.000 C 
ATOM     17  C   UNL     1     -31.948  43.456 -16.830  0.00  0.00    +0.000 C 
ATOM     18  C   UNL     1     -34.902  43.660 -14.043  0.00  0.00    +0.000 C 
ATOM     19  C   UNL     1     -33.414  43.513 -14.532  0.00  0.00    +0.000 C 
ATOM     20  C   UNL     1     -34.312  40.749 -14.535  0.00  0.00    +0.000 C 
ATOM     21  C   UNL     1     -33.634  40.391 -16.746  0.00  0.00    +0.000 C 
ATOM     22  C   UNL     1     -32.455  44.487 -13.892  0.00  0.00    +0.000 C 
ENDROOT
BRANCH   9  23
ATOM     23  O   UNL     1     -33.302  44.426 -21.268  0.00  0.00    +0.000 OA
ATOM     24  H   UNL     1     -33.948  43.764 -20.949  0.00  0.00    +0.000 HD
ENDBRANCH   9  23
BRANCH   8  25
ATOM     25  O   UNL     1     -36.690  41.188 -16.417  0.00  0.00    +0.000 OA
ATOM     26  H   UNL     1     -37.371  41.251 -15.723  0.00  0.00    +0.000 HD
ENDBRANCH   8  25
BRANCH  18  27
ATOM     27  O   UNL     1     -35.185  45.089 -14.009  0.00  0.00    +0.000 OA
BRANCH  27  29
ATOM     28  O   UNL     1     -35.510  46.806 -12.571  0.00  0.00    +0.000 OA
ATOM     29  C   UNL     1     -35.588  45.607 -12.820  0.00  0.00    +0.000 C 
BRANCH  29  30
ATOM     30  C   UNL     1     -35.989  44.562 -11.775  0.00  0.00    +0.000 C 
BRANCH  30  31
ATOM     31  O   UNL     1     -37.399  44.352 -11.628  0.00  0.00    +0.000 OA
ATOM     32  H   UNL     1     -37.551  43.405 -11.808  0.00  0.00    +0.000 HD
ENDBRANCH  30  31
BRANCH  30  33
ATOM     33  C   UNL     1     -35.355  44.969 -10.417  0.00  0.00    +0.000 C 
BRANCH  33  34
ATOM     34  C   UNL     1     -35.116  43.743  -9.547  0.00  0.00    +0.000 A 
ATOM     35  C   UNL     1     -33.805  43.265  -9.371  0.00  0.00    +0.000 A 
ATOM     36  C   UNL     1     -36.170  43.047  -8.935  0.00  0.00    +0.000 A 
ATOM     37  C   UNL     1     -33.556  42.136  -8.590  0.00  0.00    +0.000 A 
ATOM     38  C   UNL     1     -35.919  41.919  -8.153  0.00  0.00    +0.000 A 
ATOM     39  C   UNL     1     -34.612  41.465  -7.979  0.00  0.00    +0.000 A 
ENDBRANCH  33  34
BRANCH  33  41
ATOM     40  O   UNL     1     -36.527  47.759  -8.437  0.00  0.00    +0.000 OA
ATOM     41  N   UNL     1     -36.205  45.947  -9.726  0.00  0.00    +0.000 N 
ATOM     42  C   UNL     1     -35.924  46.707  -8.624  0.00  0.00    +0.000 C 
ATOM     43  H   UNL     1     -36.979  46.302 -10.279  0.00  0.00    +0.000 HD
BRANCH  42  44
ATOM     44  C   UNL     1     -34.862  46.293  -7.678  0.00  0.00    +0.000 A 
ATOM     45  C   UNL     1     -35.162  45.590  -6.508  0.00  0.00    +0.000 A 
ATOM     46  C   UNL     1     -33.544  46.685  -7.940  0.00  0.00    +0.000 A 
ATOM     47  C   UNL     1     -34.136  45.225  -5.634  0.00  0.00    +0.000 A 
ATOM     48  C   UNL     1     -32.521  46.322  -7.064  0.00  0.00    +0.000 A 
ATOM     49  C   UNL     1     -32.818  45.584  -5.917  0.00  0.00    +0.000 A 
ENDBRANCH  42  44
ENDBRANCH  33  41
ENDBRANCH  30  33
ENDBRANCH  29  30
ENDBRANCH  27  29
ENDBRANCH  18  27
BRANCH  17  50
ATOM     50  O   UNL     1     -31.005  42.392 -17.083  0.00  0.00    +0.000 OA
BRANCH  50  52
ATOM     51  O   UNL     1     -29.971  41.017 -15.652  0.00  0.00    +0.000 OA
ATOM     52  C   UNL     1     -29.988  42.092 -16.244  0.00  0.00    +0.000 C 
ATOM     53  C   UNL     1     -28.947  43.143 -16.000  0.00  0.00    +0.000 C 
ENDBRANCH  50  52
ENDBRANCH  17  50
BRANCH   7  54
ATOM     54  O   UNL     1     -35.601  44.469 -16.841  0.00  0.00    +0.000 OA
BRANCH  54  56
ATOM     55  O   UNL     1     -37.595  44.246 -16.944  0.00  0.00    +0.000 OA
ATOM     56  C   UNL     1     -36.794  45.058 -16.492  0.00  0.00    +0.000 C 
BRANCH  56  57
ATOM     57  C   UNL     1     -36.955  46.836 -15.803  0.00  0.00    +0.000 A 
ATOM     58  C   UNL     1     -38.110  47.357 -15.074  0.00  0.00    +0.000 A 
ATOM     59  C   UNL     1     -35.952  47.852 -15.777  0.00  0.00    +0.000 A 
ATOM     60  C   UNL     1     -38.229  48.624 -14.450  0.00  0.00    +0.000 A 
ATOM     61  C   UNL     1     -36.054  49.130 -15.158  0.00  0.00    +0.000 A 
ATOM     62  C   UNL     1     -37.190  49.518 -14.490  0.00  0.00    +0.000 A 
ENDBRANCH  56  57
ENDBRANCH  54  56
ENDBRANCH   7  54
BRANCH   4  63
ATOM     63  O   UNL     1     -36.496  46.754 -18.916  0.00  0.00    +0.000 OA
BRANCH  63  65
ATOM     64  O   UNL     1     -36.741  48.766 -19.860  0.00  0.00    +0.000 OA
ATOM     65  C   UNL     1     -37.241  47.840 -19.224  0.00  0.00    +0.000 C 
ATOM     66  C   UNL     1     -38.631  47.954 -18.686  0.00  0.00    +0.000 C 
ENDBRANCH  63  65
ENDBRANCH   4  63
TORSDOF 17
ENDMDL
MODEL 5
REMARK VINA RESULT:      -5.8      2.302      6.130
REMARK  Name = 
REMARK  23 active torsions:
REMARK  status: ('A' for Active; 'I' for Inactive)
REMARK    1  A    between atoms: O_2  and  C_17
REMARK    2  A    between atoms: O_2  and  C_36
REMARK    3  A    between atoms: O_3  and  C_20
REMARK    4  A    between atoms: O_3  and  C_37
REMARK    5  A    between atoms: O_4  and  C_21
REMARK    6  A    between atoms: O_5  and  C_22
REMARK    7  A    between atoms: O_6  and  C_30
REMARK    8  A    between atoms: O_6  and  C_39
REMARK    9  A    between atoms: O_8  and  C_31
REMARK   10  A    between atoms: O_8  and  C_40
REMARK   11  A    between atoms: O_13  and  C_42
REMARK   12  A    between atoms: N_15  and  C_46
REMARK   13  A    between atoms: C_18  and  C_29
REMARK   14  A    between atoms: C_24  and  C_33
REMARK   15  A    between atoms: C_24  and  C_34
REMARK   16  A    between atoms: C_32  and  C_35
REMARK   17  A    between atoms: C_36  and  C_38
REMARK   18  A    between atoms: C_37  and  C_41
REMARK   19  A    between atoms: C_39  and  C_43
REMARK   20  A    between atoms: C_40  and  C_42
REMARK   21  A    between atoms: C_42  and  C_46
REMARK   22  A    between atoms: C_46  and  C_50
REMARK   23  A    between atoms: C_53  and  C_56
REMARK                            x       y       z     vdW  Elec       q    Type
REMARK                         _______ _______ _______ _____ _____    ______ ____
ROOT
ATOM      1  O   UNL     1     -40.101  49.289 -16.057  0.00  0.00    +0.000 OA
ATOM      2  O   UNL     1     -33.633  47.820 -16.739  0.00  0.00    +0.000 OA
ATOM      3  C   UNL     1     -37.792  46.738 -16.021  0.00  0.00    +0.000 C 
ATOM      4  C   UNL     1     -38.878  47.661 -15.396  0.00  0.00    +0.000 C 
ATOM      5  C   UNL     1     -36.125  47.618 -15.805  0.00  0.00    +0.000 C 
ATOM      6  C   UNL     1     -38.777  48.836 -16.453  0.00  0.00    +0.000 C 
ATOM      7  C   UNL     1     -38.036  44.952 -15.545  0.00  0.00    +0.000 C 
ATOM      8  C   UNL     1     -37.248  43.242 -15.751  0.00  0.00    +0.000 C 
ATOM      9  C   UNL     1     -36.301  48.982 -16.594  0.00  0.00    +0.000 C 
ATOM     10  C   UNL     1     -37.606  49.777 -16.283  0.00  0.00    +0.000 C 
ATOM     11  C   UNL     1     -35.645  42.832 -16.390  0.00  0.00    +0.000 C 
ATOM     12  C   UNL     1     -40.395  47.864 -15.786  0.00  0.00    +0.000 C 
ATOM     13  C   UNL     1     -34.421  46.970 -16.272  0.00  0.00    +0.000 C 
ATOM     14  C   UNL     1     -37.114  42.643 -14.276  0.00  0.00    +0.000 C 
ATOM     15  C   UNL     1     -34.477  43.628 -15.627  0.00  0.00    +0.000 C 
ATOM     16  C   UNL     1     -35.882  48.101 -14.314  0.00  0.00    +0.000 C 
ATOM     17  C   UNL     1     -33.736  45.179 -16.152  0.00  0.00    +0.000 C 
ATOM     18  C   UNL     1     -35.719  42.799 -13.518  0.00  0.00    +0.000 C 
ATOM     19  C   UNL     1     -34.451  43.324 -14.286  0.00  0.00    +0.000 C 
ATOM     20  C   UNL     1     -35.425  41.264 -16.091  0.00  0.00    +0.000 C 
ATOM     21  C   UNL     1     -35.449  42.704 -17.935  0.00  0.00    +0.000 C 
ATOM     22  C   UNL     1     -33.305  43.721 -13.388  0.00  0.00    +0.000 C 
ENDROOT
BRANCH   9  23
ATOM     23  O   UNL     1     -36.303  48.712 -17.995  0.00  0.00    +0.000 OA
ATOM     24  H   UNL     1     -36.896  49.376 -18.402  0.00  0.00    +0.000 HD
ENDBRANCH   9  23
BRANCH   8  25
ATOM     25  O   UNL     1     -38.234  42.441 -16.432  0.00  0.00    +0.000 OA
ATOM     26  H   UNL     1     -38.482  42.888 -17.260  0.00  0.00    +0.000 HD
ENDBRANCH   8  25
BRANCH  18  27
ATOM     27  O   UNL     1     -35.920  43.701 -12.390  0.00  0.00    +0.000 OA
BRANCH  27  29
ATOM     28  O   UNL     1     -37.071  42.625 -10.765  0.00  0.00    +0.000 OA
ATOM     29  C   UNL     1     -36.027  43.132 -11.161  0.00  0.00    +0.000 C 
BRANCH  29  30
ATOM     30  C   UNL     1     -34.799  43.322 -10.265  0.00  0.00    +0.000 C 
BRANCH  30  31
ATOM     31  O   UNL     1     -33.886  42.219 -10.235  0.00  0.00    +0.000 OA
ATOM     32  H   UNL     1     -34.019  41.735 -11.072  0.00  0.00    +0.000 HD
ENDBRANCH  30  31
BRANCH  30  33
ATOM     33  C   UNL     1     -35.295  43.658  -8.832  0.00  0.00    +0.000 C 
BRANCH  33  34
ATOM     34  C   UNL     1     -34.288  44.542  -8.109  0.00  0.00    +0.000 A 
ATOM     35  C   UNL     1     -33.498  43.993  -7.084  0.00  0.00    +0.000 A 
ATOM     36  C   UNL     1     -34.142  45.905  -8.411  0.00  0.00    +0.000 A 
ATOM     37  C   UNL     1     -32.576  44.781  -6.394  0.00  0.00    +0.000 A 
ATOM     38  C   UNL     1     -33.218  46.691  -7.721  0.00  0.00    +0.000 A 
ATOM     39  C   UNL     1     -32.434  46.129  -6.715  0.00  0.00    +0.000 A 
ENDBRANCH  33  34
BRANCH  33  41
ATOM     40  O   UNL     1     -36.910  40.906  -7.129  0.00  0.00    +0.000 OA
ATOM     41  N   UNL     1     -35.551  42.425  -8.076  0.00  0.00    +0.000 N 
ATOM     42  C   UNL     1     -36.641  42.088  -7.321  0.00  0.00    +0.000 C 
ATOM     43  H   UNL     1     -34.992  41.627  -8.363  0.00  0.00    +0.000 HD
BRANCH  42  44
ATOM     44  C   UNL     1     -37.528  43.139  -6.772  0.00  0.00    +0.000 A 
ATOM     45  C   UNL     1     -37.038  44.137  -5.924  0.00  0.00    +0.000 A 
ATOM     46  C   UNL     1     -38.896  43.078  -7.061  0.00  0.00    +0.000 A 
ATOM     47  C   UNL     1     -37.905  45.106  -5.417  0.00  0.00    +0.000 A 
ATOM     48  C   UNL     1     -39.761  44.045  -6.551  0.00  0.00    +0.000 A 
ATOM     49  C   UNL     1     -39.263  45.064  -5.737  0.00  0.00    +0.000 A 
ENDBRANCH  42  44
ENDBRANCH  33  41
ENDBRANCH  30  33
ENDBRANCH  29  30
ENDBRANCH  27  29
ENDBRANCH  18  27
BRANCH  17  50
ATOM     50  O   UNL     1     -32.956  44.807 -17.309  0.00  0.00    +0.000 OA
BRANCH  50  52
ATOM     51  O   UNL     1     -31.042  45.241 -18.384  0.00  0.00    +0.000 OA
ATOM     52  C   UNL     1     -31.608  44.897 -17.350  0.00  0.00    +0.000 C 
ATOM     53  C   UNL     1     -30.839  44.482 -16.132  0.00  0.00    +0.000 C 
ENDBRANCH  50  52
ENDBRANCH  17  50
BRANCH   7  54
ATOM     54  O   UNL     1     -37.182  45.192 -14.572  0.00  0.00    +0.000 OA
BRANCH  54  56
ATOM     55  O   UNL     1     -39.126  44.741 -14.338  0.00  0.00    +0.000 OA
ATOM     56  C   UNL     1     -38.192  45.124 -13.641  0.00  0.00    +0.000 C 
BRANCH  56  57
ATOM     57  C   UNL     1     -38.063  45.816 -11.861  0.00  0.00    +0.000 A 
ATOM     58  C   UNL     1     -38.977  45.503 -10.765  0.00  0.00    +0.000 A 
ATOM     59  C   UNL     1     -37.012  46.613 -11.313  0.00  0.00    +0.000 A 
ATOM     60  C   UNL     1     -38.859  45.900  -9.410  0.00  0.00    +0.000 A 
ATOM     61  C   UNL     1     -36.877  47.023  -9.957  0.00  0.00    +0.000 A 
ATOM     62  C   UNL     1     -37.798  46.665  -9.001  0.00  0.00    +0.000 A 
ENDBRANCH  56  57
ENDBRANCH  54  56
ENDBRANCH   7  54
BRANCH   4  63
ATOM     63  O   UNL     1     -38.555  48.049 -14.040  0.00  0.00    +0.000 OA
BRANCH  63  65
ATOM     64  O   UNL     1     -38.996  50.026 -13.095  0.00  0.00    +0.000 OA
ATOM     65  C   UNL     1     -39.321  48.853 -13.269  0.00  0.00    +0.000 C 
ATOM     66  C   UNL     1     -40.491  48.274 -12.540  0.00  0.00    +0.000 C 
ENDBRANCH  63  65
ENDBRANCH   4  63
TORSDOF 17
ENDMDL
MODEL 6
REMARK VINA RESULT:      -5.8     19.714     24.208
REMARK  Name = 
REMARK  23 active torsions:
REMARK  status: ('A' for Active; 'I' for Inactive)
REMARK    1  A    between atoms: O_2  and  C_17
REMARK    2  A    between atoms: O_2  and  C_36
REMARK    3  A    between atoms: O_3  and  C_20
REMARK    4  A    between atoms: O_3  and  C_37
REMARK    5  A    between atoms: O_4  and  C_21
REMARK    6  A    between atoms: O_5  and  C_22
REMARK    7  A    between atoms: O_6  and  C_30
REMARK    8  A    between atoms: O_6  and  C_39
REMARK    9  A    between atoms: O_8  and  C_31
REMARK   10  A    between atoms: O_8  and  C_40
REMARK   11  A    between atoms: O_13  and  C_42
REMARK   12  A    between atoms: N_15  and  C_46
REMARK   13  A    between atoms: C_18  and  C_29
REMARK   14  A    between atoms: C_24  and  C_33
REMARK   15  A    between atoms: C_24  and  C_34
REMARK   16  A    between atoms: C_32  and  C_35
REMARK   17  A    between atoms: C_36  and  C_38
REMARK   18  A    between atoms: C_37  and  C_41
REMARK   19  A    between atoms: C_39  and  C_43
REMARK   20  A    between atoms: C_40  and  C_42
REMARK   21  A    between atoms: C_42  and  C_46
REMARK   22  A    between atoms: C_46  and  C_50
REMARK   23  A    between atoms: C_53  and  C_56
REMARK                            x       y       z     vdW  Elec       q    Type
REMARK                         _______ _______ _______ _____ _____    ______ ____
ROOT
ATOM      1  O   UNL     1     -23.970  69.339 -22.406  0.00  0.00    +0.000 OA
ATOM      2  O   UNL     1     -30.265  70.424 -20.497  0.00  0.00    +0.000 OA
ATOM      3  C   UNL     1     -26.729  67.916 -20.922  0.00  0.00    +0.000 C 
ATOM      4  C   UNL     1     -25.641  68.056 -22.026  0.00  0.00    +0.000 C 
ATOM      5  C   UNL     1     -28.165  69.056 -21.411  0.00  0.00    +0.000 C 
ATOM      6  C   UNL     1     -25.233  69.555 -21.718  0.00  0.00    +0.000 C 
ATOM      7  C   UNL     1     -27.002  66.137 -20.433  0.00  0.00    +0.000 C 
ATOM      8  C   UNL     1     -28.078  65.058 -19.309  0.00  0.00    +0.000 C 
ATOM      9  C   UNL     1     -27.514  70.502 -21.454  0.00  0.00    +0.000 C 
ATOM     10  C   UNL     1     -26.174  70.616 -22.242  0.00  0.00    +0.000 C 
ATOM     11  C   UNL     1     -29.540  65.508 -18.411  0.00  0.00    +0.000 C 
ATOM     12  C   UNL     1     -24.068  67.941 -21.932  0.00  0.00    +0.000 C 
ATOM     13  C   UNL     1     -29.814  69.260 -20.529  0.00  0.00    +0.000 C 
ATOM     14  C   UNL     1     -28.678  63.913 -20.248  0.00  0.00    +0.000 C 
ATOM     15  C   UNL     1     -30.647  66.170 -19.367  0.00  0.00    +0.000 C 
ATOM     16  C   UNL     1     -28.633  68.836 -22.910  0.00  0.00    +0.000 C 
ATOM     17  C   UNL     1     -30.886  67.929 -19.651  0.00  0.00    +0.000 C 
ATOM     18  C   UNL     1     -30.140  64.117 -20.852  0.00  0.00    +0.000 C 
ATOM     19  C   UNL     1     -31.049  65.300 -20.354  0.00  0.00    +0.000 C 
ATOM     20  C   UNL     1     -30.163  64.136 -17.842  0.00  0.00    +0.000 C 
ATOM     21  C   UNL     1     -29.397  66.184 -17.009  0.00  0.00    +0.000 C 
ATOM     22  C   UNL     1     -32.254  65.561 -21.222  0.00  0.00    +0.000 C 
ENDROOT
BRANCH   9  23
ATOM     23  O   UNL     1     -27.248  70.932 -20.119  0.00  0.00    +0.000 OA
ATOM     24  H   UNL     1     -27.700  71.794 -20.013  0.00  0.00    +0.000 HD
ENDBRANCH   9  23
BRANCH   8  25
ATOM     25  O   UNL     1     -27.163  64.409 -18.404  0.00  0.00    +0.000 OA
ATOM     26  H   UNL     1     -26.437  64.018 -18.921  0.00  0.00    +0.000 HD
ENDBRANCH   8  25
BRANCH  18  27
ATOM     27  O   UNL     1     -30.012  64.276 -22.296  0.00  0.00    +0.000 OA
BRANCH  27  29
ATOM     28  O   UNL     1     -29.117  62.447 -23.284  0.00  0.00    +0.000 OA
ATOM     29  C   UNL     1     -30.096  63.148 -23.048  0.00  0.00    +0.000 C 
BRANCH  29  30
ATOM     30  C   UNL     1     -31.463  62.920 -23.700  0.00  0.00    +0.000 C 
BRANCH  30  31
ATOM     31  O   UNL     1     -32.236  61.850 -23.145  0.00  0.00    +0.000 OA
ATOM     32  H   UNL     1     -32.741  61.469 -23.887  0.00  0.00    +0.000 HD
ENDBRANCH  30  31
BRANCH  30  33
ATOM     33  C   UNL     1     -31.240  62.699 -25.222  0.00  0.00    +0.000 C 
BRANCH  33  34
ATOM     34  C   UNL     1     -31.915  63.800 -26.029  0.00  0.00    +0.000 A 
ATOM     35  C   UNL     1     -32.538  64.866 -25.357  0.00  0.00    +0.000 A 
ATOM     36  C   UNL     1     -31.965  63.771 -27.432  0.00  0.00    +0.000 A 
ATOM     37  C   UNL     1     -33.176  65.882 -26.069  0.00  0.00    +0.000 A 
ATOM     38  C   UNL     1     -32.601  64.789 -28.142  0.00  0.00    +0.000 A 
ATOM     39  C   UNL     1     -33.205  65.846 -27.461  0.00  0.00    +0.000 A 
ENDBRANCH  33  34
BRANCH  33  41
ATOM     40  O   UNL     1     -31.478  59.169 -25.969  0.00  0.00    +0.000 OA
ATOM     41  N   UNL     1     -31.731  61.375 -25.625  0.00  0.00    +0.000 N 
ATOM     42  C   UNL     1     -31.026  60.302 -26.098  0.00  0.00    +0.000 C 
ATOM     43  H   UNL     1     -32.645  61.131 -25.256  0.00  0.00    +0.000 HD
BRANCH  42  44
ATOM     44  C   UNL     1     -29.698  60.494 -26.724  0.00  0.00    +0.000 A 
ATOM     45  C   UNL     1     -29.571  60.832 -28.075  0.00  0.00    +0.000 A 
ATOM     46  C   UNL     1     -28.555  60.259 -25.951  0.00  0.00    +0.000 A 
ATOM     47  C   UNL     1     -28.302  60.995 -28.634  0.00  0.00    +0.000 A 
ATOM     48  C   UNL     1     -27.288  60.419 -26.513  0.00  0.00    +0.000 A 
ATOM     49  C   UNL     1     -27.164  60.796 -27.851  0.00  0.00    +0.000 A 
ENDBRANCH  42  44
ENDBRANCH  33  41
ENDBRANCH  30  33
ENDBRANCH  29  30
ENDBRANCH  27  29
ENDBRANCH  18  27
BRANCH  17  50
ATOM     50  O   UNL     1     -31.440  68.400 -18.403  0.00  0.00    +0.000 OA
BRANCH  50  52
ATOM     51  O   UNL     1     -33.070  69.412 -17.252  0.00  0.00    +0.000 OA
ATOM     52  C   UNL     1     -32.708  68.852 -18.283  0.00  0.00    +0.000 C 
ATOM     53  C   UNL     1     -33.664  68.566 -19.402  0.00  0.00    +0.000 C 
ENDBRANCH  50  52
ENDBRANCH  17  50
BRANCH   7  54
ATOM     54  O   UNL     1     -27.983  66.144 -21.311  0.00  0.00    +0.000 OA
BRANCH  54  56
ATOM     55  O   UNL     1     -26.282  65.086 -21.471  0.00  0.00    +0.000 OA
ATOM     56  C   UNL     1     -27.237  65.383 -22.181  0.00  0.00    +0.000 C 
BRANCH  56  57
ATOM     57  C   UNL     1     -27.590  65.236 -24.056  0.00  0.00    +0.000 A 
ATOM     58  C   UNL     1     -26.936  64.300 -24.968  0.00  0.00    +0.000 A 
ATOM     59  C   UNL     1     -28.610  65.901 -24.803  0.00  0.00    +0.000 A 
ATOM     60  C   UNL     1     -27.241  64.078 -26.333  0.00  0.00    +0.000 A 
ATOM     61  C   UNL     1     -28.931  65.693 -26.174  0.00  0.00    +0.000 A 
ATOM     62  C   UNL     1     -28.250  64.779 -26.941  0.00  0.00    +0.000 A 
ENDBRANCH  56  57
ENDBRANCH  54  56
ENDBRANCH   7  54
BRANCH   4  63
ATOM     63  O   UNL     1     -26.175  67.843 -23.354  0.00  0.00    +0.000 OA
BRANCH  63  65
ATOM     64  O   UNL     1     -24.602  66.843 -24.589  0.00  0.00    +0.000 OA
ATOM     65  C   UNL     1     -25.426  67.749 -24.476  0.00  0.00    +0.000 C 
ATOM     66  C   UNL     1     -25.525  68.818 -25.517  0.00  0.00    +0.000 C 
ENDBRANCH  63  65
ENDBRANCH   4  63
TORSDOF 17
ENDMDL
MODEL 7
REMARK VINA RESULT:      -5.7      2.793     10.083
REMARK  Name = 
REMARK  23 active torsions:
REMARK  status: ('A' for Active; 'I' for Inactive)
REMARK    1  A    between atoms: O_2  and  C_17
REMARK    2  A    between atoms: O_2  and  C_36
REMARK    3  A    between atoms: O_3  and  C_20
REMARK    4  A    between atoms: O_3  and  C_37
REMARK    5  A    between atoms: O_4  and  C_21
REMARK    6  A    between atoms: O_5  and  C_22
REMARK    7  A    between atoms: O_6  and  C_30
REMARK    8  A    between atoms: O_6  and  C_39
REMARK    9  A    between atoms: O_8  and  C_31
REMARK   10  A    between atoms: O_8  and  C_40
REMARK   11  A    between atoms: O_13  and  C_42
REMARK   12  A    between atoms: N_15  and  C_46
REMARK   13  A    between atoms: C_18  and  C_29
REMARK   14  A    between atoms: C_24  and  C_33
REMARK   15  A    between atoms: C_24  and  C_34
REMARK   16  A    between atoms: C_32  and  C_35
REMARK   17  A    between atoms: C_36  and  C_38
REMARK   18  A    between atoms: C_37  and  C_41
REMARK   19  A    between atoms: C_39  and  C_43
REMARK   20  A    between atoms: C_40  and  C_42
REMARK   21  A    between atoms: C_42  and  C_46
REMARK   22  A    between atoms: C_46  and  C_50
REMARK   23  A    between atoms: C_53  and  C_56
REMARK                            x       y       z     vdW  Elec       q    Type
REMARK                         _______ _______ _______ _____ _____    ______ ____
ROOT
ATOM      1  O   UNL     1     -34.607  43.552  -8.794  0.00  0.00    +0.000 OA
ATOM      2  O   UNL     1     -35.185  39.705 -14.209  0.00  0.00    +0.000 OA
ATOM      3  C   UNL     1     -33.833  43.290 -12.137  0.00  0.00    +0.000 C 
ATOM      4  C   UNL     1     -34.517  43.938 -10.897  0.00  0.00    +0.000 C 
ATOM      5  C   UNL     1     -35.016  41.958 -12.789  0.00  0.00    +0.000 C 
ATOM      6  C   UNL     1     -34.444  42.677  -9.944  0.00  0.00    +0.000 C 
ATOM      7  C   UNL     1     -33.068  44.568 -13.259  0.00  0.00    +0.000 C 
ATOM      8  C   UNL     1     -32.147  44.734 -14.905  0.00  0.00    +0.000 C 
ATOM      9  C   UNL     1     -35.171  40.950 -11.574  0.00  0.00    +0.000 C 
ATOM     10  C   UNL     1     -35.477  41.601 -10.192  0.00  0.00    +0.000 C 
ATOM     11  C   UNL     1     -31.910  43.511 -16.169  0.00  0.00    +0.000 C 
ATOM     12  C   UNL     1     -33.885  44.567  -9.593  0.00  0.00    +0.000 C 
ATOM     13  C   UNL     1     -34.799  40.888 -14.321  0.00  0.00    +0.000 C 
ATOM     14  C   UNL     1     -32.943  45.838 -15.742  0.00  0.00    +0.000 C 
ATOM     15  C   UNL     1     -33.303  42.872 -16.649  0.00  0.00    +0.000 C 
ATOM     16  C   UNL     1     -36.492  42.500 -12.988  0.00  0.00    +0.000 C 
ATOM     17  C   UNL     1     -34.043  41.358 -16.024  0.00  0.00    +0.000 C 
ATOM     18  C   UNL     1     -34.026  45.348 -16.806  0.00  0.00    +0.000 C 
ATOM     19  C   UNL     1     -34.139  43.825 -17.181  0.00  0.00    +0.000 C 
ATOM     20  C   UNL     1     -31.281  44.284 -17.434  0.00  0.00    +0.000 C 
ATOM     21  C   UNL     1     -30.734  42.491 -16.033  0.00  0.00    +0.000 C 
ATOM     22  C   UNL     1     -35.393  43.468 -17.942  0.00  0.00    +0.000 C 
ENDROOT
BRANCH   9  23
ATOM     23  O   UNL     1     -33.959  40.210 -11.426  0.00  0.00    +0.000 OA
ATOM     24  H   UNL     1     -33.906  39.956 -10.482  0.00  0.00    +0.000 HD
ENDBRANCH   9  23
BRANCH   8  25
ATOM     25  O   UNL     1     -30.868  45.310 -14.577  0.00  0.00    +0.000 OA
ATOM     26  H   UNL     1     -31.004  46.027 -13.932  0.00  0.00    +0.000 HD
ENDBRANCH   8  25
BRANCH  18  27
ATOM     27  O   UNL     1     -35.341  45.754 -16.329  0.00  0.00    +0.000 OA
BRANCH  27  29
ATOM     28  O   UNL     1     -37.166  46.724 -17.251  0.00  0.00    +0.000 OA
ATOM     29  C   UNL     1     -35.963  46.749 -17.013  0.00  0.00    +0.000 C 
BRANCH  29  30
ATOM     30  C   UNL     1     -35.019  47.807 -17.592  0.00  0.00    +0.000 C 
BRANCH  30  31
ATOM     31  O   UNL     1     -34.981  49.050 -16.882  0.00  0.00    +0.000 OA
ATOM     32  H   UNL     1     -35.853  49.142 -16.453  0.00  0.00    +0.000 HD
ENDBRANCH  30  31
BRANCH  30  33
ATOM     33  C   UNL     1     -35.409  48.040 -19.078  0.00  0.00    +0.000 C 
BRANCH  33  34
ATOM     34  C   UNL     1     -35.130  46.795 -19.908  0.00  0.00    +0.000 A 
ATOM     35  C   UNL     1     -33.805  46.352 -20.064  0.00  0.00    +0.000 A 
ATOM     36  C   UNL     1     -36.154  46.087 -20.557  0.00  0.00    +0.000 A 
ATOM     37  C   UNL     1     -33.516  45.222 -20.830  0.00  0.00    +0.000 A 
ATOM     38  C   UNL     1     -35.863  44.956 -21.321  0.00  0.00    +0.000 A 
ATOM     39  C   UNL     1     -34.545  44.523 -21.455  0.00  0.00    +0.000 A 
ENDBRANCH  33  34
BRANCH  33  41
ATOM     40  O   UNL     1     -34.555  51.043 -20.904  0.00  0.00    +0.000 OA
ATOM     41  N   UNL     1     -34.696  49.205 -19.619  0.00  0.00    +0.000 N 
ATOM     42  C   UNL     1     -34.903  49.871 -20.796  0.00  0.00    +0.000 C 
ATOM     43  H   UNL     1     -34.182  49.745 -18.930  0.00  0.00    +0.000 HD
BRANCH  42  44
ATOM     44  C   UNL     1     -35.585  49.202 -21.927  0.00  0.00    +0.000 A 
ATOM     45  C   UNL     1     -34.864  48.536 -22.923  0.00  0.00    +0.000 A 
ATOM     46  C   UNL     1     -36.978  49.308 -22.024  0.00  0.00    +0.000 A 
ATOM     47  C   UNL     1     -35.541  47.926 -23.980  0.00  0.00    +0.000 A 
ATOM     48  C   UNL     1     -37.651  48.700 -23.083  0.00  0.00    +0.000 A 
ATOM     49  C   UNL     1     -36.933  48.001 -24.055  0.00  0.00    +0.000 A 
ENDBRANCH  42  44
ENDBRANCH  33  41
ENDBRANCH  30  33
ENDBRANCH  29  30
ENDBRANCH  27  29
ENDBRANCH  18  27
BRANCH  17  50
ATOM     50  O   UNL     1     -33.191  40.321 -16.557  0.00  0.00    +0.000 OA
BRANCH  50  52
ATOM     51  O   UNL     1     -34.252  38.530 -17.381  0.00  0.00    +0.000 OA
ATOM     52  C   UNL     1     -33.556  39.521 -17.584  0.00  0.00    +0.000 C 
ATOM     53  C   UNL     1     -33.011  39.835 -18.945  0.00  0.00    +0.000 C 
ENDBRANCH  50  52
ENDBRANCH  17  50
BRANCH   7  54
ATOM     54  O   UNL     1     -34.198  44.516 -13.934  0.00  0.00    +0.000 OA
BRANCH  54  56
ATOM     55  O   UNL     1     -33.557  46.064 -12.824  0.00  0.00    +0.000 OA
ATOM     56  C   UNL     1     -34.548  45.768 -13.484  0.00  0.00    +0.000 C 
BRANCH  56  57
ATOM     57  C   UNL     1     -36.297  46.524 -13.662  0.00  0.00    +0.000 A 
ATOM     58  C   UNL     1     -36.592  47.949 -13.792  0.00  0.00    +0.000 A 
ATOM     59  C   UNL     1     -37.532  45.826 -13.823  0.00  0.00    +0.000 A 
ATOM     60  C   UNL     1     -37.854  48.545 -14.037  0.00  0.00    +0.000 A 
ATOM     61  C   UNL     1     -38.809  46.406 -14.068  0.00  0.00    +0.000 A 
ATOM     62  C   UNL     1     -38.973  47.766 -14.179  0.00  0.00    +0.000 A 
ENDBRANCH  56  57
ENDBRANCH  54  56
ENDBRANCH   7  54
BRANCH   4  63
ATOM     63  O   UNL     1     -35.860  44.391 -11.186  0.00  0.00    +0.000 OA
BRANCH  63  65
ATOM     64  O   UNL     1     -36.175  46.421 -10.303  0.00  0.00    +0.000 OA
ATOM     65  C   UNL     1     -36.559  45.259 -10.419  0.00  0.00    +0.000 C 
ATOM     66  C   UNL     1     -37.725  44.762  -9.625  0.00  0.00    +0.000 C 
ENDBRANCH  63  65
ENDBRANCH   4  63
TORSDOF 17
ENDMDL
MODEL 8
REMARK VINA RESULT:      -5.7      2.132      3.617
REMARK  Name = 
REMARK  23 active torsions:
REMARK  status: ('A' for Active; 'I' for Inactive)
REMARK    1  A    between atoms: O_2  and  C_17
REMARK    2  A    between atoms: O_2  and  C_36
REMARK    3  A    between atoms: O_3  and  C_20
REMARK    4  A    between atoms: O_3  and  C_37
REMARK    5  A    between atoms: O_4  and  C_21
REMARK    6  A    between atoms: O_5  and  C_22
REMARK    7  A    between atoms: O_6  and  C_30
REMARK    8  A    between atoms: O_6  and  C_39
REMARK    9  A    between atoms: O_8  and  C_31
REMARK   10  A    between atoms: O_8  and  C_40
REMARK   11  A    between atoms: O_13  and  C_42
REMARK   12  A    between atoms: N_15  and  C_46
REMARK   13  A    between atoms: C_18  and  C_29
REMARK   14  A    between atoms: C_24  and  C_33
REMARK   15  A    between atoms: C_24  and  C_34
REMARK   16  A    between atoms: C_32  and  C_35
REMARK   17  A    between atoms: C_36  and  C_38
REMARK   18  A    between atoms: C_37  and  C_41
REMARK   19  A    between atoms: C_39  and  C_43
REMARK   20  A    between atoms: C_40  and  C_42
REMARK   21  A    between atoms: C_42  and  C_46
REMARK   22  A    between atoms: C_46  and  C_50
REMARK   23  A    between atoms: C_53  and  C_56
REMARK                            x       y       z     vdW  Elec       q    Type
REMARK                         _______ _______ _______ _____ _____    ______ ____
ROOT
ATOM      1  O   UNL     1     -32.238  44.891 -17.933  0.00  0.00    +0.000 OA
ATOM      2  O   UNL     1     -38.798  43.699 -17.993  0.00  0.00    +0.000 OA
ATOM      3  C   UNL     1     -35.293  45.992 -16.795  0.00  0.00    +0.000 C 
ATOM      4  C   UNL     1     -33.849  45.432 -16.633  0.00  0.00    +0.000 C 
ATOM      5  C   UNL     1     -36.444  44.502 -17.026  0.00  0.00    +0.000 C 
ATOM      6  C   UNL     1     -33.682  44.877 -18.106  0.00  0.00    +0.000 C 
ATOM      7  C   UNL     1     -35.659  47.343 -15.562  0.00  0.00    +0.000 C 
ATOM      8  C   UNL     1     -37.054  48.490 -14.992  0.00  0.00    +0.000 C 
ATOM      9  C   UNL     1     -35.906  43.797 -18.341  0.00  0.00    +0.000 C 
ATOM     10  C   UNL     1     -34.366  43.561 -18.398  0.00  0.00    +0.000 C 
ATOM     11  C   UNL     1     -38.778  48.427 -15.406  0.00  0.00    +0.000 C 
ATOM     12  C   UNL     1     -32.458  46.055 -17.046  0.00  0.00    +0.000 C 
ATOM     13  C   UNL     1     -38.318  44.519 -17.181  0.00  0.00    +0.000 C 
ATOM     14  C   UNL     1     -37.148  48.307 -13.408  0.00  0.00    +0.000 C 
ATOM     15  C   UNL     1     -39.412  46.984 -15.102  0.00  0.00    +0.000 C 
ATOM     16  C   UNL     1     -36.228  43.390 -15.916  0.00  0.00    +0.000 C 
ATOM     17  C   UNL     1     -39.594  45.639 -16.281  0.00  0.00    +0.000 C 
ATOM     18  C   UNL     1     -38.230  47.290 -12.825  0.00  0.00    +0.000 C 
ATOM     19  C   UNL     1     -39.320  46.661 -13.768  0.00  0.00    +0.000 C 
ATOM     20  C   UNL     1     -39.515  49.483 -14.438  0.00  0.00    +0.000 C 
ATOM     21  C   UNL     1     -39.269  49.093 -16.732  0.00  0.00    +0.000 C 
ATOM     22  C   UNL     1     -40.061  45.494 -13.165  0.00  0.00    +0.000 C 
ENDROOT
BRANCH   9  23
ATOM     23  O   UNL     1     -36.245  44.599 -19.471  0.00  0.00    +0.000 OA
ATOM     24  H   UNL     1     -35.881  45.490 -19.296  0.00  0.00    +0.000 HD
ENDBRANCH   9  23
BRANCH   8  25
ATOM     25  O   UNL     1     -36.573  49.828 -15.223  0.00  0.00    +0.000 OA
ATOM     26  H   UNL     1     -35.614  49.793 -15.384  0.00  0.00    +0.000 HD
ENDBRANCH   8  25
BRANCH  18  27
ATOM     27  O   UNL     1     -37.516  46.173 -12.219  0.00  0.00    +0.000 OA
BRANCH  27  29
ATOM     28  O   UNL     1     -36.780  46.988 -10.241  0.00  0.00    +0.000 OA
ATOM     29  C   UNL     1     -37.434  46.159 -10.863  0.00  0.00    +0.000 C 
BRANCH  29  30
ATOM     30  C   UNL     1     -38.085  44.941 -10.201  0.00  0.00    +0.000 C 
BRANCH  30  31
ATOM     31  O   UNL     1     -39.391  45.165  -9.655  0.00  0.00    +0.000 OA
ATOM     32  H   UNL     1     -39.308  45.033  -8.693  0.00  0.00    +0.000 HD
ENDBRANCH  30  31
BRANCH  30  33
ATOM     33  C   UNL     1     -37.119  44.414  -9.104  0.00  0.00    +0.000 C 
BRANCH  33  34
ATOM     34  C   UNL     1     -37.117  42.892  -9.076  0.00  0.00    +0.000 A 
ATOM     35  C   UNL     1     -36.333  42.220  -8.123  0.00  0.00    +0.000 A 
ATOM     36  C   UNL     1     -37.852  42.130  -9.998  0.00  0.00    +0.000 A 
ATOM     37  C   UNL     1     -36.300  40.825  -8.081  0.00  0.00    +0.000 A 
ATOM     38  C   UNL     1     -37.819  40.735  -9.953  0.00  0.00    +0.000 A 
ATOM     39  C   UNL     1     -37.045  40.084  -8.994  0.00  0.00    +0.000 A 
ENDBRANCH  33  34
BRANCH  33  41
ATOM     40  O   UNL     1     -37.266  46.439  -6.111  0.00  0.00    +0.000 OA
ATOM     41  N   UNL     1     -37.485  44.964  -7.792  0.00  0.00    +0.000 N 
ATOM     42  C   UNL     1     -36.723  45.695  -6.921  0.00  0.00    +0.000 C 
ATOM     43  H   UNL     1     -38.484  45.052  -7.632  0.00  0.00    +0.000 HD
BRANCH  42  44
ATOM     44  C   UNL     1     -35.245  45.630  -6.981  0.00  0.00    +0.000 A 
ATOM     45  C   UNL     1     -34.527  44.678  -6.251  0.00  0.00    +0.000 A 
ATOM     46  C   UNL     1     -34.563  46.594  -7.733  0.00  0.00    +0.000 A 
ATOM     47  C   UNL     1     -33.133  44.653  -6.323  0.00  0.00    +0.000 A 
ATOM     48  C   UNL     1     -33.171  46.569  -7.801  0.00  0.00    +0.000 A 
ATOM     49  C   UNL     1     -32.458  45.593  -7.104  0.00  0.00    +0.000 A 
ENDBRANCH  42  44
ENDBRANCH  33  41
ENDBRANCH  30  33
ENDBRANCH  29  30
ENDBRANCH  27  29
ENDBRANCH  18  27
BRANCH  17  50
ATOM     50  O   UNL     1     -40.643  46.100 -17.160  0.00  0.00    +0.000 OA
BRANCH  50  52
ATOM     51  O   UNL     1     -42.814  46.177 -17.699  0.00  0.00    +0.000 OA
ATOM     52  C   UNL     1     -41.888  45.573 -17.164  0.00  0.00    +0.000 C 
ATOM     53  C   UNL     1     -42.108  44.289 -16.423  0.00  0.00    +0.000 C 
ENDBRANCH  50  52
ENDBRANCH  17  50
BRANCH   7  54
ATOM     54  O   UNL     1     -36.180  46.392 -14.816  0.00  0.00    +0.000 OA
BRANCH  54  56
ATOM     55  O   UNL     1     -34.538  47.462 -14.376  0.00  0.00    +0.000 OA
ATOM     56  C   UNL     1     -35.141  46.496 -13.921  0.00  0.00    +0.000 C 
BRANCH  56  57
ATOM     57  C   UNL     1     -34.726  45.179 -12.596  0.00  0.00    +0.000 A 
ATOM     58  C   UNL     1     -35.165  43.785 -12.624  0.00  0.00    +0.000 A 
ATOM     59  C   UNL     1     -33.842  45.315 -11.483  0.00  0.00    +0.000 A 
ATOM     60  C   UNL     1     -34.793  42.751 -11.730  0.00  0.00    +0.000 A 
ATOM     61  C   UNL     1     -33.457  44.289 -10.574  0.00  0.00    +0.000 A 
ATOM     62  C   UNL     1     -33.929  43.005 -10.697  0.00  0.00    +0.000 A 
ENDBRANCH  56  57
ENDBRANCH  54  56
ENDBRANCH   7  54
BRANCH   4  63
ATOM     63  O   UNL     1     -33.766  44.420 -15.601  0.00  0.00    +0.000 OA
BRANCH  63  65
ATOM     64  O   UNL     1     -31.894  44.762 -14.428  0.00  0.00    +0.000 OA
ATOM     65  C   UNL     1     -32.613  43.981 -15.049  0.00  0.00    +0.000 C 
ATOM     66  C   UNL     1     -32.166  42.576 -15.300  0.00  0.00    +0.000 C 
ENDBRANCH  63  65
ENDBRANCH   4  63
TORSDOF 17
ENDMDL
MODEL 9
REMARK VINA RESULT:      -5.7     20.411     25.128
REMARK  Name = 
REMARK  23 active torsions:
REMARK  status: ('A' for Active; 'I' for Inactive)
REMARK    1  A    between atoms: O_2  and  C_17
REMARK    2  A    between atoms: O_2  and  C_36
REMARK    3  A    between atoms: O_3  and  C_20
REMARK    4  A    between atoms: O_3  and  C_37
REMARK    5  A    between atoms: O_4  and  C_21
REMARK    6  A    between atoms: O_5  and  C_22
REMARK    7  A    between atoms: O_6  and  C_30
REMARK    8  A    between atoms: O_6  and  C_39
REMARK    9  A    between atoms: O_8  and  C_31
REMARK   10  A    between atoms: O_8  and  C_40
REMARK   11  A    between atoms: O_13  and  C_42
REMARK   12  A    between atoms: N_15  and  C_46
REMARK   13  A    between atoms: C_18  and  C_29
REMARK   14  A    between atoms: C_24  and  C_33
REMARK   15  A    between atoms: C_24  and  C_34
REMARK   16  A    between atoms: C_32  and  C_35
REMARK   17  A    between atoms: C_36  and  C_38
REMARK   18  A    between atoms: C_37  and  C_41
REMARK   19  A    between atoms: C_39  and  C_43
REMARK   20  A    between atoms: C_40  and  C_42
REMARK   21  A    between atoms: C_42  and  C_46
REMARK   22  A    between atoms: C_46  and  C_50
REMARK   23  A    between atoms: C_53  and  C_56
REMARK                            x       y       z     vdW  Elec       q    Type
REMARK                         _______ _______ _______ _____ _____    ______ ____
ROOT
ATOM      1  O   UNL     1     -35.793  62.110 -28.490  0.00  0.00    +0.000 OA
ATOM      2  O   UNL     1     -31.107  61.270 -23.821  0.00  0.00    +0.000 OA
ATOM      3  C   UNL     1     -32.497  62.700 -27.694  0.00  0.00    +0.000 C 
ATOM      4  C   UNL     1     -33.653  62.080 -28.533  0.00  0.00    +0.000 C 
ATOM      5  C   UNL     1     -32.135  61.496 -26.273  0.00  0.00    +0.000 C 
ATOM      6  C   UNL     1     -34.791  62.218 -27.441  0.00  0.00    +0.000 C 
ATOM      7  C   UNL     1     -31.143  63.389 -28.776  0.00  0.00    +0.000 C 
ATOM      8  C   UNL     1     -29.442  64.216 -28.674  0.00  0.00    +0.000 C 
ATOM      9  C   UNL     1     -33.503  61.419 -25.474  0.00  0.00    +0.000 C 
ATOM     10  C   UNL     1     -34.778  61.183 -26.339  0.00  0.00    +0.000 C 
ATOM     11  C   UNL     1     -28.380  64.394 -27.265  0.00  0.00    +0.000 C 
ATOM     12  C   UNL     1     -34.802  62.777 -29.363  0.00  0.00    +0.000 C 
ATOM     13  C   UNL     1     -30.785  61.638 -24.971  0.00  0.00    +0.000 C 
ATOM     14  C   UNL     1     -28.486  63.363 -29.629  0.00  0.00    +0.000 C 
ATOM     15  C   UNL     1     -28.088  62.983 -26.556  0.00  0.00    +0.000 C 
ATOM     16  C   UNL     1     -31.935  60.006 -26.775  0.00  0.00    +0.000 C 
ATOM     17  C   UNL     1     -28.989  62.293 -25.161  0.00  0.00    +0.000 C 
ATOM     18  C   UNL     1     -27.576  62.228 -28.973  0.00  0.00    +0.000 C 
ATOM     19  C   UNL     1     -27.458  62.109 -27.410  0.00  0.00    +0.000 C 
ATOM     20  C   UNL     1     -26.973  64.944 -27.824  0.00  0.00    +0.000 C 
ATOM     21  C   UNL     1     -28.611  65.586 -26.281  0.00  0.00    +0.000 C 
ATOM     22  C   UNL     1     -26.836  60.819 -26.934  0.00  0.00    +0.000 C 
ENDROOT
BRANCH   9  23
ATOM     23  O   UNL     1     -33.700  62.644 -24.768  0.00  0.00    +0.000 OA
ATOM     24  H   UNL     1     -34.290  63.190 -25.325  0.00  0.00    +0.000 HD
ENDBRANCH   9  23
BRANCH   8  25
ATOM     25  O   UNL     1     -29.601  65.505 -29.297  0.00  0.00    +0.000 OA
ATOM     26  H   UNL     1     -29.753  66.171 -28.604  0.00  0.00    +0.000 HD
ENDBRANCH   8  25
BRANCH  18  27
ATOM     27  O   UNL     1     -28.056  60.937 -29.450  0.00  0.00    +0.000 OA
BRANCH  27  29
ATOM     28  O   UNL     1     -26.090  60.261 -30.345  0.00  0.00    +0.000 OA
ATOM     29  C   UNL     1     -27.314  60.321 -30.407  0.00  0.00    +0.000 C 
BRANCH  29  30
ATOM     30  C   UNL     1     -28.112  59.859 -31.630  0.00  0.00    +0.000 C 
BRANCH  30  31
ATOM     31  O   UNL     1     -27.591  58.707 -32.301  0.00  0.00    +0.000 OA
ATOM     32  H   UNL     1     -27.119  59.042 -33.086  0.00  0.00    +0.000 HD
ENDBRANCH  30  31
BRANCH  30  33
ATOM     33  C   UNL     1     -28.227  61.058 -32.612  0.00  0.00    +0.000 C 
BRANCH  33  34
ATOM     34  C   UNL     1     -29.502  60.956 -33.437  0.00  0.00    +0.000 A 
ATOM     35  C   UNL     1     -29.693  61.827 -34.523  0.00  0.00    +0.000 A 
ATOM     36  C   UNL     1     -30.516  60.035 -33.129  0.00  0.00    +0.000 A 
ATOM     37  C   UNL     1     -30.858  61.767 -35.290  0.00  0.00    +0.000 A 
ATOM     38  C   UNL     1     -31.679  59.975 -33.898  0.00  0.00    +0.000 A 
ATOM     39  C   UNL     1     -31.849  60.839 -34.979  0.00  0.00    +0.000 A 
ENDBRANCH  33  34
BRANCH  33  41
ATOM     40  O   UNL     1     -24.912  61.690 -33.913  0.00  0.00    +0.000 OA
ATOM     41  N   UNL     1     -27.043  61.124 -33.479  0.00  0.00    +0.000 N 
ATOM     42  C   UNL     1     -26.001  62.011 -33.448  0.00  0.00    +0.000 C 
ATOM     43  H   UNL     1     -26.831  60.264 -33.975  0.00  0.00    +0.000 HD
BRANCH  42  44
ATOM     44  C   UNL     1     -26.165  63.339 -32.815  0.00  0.00    +0.000 A 
ATOM     45  C   UNL     1     -27.053  64.288 -33.331  0.00  0.00    +0.000 A 
ATOM     46  C   UNL     1     -25.355  63.663 -31.720  0.00  0.00    +0.000 A 
ATOM     47  C   UNL     1     -27.174  65.535 -32.713  0.00  0.00    +0.000 A 
ATOM     48  C   UNL     1     -25.475  64.909 -31.107  0.00  0.00    +0.000 A 
ATOM     49  C   UNL     1     -26.392  65.840 -31.599  0.00  0.00    +0.000 A 
ENDBRANCH  42  44
ENDBRANCH  33  41
ENDBRANCH  30  33
ENDBRANCH  29  30
ENDBRANCH  27  29
ENDBRANCH  18  27
BRANCH  17  50
ATOM     50  O   UNL     1     -28.583  63.124 -24.052  0.00  0.00    +0.000 OA
BRANCH  50  52
ATOM     51  O   UNL     1     -27.773  62.284 -22.143  0.00  0.00    +0.000 OA
ATOM     52  C   UNL     1     -27.556  62.809 -23.231  0.00  0.00    +0.000 C 
ATOM     53  C   UNL     1     -26.173  63.203 -23.654  0.00  0.00    +0.000 C 
ENDBRANCH  50  52
ENDBRANCH  17  50
BRANCH   7  54
ATOM     54  O   UNL     1     -30.550  62.224 -28.615  0.00  0.00    +0.000 OA
BRANCH  54  56
ATOM     55  O   UNL     1     -30.769  60.610 -29.791  0.00  0.00    +0.000 OA
ATOM     56  C   UNL     1     -30.963  61.819 -29.862  0.00  0.00    +0.000 C 
BRANCH  56  57
ATOM     57  C   UNL     1     -31.367  63.013 -31.302  0.00  0.00    +0.000 A 
ATOM     58  C   UNL     1     -32.671  63.146 -31.948  0.00  0.00    +0.000 A 
ATOM     59  C   UNL     1     -30.521  64.020 -31.859  0.00  0.00    +0.000 A 
ATOM     60  C   UNL     1     -33.046  64.090 -32.937  0.00  0.00    +0.000 A 
ATOM     61  C   UNL     1     -30.878  64.975 -32.852  0.00  0.00    +0.000 A 
ATOM     62  C   UNL     1     -32.142  65.014 -33.391  0.00  0.00    +0.000 A 
ENDBRANCH  56  57
ENDBRANCH  54  56
ENDBRANCH   7  54
BRANCH   4  63
ATOM     63  O   UNL     1     -33.371  60.718 -28.932  0.00  0.00    +0.000 OA
BRANCH  63  65
ATOM     64  O   UNL     1     -34.006  60.294 -31.034  0.00  0.00    +0.000 OA
ATOM     65  C   UNL     1     -34.093  60.020 -29.838  0.00  0.00    +0.000 C 
ATOM     66  C   UNL     1     -35.078  59.000 -29.364  0.00  0.00    +0.000 C 
ENDBRANCH  63  65
ENDBRANCH   4  63
TORSDOF 17
ENDMDL
