MODEL 1
REMARK VINA RESULT:      -7.6      0.000      0.000
REMARK  Name = 
REMARK  5 active torsions:
REMARK  status: ('A' for Active; 'I' for Inactive)
REMARK    1  A    between atoms: O_1  and  C_16
REMARK    2  A    between atoms: O_3  and  C_25
REMARK    3  A    between atoms: C_11  and  C_22
REMARK    4  A    between atoms: C_16  and  C_28
REMARK    5  A    between atoms: C_29  and  C_31
REMARK                            x       y       z     vdW  Elec       q    Type
REMARK                         _______ _______ _______ _____ _____    ______ ____
ROOT
ATOM      1  O   UNL     1     -37.326  45.879  -7.072  0.00  0.00    +0.000 OA
ATOM      2  N   UNL     1     -32.717  43.785 -15.105  0.00  0.00    +0.000 NA
ATOM      3  C   UNL     1     -34.076  45.689 -12.046  0.00  0.00    +0.000 C 
ATOM      4  C   UNL     1     -35.466  46.207 -11.593  0.00  0.00    +0.000 C 
ATOM      5  C   UNL     1     -34.179  45.603  -9.654  0.00  0.00    +0.000 C 
ATOM      6  C   UNL     1     -35.627  45.689 -10.154  0.00  0.00    +0.000 C 
ATOM      7  C   UNL     1     -34.118  44.877 -13.355  0.00  0.00    +0.000 C 
ATOM      8  C   UNL     1     -33.496  44.925 -10.838  0.00  0.00    +0.000 C 
ATOM      9  C   UNL     1     -34.077  44.963  -8.243  0.00  0.00    +0.000 C 
ATOM     10  C   UNL     1     -34.869  45.687 -14.434  0.00  0.00    +0.000 C 
ATOM     11  C   UNL     1     -36.602  45.756 -12.505  0.00  0.00    +0.000 C 
ATOM     12  C   UNL     1     -34.912  45.875  -7.294  0.00  0.00    +0.000 C 
ATOM     13  C   UNL     1     -36.313  46.023 -13.980  0.00  0.00    +0.000 C 
ATOM     14  C   UNL     1     -34.805  44.977 -15.817  0.00  0.00    +0.000 C 
ATOM     15  C   UNL     1     -36.497  46.530  -9.232  0.00  0.00    +0.000 C 
ATOM     16  C   UNL     1     -32.703  44.517 -13.827  0.00  0.00    +0.000 C 
ATOM     17  C   UNL     1     -33.317  44.617 -16.186  0.00  0.00    +0.000 C 
ATOM     18  C   UNL     1     -32.606  44.983  -7.755  0.00  0.00    +0.000 C 
ATOM     19  C   UNL     1     -36.348  46.033  -7.801  0.00  0.00    +0.000 C 
ATOM     20  C   UNL     1     -34.589  43.502  -8.233  0.00  0.00    +0.000 C 
ATOM     21  C   UNL     1     -34.823  45.437  -5.832  0.00  0.00    +0.000 C 
ATOM     22  C   UNL     1     -32.458  44.605  -6.278  0.00  0.00    +0.000 C 
ATOM     23  C   UNL     1     -33.367  45.426  -5.363  0.00  0.00    +0.000 C 
ATOM     24  C   UNL     1     -33.241  43.872 -17.543  0.00  0.00    +0.000 C 
ATOM     25  C   UNL     1     -31.333  43.386 -15.430  0.00  0.00    +0.000 C 
ATOM     26  C   UNL     1     -35.457  45.842 -16.905  0.00  0.00    +0.000 C 
ATOM     27  C   UNL     1     -31.236  42.572 -16.724  0.00  0.00    +0.000 C 
ATOM     28  C   UNL     1     -31.837  43.378 -17.874  0.00  0.00    +0.000 C 
ATOM     29  C   UNL     1     -31.891  41.195 -16.583  0.00  0.00    +0.000 C 
ENDROOT
BRANCH  14  30
ATOM     30  O   UNL     1     -35.559  43.756 -15.726  0.00  0.00    +0.000 OA
ATOM     31  H   UNL     1     -36.063  43.830 -14.891  0.00  0.00    +0.000 HD
ENDBRANCH  14  30
BRANCH  23  32
ATOM     32  O   UNL     1     -33.287  44.885  -4.049  0.00  0.00    +0.000 OA
ATOM     33  H   UNL     1     -32.979  45.591  -3.455  0.00  0.00    +0.000 HD
ENDBRANCH  23  32
TORSDOF 2
ENDMDL
MODEL 2
REMARK VINA RESULT:      -7.5     23.890     26.089
REMARK  Name = 
REMARK  5 active torsions:
REMARK  status: ('A' for Active; 'I' for Inactive)
REMARK    1  A    between atoms: O_1  and  C_16
REMARK    2  A    between atoms: O_3  and  C_25
REMARK    3  A    between atoms: C_11  and  C_22
REMARK    4  A    between atoms: C_16  and  C_28
REMARK    5  A    between atoms: C_29  and  C_31
REMARK                            x       y       z     vdW  Elec       q    Type
REMARK                         _______ _______ _______ _____ _____    ______ ____
ROOT
ATOM      1  O   UNL     1     -18.583  57.582 -31.383  0.00  0.00    +0.000 OA
ATOM      2  N   UNL     1     -15.735  50.395 -25.871  0.00  0.00    +0.000 NA
ATOM      3  C   UNL     1     -17.829  53.253 -27.379  0.00  0.00    +0.000 C 
ATOM      4  C   UNL     1     -17.705  54.798 -27.448  0.00  0.00    +0.000 C 
ATOM      5  C   UNL     1     -18.805  54.005 -29.434  0.00  0.00    +0.000 C 
ATOM      6  C   UNL     1     -17.903  55.141 -28.934  0.00  0.00    +0.000 C 
ATOM      7  C   UNL     1     -16.617  52.567 -26.719  0.00  0.00    +0.000 C 
ATOM      8  C   UNL     1     -18.118  52.788 -28.822  0.00  0.00    +0.000 C 
ATOM      9  C   UNL     1     -19.035  54.063 -30.968  0.00  0.00    +0.000 C 
ATOM     10  C   UNL     1     -16.333  53.237 -25.357  0.00  0.00    +0.000 C 
ATOM     11  C   UNL     1     -16.381  55.320 -26.901  0.00  0.00    +0.000 C 
ATOM     12  C   UNL     1     -19.708  55.440 -31.253  0.00  0.00    +0.000 C 
ATOM     13  C   UNL     1     -16.050  54.751 -25.523  0.00  0.00    +0.000 C 
ATOM     14  C   UNL     1     -15.216  52.480 -24.581  0.00  0.00    +0.000 C 
ATOM     15  C   UNL     1     -18.494  56.510 -29.235  0.00  0.00    +0.000 C 
ATOM     16  C   UNL     1     -16.860  51.062 -26.549  0.00  0.00    +0.000 C 
ATOM     17  C   UNL     1     -15.543  50.942 -24.499  0.00  0.00    +0.000 C 
ATOM     18  C   UNL     1     -20.021  52.948 -31.401  0.00  0.00    +0.000 C 
ATOM     19  C   UNL     1     -18.861  56.592 -30.710  0.00  0.00    +0.000 C 
ATOM     20  C   UNL     1     -17.713  53.896 -31.757  0.00  0.00    +0.000 C 
ATOM     21  C   UNL     1     -20.102  55.607 -32.721  0.00  0.00    +0.000 C 
ATOM     22  C   UNL     1     -20.496  53.095 -32.849  0.00  0.00    +0.000 C 
ATOM     23  C   UNL     1     -21.050  54.487 -33.153  0.00  0.00    +0.000 C 
ATOM     24  C   UNL     1     -14.418  50.169 -23.764  0.00  0.00    +0.000 C 
ATOM     25  C   UNL     1     -16.000  48.943 -25.846  0.00  0.00    +0.000 C 
ATOM     26  C   UNL     1     -15.018  53.085 -23.183  0.00  0.00    +0.000 C 
ATOM     27  C   UNL     1     -14.866  48.140 -25.201  0.00  0.00    +0.000 C 
ATOM     28  C   UNL     1     -14.622  48.658 -23.785  0.00  0.00    +0.000 C 
ATOM     29  C   UNL     1     -13.592  48.170 -26.051  0.00  0.00    +0.000 C 
ENDROOT
BRANCH  14  30
ATOM     30  O   UNL     1     -13.982  52.646 -25.301  0.00  0.00    +0.000 OA
ATOM     31  H   UNL     1     -14.074  52.080 -26.094  0.00  0.00    +0.000 HD
ENDBRANCH  14  30
BRANCH  23  32
ATOM     32  O   UNL     1     -21.296  54.577 -34.552  0.00  0.00    +0.000 OA
ATOM     33  H   UNL     1     -20.443  54.483 -35.011  0.00  0.00    +0.000 HD
ENDBRANCH  23  32
TORSDOF 2
ENDMDL
MODEL 3
REMARK VINA RESULT:      -7.3      4.646      8.001
REMARK  Name = 
REMARK  5 active torsions:
REMARK  status: ('A' for Active; 'I' for Inactive)
REMARK    1  A    between atoms: O_1  and  C_16
REMARK    2  A    between atoms: O_3  and  C_25
REMARK    3  A    between atoms: C_11  and  C_22
REMARK    4  A    between atoms: C_16  and  C_28
REMARK    5  A    between atoms: C_29  and  C_31
REMARK                            x       y       z     vdW  Elec       q    Type
REMARK                         _______ _______ _______ _____ _____    ______ ____
ROOT
ATOM      1  O   UNL     1     -32.976  44.215 -10.301  0.00  0.00    +0.000 OA
ATOM      2  N   UNL     1     -40.098  50.417  -9.313  0.00  0.00    +0.000 NA
ATOM      3  C   UNL     1     -38.097  47.133  -9.521  0.00  0.00    +0.000 C 
ATOM      4  C   UNL     1     -37.373  46.348 -10.647  0.00  0.00    +0.000 C 
ATOM      5  C   UNL     1     -36.211  46.001  -8.571  0.00  0.00    +0.000 C 
ATOM      6  C   UNL     1     -35.971  46.060 -10.085  0.00  0.00    +0.000 C 
ATOM      7  C   UNL     1     -38.671  48.486  -9.986  0.00  0.00    +0.000 C 
ATOM      8  C   UNL     1     -37.085  47.233  -8.360  0.00  0.00    +0.000 C 
ATOM      9  C   UNL     1     -34.891  45.853  -7.768  0.00  0.00    +0.000 C 
ATOM     10  C   UNL     1     -39.529  48.268 -11.251  0.00  0.00    +0.000 C 
ATOM     11  C   UNL     1     -37.326  47.102 -11.972  0.00  0.00    +0.000 C 
ATOM     12  C   UNL     1     -34.236  44.525  -8.253  0.00  0.00    +0.000 C 
ATOM     13  C   UNL     1     -38.694  47.635 -12.393  0.00  0.00    +0.000 C 
ATOM     14  C   UNL     1     -40.257  49.578 -11.670  0.00  0.00    +0.000 C 
ATOM     15  C   UNL     1     -35.286  44.803 -10.602  0.00  0.00    +0.000 C 
ATOM     16  C   UNL     1     -39.495  49.147  -8.873  0.00  0.00    +0.000 C 
ATOM     17  C   UNL     1     -41.037  50.193 -10.448  0.00  0.00    +0.000 C 
ATOM     18  C   UNL     1     -35.201  45.711  -6.256  0.00  0.00    +0.000 C 
ATOM     19  C   UNL     1     -34.041  44.527  -9.771  0.00  0.00    +0.000 C 
ATOM     20  C   UNL     1     -33.950  47.066  -7.974  0.00  0.00    +0.000 C 
ATOM     21  C   UNL     1     -32.968  44.177  -7.473  0.00  0.00    +0.000 C 
ATOM     22  C   UNL     1     -33.978  45.307  -5.427  0.00  0.00    +0.000 C 
ATOM     23  C   UNL     1     -33.271  44.068  -5.978  0.00  0.00    +0.000 C 
ATOM     24  C   UNL     1     -41.733  51.521 -10.839  0.00  0.00    +0.000 C 
ATOM     25  C   UNL     1     -40.778  51.035  -8.157  0.00  0.00    +0.000 C 
ATOM     26  C   UNL     1     -41.193  49.325 -12.861  0.00  0.00    +0.000 C 
ATOM     27  C   UNL     1     -41.405  52.392  -8.491  0.00  0.00    +0.000 C 
ATOM     28  C   UNL     1     -42.382  52.225  -9.653  0.00  0.00    +0.000 C 
ATOM     29  C   UNL     1     -40.341  53.455  -8.782  0.00  0.00    +0.000 C 
ENDROOT
BRANCH  14  30
ATOM     30  O   UNL     1     -39.261  50.523 -12.097  0.00  0.00    +0.000 OA
ATOM     31  H   UNL     1     -38.445  50.263 -11.625  0.00  0.00    +0.000 HD
ENDBRANCH  14  30
BRANCH  23  32
ATOM     32  O   UNL     1     -32.061  43.882  -5.252  0.00  0.00    +0.000 OA
ATOM     33  H   UNL     1     -32.296  43.617  -4.346  0.00  0.00    +0.000 HD
ENDBRANCH  23  32
TORSDOF 2
ENDMDL
MODEL 4
REMARK VINA RESULT:      -7.2     23.824     25.707
REMARK  Name = 
REMARK  5 active torsions:
REMARK  status: ('A' for Active; 'I' for Inactive)
REMARK    1  A    between atoms: O_1  and  C_16
REMARK    2  A    between atoms: O_3  and  C_25
REMARK    3  A    between atoms: C_11  and  C_22
REMARK    4  A    between atoms: C_16  and  C_28
REMARK    5  A    between atoms: C_29  and  C_31
REMARK                            x       y       z     vdW  Elec       q    Type
REMARK                         _______ _______ _______ _____ _____    ______ ____
ROOT
ATOM      1  O   UNL     1     -14.043  53.215 -22.172  0.00  0.00    +0.000 OA
ATOM      2  N   UNL     1     -17.791  57.380 -29.838  0.00  0.00    +0.000 NA
ATOM      3  C   UNL     1     -17.408  55.382 -26.568  0.00  0.00    +0.000 C 
ATOM      4  C   UNL     1     -16.760  54.030 -26.167  0.00  0.00    +0.000 C 
ATOM      5  C   UNL     1     -16.594  55.563 -24.322  0.00  0.00    +0.000 C 
ATOM      6  C   UNL     1     -15.875  54.365 -24.955  0.00  0.00    +0.000 C 
ATOM      7  C   UNL     1     -17.175  55.762 -28.043  0.00  0.00    +0.000 C 
ATOM      8  C   UNL     1     -16.885  56.419 -25.551  0.00  0.00    +0.000 C 
ATOM      9  C   UNL     1     -15.799  56.174 -23.137  0.00  0.00    +0.000 C 
ATOM     10  C   UNL     1     -17.584  54.577 -28.945  0.00  0.00    +0.000 C 
ATOM     11  C   UNL     1     -15.973  53.381 -27.301  0.00  0.00    +0.000 C 
ATOM     12  C   UNL     1     -15.644  55.033 -22.087  0.00  0.00    +0.000 C 
ATOM     13  C   UNL     1     -16.772  53.303 -28.600  0.00  0.00    +0.000 C 
ATOM     14  C   UNL     1     -17.514  54.966 -30.451  0.00  0.00    +0.000 C 
ATOM     15  C   UNL     1     -15.655  53.241 -23.953  0.00  0.00    +0.000 C 
ATOM     16  C   UNL     1     -17.957  57.029 -28.417  0.00  0.00    +0.000 C 
ATOM     17  C   UNL     1     -18.312  56.296 -30.717  0.00  0.00    +0.000 C 
ATOM     18  C   UNL     1     -16.611  57.321 -22.484  0.00  0.00    +0.000 C 
ATOM     19  C   UNL     1     -14.986  53.797 -22.704  0.00  0.00    +0.000 C 
ATOM     20  C   UNL     1     -14.424  56.728 -23.588  0.00  0.00    +0.000 C 
ATOM     21  C   UNL     1     -14.969  55.508 -20.800  0.00  0.00    +0.000 C 
ATOM     22  C   UNL     1     -16.013  57.802 -21.159  0.00  0.00    +0.000 C 
ATOM     23  C   UNL     1     -15.757  56.661 -20.175  0.00  0.00    +0.000 C 
ATOM     24  C   UNL     1     -18.217  56.719 -32.205  0.00  0.00    +0.000 C 
ATOM     25  C   UNL     1     -18.482  58.662 -30.085  0.00  0.00    +0.000 C 
ATOM     26  C   UNL     1     -18.027  53.819 -31.334  0.00  0.00    +0.000 C 
ATOM     27  C   UNL     1     -18.334  59.150 -31.529  0.00  0.00    +0.000 C 
ATOM     28  C   UNL     1     -18.856  58.075 -32.481  0.00  0.00    +0.000 C 
ATOM     29  C   UNL     1     -16.892  59.552 -31.850  0.00  0.00    +0.000 C 
ENDROOT
BRANCH  14  30
ATOM     30  O   UNL     1     -16.134  55.187 -30.790  0.00  0.00    +0.000 OA
ATOM     31  H   UNL     1     -15.893  56.022 -30.340  0.00  0.00    +0.000 HD
ENDBRANCH  14  30
BRANCH  23  32
ATOM     32  O   UNL     1     -15.045  57.182 -19.058  0.00  0.00    +0.000 OA
ATOM     33  H   UNL     1     -14.679  58.046 -19.316  0.00  0.00    +0.000 HD
ENDBRANCH  23  32
TORSDOF 2
ENDMDL
MODEL 5
REMARK VINA RESULT:      -7.2     23.840     25.006
REMARK  Name = 
REMARK  5 active torsions:
REMARK  status: ('A' for Active; 'I' for Inactive)
REMARK    1  A    between atoms: O_1  and  C_16
REMARK    2  A    between atoms: O_3  and  C_25
REMARK    3  A    between atoms: C_11  and  C_22
REMARK    4  A    between atoms: C_16  and  C_28
REMARK    5  A    between atoms: C_29  and  C_31
REMARK                            x       y       z     vdW  Elec       q    Type
REMARK                         _______ _______ _______ _____ _____    ______ ____
ROOT
ATOM      1  O   UNL     1     -15.415  59.803 -18.795  0.00  0.00    +0.000 OA
ATOM      2  N   UNL     1     -16.061  54.617 -26.722  0.00  0.00    +0.000 NA
ATOM      3  C   UNL     1     -16.863  56.225 -23.316  0.00  0.00    +0.000 C 
ATOM      4  C   UNL     1     -16.305  56.098 -21.873  0.00  0.00    +0.000 C 
ATOM      5  C   UNL     1     -17.073  58.349 -22.226  0.00  0.00    +0.000 C 
ATOM      6  C   UNL     1     -16.040  57.545 -21.427  0.00  0.00    +0.000 C 
ATOM      7  C   UNL     1     -16.081  55.396 -24.353  0.00  0.00    +0.000 C 
ATOM      8  C   UNL     1     -16.915  57.738 -23.615  0.00  0.00    +0.000 C 
ATOM      9  C   UNL     1     -16.905  59.880 -22.041  0.00  0.00    +0.000 C 
ATOM     10  C   UNL     1     -15.958  53.940 -23.853  0.00  0.00    +0.000 C 
ATOM     11  C   UNL     1     -15.059  55.223 -21.785  0.00  0.00    +0.000 C 
ATOM     12  C   UNL     1     -17.084  60.154 -20.517  0.00  0.00    +0.000 C 
ATOM     13  C   UNL     1     -15.237  53.876 -22.483  0.00  0.00    +0.000 C 
ATOM     14  C   UNL     1     -15.311  53.027 -24.935  0.00  0.00    +0.000 C 
ATOM     15  C   UNL     1     -16.141  57.816 -19.933  0.00  0.00    +0.000 C 
ATOM     16  C   UNL     1     -16.762  55.447 -25.727  0.00  0.00    +0.000 C 
ATOM     17  C   UNL     1     -16.059  53.185 -26.312  0.00  0.00    +0.000 C 
ATOM     18  C   UNL     1     -18.027  60.635 -22.799  0.00  0.00    +0.000 C 
ATOM     19  C   UNL     1     -16.107  59.318 -19.687  0.00  0.00    +0.000 C 
ATOM     20  C   UNL     1     -15.531  60.378 -22.556  0.00  0.00    +0.000 C 
ATOM     21  C   UNL     1     -17.053  61.645 -20.181  0.00  0.00    +0.000 C 
ATOM     22  C   UNL     1     -18.082  62.128 -22.460  0.00  0.00    +0.000 C 
ATOM     23  C   UNL     1     -18.141  62.392 -20.955  0.00  0.00    +0.000 C 
ATOM     24  C   UNL     1     -15.401  52.312 -27.410  0.00  0.00    +0.000 C 
ATOM     25  C   UNL     1     -16.714  54.808 -28.032  0.00  0.00    +0.000 C 
ATOM     26  C   UNL     1     -15.295  51.562 -24.473  0.00  0.00    +0.000 C 
ATOM     27  C   UNL     1     -16.033  54.023 -29.158  0.00  0.00    +0.000 C 
ATOM     28  C   UNL     1     -16.002  52.541 -28.793  0.00  0.00    +0.000 C 
ATOM     29  C   UNL     1     -14.636  54.568 -29.468  0.00  0.00    +0.000 C 
ENDROOT
BRANCH  14  30
ATOM     30  O   UNL     1     -13.945  53.440 -25.109  0.00  0.00    +0.000 OA
ATOM     31  H   UNL     1     -13.872  54.285 -24.622  0.00  0.00    +0.000 HD
ENDBRANCH  14  30
BRANCH  23  32
ATOM     32  O   UNL     1     -18.011  63.793 -20.740  0.00  0.00    +0.000 OA
ATOM     33  H   UNL     1     -18.621  64.245 -21.349  0.00  0.00    +0.000 HD
ENDBRANCH  23  32
TORSDOF 2
ENDMDL
MODEL 6
REMARK VINA RESULT:      -7.1      5.532      8.898
REMARK  Name = 
REMARK  5 active torsions:
REMARK  status: ('A' for Active; 'I' for Inactive)
REMARK    1  A    between atoms: O_1  and  C_16
REMARK    2  A    between atoms: O_3  and  C_25
REMARK    3  A    between atoms: C_11  and  C_22
REMARK    4  A    between atoms: C_16  and  C_28
REMARK    5  A    between atoms: C_29  and  C_31
REMARK                            x       y       z     vdW  Elec       q    Type
REMARK                         _______ _______ _______ _____ _____    ______ ____
ROOT
ATOM      1  O   UNL     1     -33.378  43.944 -14.057  0.00  0.00    +0.000 OA
ATOM      2  N   UNL     1     -35.781  49.682 -21.229  0.00  0.00    +0.000 NA
ATOM      3  C   UNL     1     -34.097  48.275 -18.065  0.00  0.00    +0.000 C 
ATOM      4  C   UNL     1     -34.556  47.950 -16.619  0.00  0.00    +0.000 C 
ATOM      5  C   UNL     1     -32.833  46.403 -17.266  0.00  0.00    +0.000 C 
ATOM      6  C   UNL     1     -34.072  46.513 -16.368  0.00  0.00    +0.000 C 
ATOM      7  C   UNL     1     -35.243  48.740 -18.984  0.00  0.00    +0.000 C 
ATOM      8  C   UNL     1     -33.350  47.019 -18.562  0.00  0.00    +0.000 C 
ATOM      9  C   UNL     1     -32.239  44.969 -17.285  0.00  0.00    +0.000 C 
ATOM     10  C   UNL     1     -36.013  49.889 -18.297  0.00  0.00    +0.000 C 
ATOM     11  C   UNL     1     -36.060  48.102 -16.417  0.00  0.00    +0.000 C 
ATOM     12  C   UNL     1     -31.856  44.640 -15.810  0.00  0.00    +0.000 C 
ATOM     13  C   UNL     1     -36.589  49.440 -16.930  0.00  0.00    +0.000 C 
ATOM     14  C   UNL     1     -37.083  50.498 -19.249  0.00  0.00    +0.000 C 
ATOM     15  C   UNL     1     -33.760  46.152 -14.923  0.00  0.00    +0.000 C 
ATOM     16  C   UNL     1     -34.708  49.183 -20.353  0.00  0.00    +0.000 C 
ATOM     17  C   UNL     1     -36.439  50.879 -20.634  0.00  0.00    +0.000 C 
ATOM     18  C   UNL     1     -30.944  44.939 -18.135  0.00  0.00    +0.000 C 
ATOM     19  C   UNL     1     -33.058  44.802 -14.877  0.00  0.00    +0.000 C 
ATOM     20  C   UNL     1     -33.240  43.937 -17.861  0.00  0.00    +0.000 C 
ATOM     21  C   UNL     1     -31.152  43.291 -15.674  0.00  0.00    +0.000 C 
ATOM     22  C   UNL     1     -30.163  43.629 -17.996  0.00  0.00    +0.000 C 
ATOM     23  C   UNL     1     -29.891  43.253 -16.539  0.00  0.00    +0.000 C 
ATOM     24  C   UNL     1     -37.501  51.449 -21.608  0.00  0.00    +0.000 C 
ATOM     25  C   UNL     1     -35.200  49.982 -22.553  0.00  0.00    +0.000 C 
ATOM     26  C   UNL     1     -37.766  51.710 -18.597  0.00  0.00    +0.000 C 
ATOM     27  C   UNL     1     -36.243  50.468 -23.565  0.00  0.00    +0.000 C 
ATOM     28  C   UNL     1     -36.952  51.700 -23.008  0.00  0.00    +0.000 C 
ATOM     29  C   UNL     1     -37.228  49.359 -23.945  0.00  0.00    +0.000 C 
ENDROOT
BRANCH  14  30
ATOM     30  O   UNL     1     -38.095  49.503 -19.476  0.00  0.00    +0.000 OA
ATOM     31  H   UNL     1     -38.509  49.751 -20.327  0.00  0.00    +0.000 HD
ENDBRANCH  14  30
BRANCH  23  32
ATOM     32  O   UNL     1     -29.324  41.948 -16.511  0.00  0.00    +0.000 OA
ATOM     33  H   UNL     1     -29.711  41.440 -17.245  0.00  0.00    +0.000 HD
ENDBRANCH  23  32
TORSDOF 2
ENDMDL
MODEL 7
REMARK VINA RESULT:      -7.1     23.601     25.399
REMARK  Name = 
REMARK  5 active torsions:
REMARK  status: ('A' for Active; 'I' for Inactive)
REMARK    1  A    between atoms: O_1  and  C_16
REMARK    2  A    between atoms: O_3  and  C_25
REMARK    3  A    between atoms: C_11  and  C_22
REMARK    4  A    between atoms: C_16  and  C_28
REMARK    5  A    between atoms: C_29  and  C_31
REMARK                            x       y       z     vdW  Elec       q    Type
REMARK                         _______ _______ _______ _____ _____    ______ ____
ROOT
ATOM      1  O   UNL     1     -16.602  56.280 -27.659  0.00  0.00    +0.000 OA
ATOM      2  N   UNL     1     -14.281  55.996 -18.457  0.00  0.00    +0.000 NA
ATOM      3  C   UNL     1     -16.259  55.731 -21.750  0.00  0.00    +0.000 C 
ATOM      4  C   UNL     1     -16.823  56.738 -22.787  0.00  0.00    +0.000 C 
ATOM      5  C   UNL     1     -16.204  54.708 -23.916  0.00  0.00    +0.000 C 
ATOM      6  C   UNL     1     -16.327  56.219 -24.146  0.00  0.00    +0.000 C 
ATOM      7  C   UNL     1     -15.433  56.395 -20.632  0.00  0.00    +0.000 C 
ATOM      8  C   UNL     1     -15.492  54.670 -22.567  0.00  0.00    +0.000 C 
ATOM      9  C   UNL     1     -15.578  53.972 -25.131  0.00  0.00    +0.000 C 
ATOM     10  C   UNL     1     -16.253  57.546 -20.008  0.00  0.00    +0.000 C 
ATOM     11  C   UNL     1     -16.394  58.177 -22.521  0.00  0.00    +0.000 C 
ATOM     12  C   UNL     1     -16.525  54.249 -26.338  0.00  0.00    +0.000 C 
ATOM     13  C   UNL     1     -16.636  58.604 -21.074  0.00  0.00    +0.000 C 
ATOM     14  C   UNL     1     -15.524  58.149 -18.772  0.00  0.00    +0.000 C 
ATOM     15  C   UNL     1     -17.203  56.541 -25.348  0.00  0.00    +0.000 C 
ATOM     16  C   UNL     1     -15.026  55.372 -19.563  0.00  0.00    +0.000 C 
ATOM     17  C   UNL     1     -15.117  57.014 -17.761  0.00  0.00    +0.000 C 
ATOM     18  C   UNL     1     -15.560  52.443 -24.877  0.00  0.00    +0.000 C 
ATOM     19  C   UNL     1     -16.719  55.751 -26.556  0.00  0.00    +0.000 C 
ATOM     20  C   UNL     1     -14.132  54.450 -25.414  0.00  0.00    +0.000 C 
ATOM     21  C   UNL     1     -16.101  53.497 -27.600  0.00  0.00    +0.000 C 
ATOM     22  C   UNL     1     -15.196  51.631 -26.123  0.00  0.00    +0.000 C 
ATOM     23  C   UNL     1     -16.053  51.991 -27.336  0.00  0.00    +0.000 C 
ATOM     24  C   UNL     1     -14.354  57.595 -16.543  0.00  0.00    +0.000 C 
ATOM     25  C   UNL     1     -13.837  54.932 -17.535  0.00  0.00    +0.000 C 
ATOM     26  C   UNL     1     -16.396  59.217 -18.093  0.00  0.00    +0.000 C 
ATOM     27  C   UNL     1     -13.006  55.466 -16.364  0.00  0.00    +0.000 C 
ATOM     28  C   UNL     1     -13.816  56.518 -15.608  0.00  0.00    +0.000 C 
ATOM     29  C   UNL     1     -11.651  56.007 -16.827  0.00  0.00    +0.000 C 
ENDROOT
BRANCH  14  30
ATOM     30  O   UNL     1     -14.328  58.799 -19.233  0.00  0.00    +0.000 OA
ATOM     31  H   UNL     1     -13.664  58.085 -19.309  0.00  0.00    +0.000 HD
ENDBRANCH  14  30
BRANCH  23  32
ATOM     32  O   UNL     1     -15.526  51.318 -28.474  0.00  0.00    +0.000 OA
ATOM     33  H   UNL     1     -15.739  50.373 -28.386  0.00  0.00    +0.000 HD
ENDBRANCH  23  32
TORSDOF 2
ENDMDL
MODEL 8
REMARK VINA RESULT:      -7.1      5.578      9.350
REMARK  Name = 
REMARK  5 active torsions:
REMARK  status: ('A' for Active; 'I' for Inactive)
REMARK    1  A    between atoms: O_1  and  C_16
REMARK    2  A    between atoms: O_3  and  C_25
REMARK    3  A    between atoms: C_11  and  C_22
REMARK    4  A    between atoms: C_16  and  C_28
REMARK    5  A    between atoms: C_29  and  C_31
REMARK                            x       y       z     vdW  Elec       q    Type
REMARK                         _______ _______ _______ _____ _____    ______ ____
ROOT
ATOM      1  O   UNL     1     -30.574  41.532 -15.689  0.00  0.00    +0.000 OA
ATOM      2  N   UNL     1     -36.127  48.721 -18.453  0.00  0.00    +0.000 NA
ATOM      3  C   UNL     1     -33.124  46.706 -17.131  0.00  0.00    +0.000 C 
ATOM      4  C   UNL     1     -32.821  45.883 -15.850  0.00  0.00    +0.000 C 
ATOM      5  C   UNL     1     -31.645  44.911 -17.709  0.00  0.00    +0.000 C 
ATOM      6  C   UNL     1     -32.287  44.537 -16.367  0.00  0.00    +0.000 C 
ATOM      7  C   UNL     1     -34.569  47.237 -17.193  0.00  0.00    +0.000 C 
ATOM      8  C   UNL     1     -32.725  45.802 -18.316  0.00  0.00    +0.000 C 
ATOM      9  C   UNL     1     -31.148  43.669 -18.495  0.00  0.00    +0.000 C 
ATOM     10  C   UNL     1     -34.896  47.979 -15.878  0.00  0.00    +0.000 C 
ATOM     11  C   UNL     1     -34.034  45.719 -14.940  0.00  0.00    +0.000 C 
ATOM     12  C   UNL     1     -30.096  42.971 -17.580  0.00  0.00    +0.000 C 
ATOM     13  C   UNL     1     -34.736  47.044 -14.652  0.00  0.00    +0.000 C 
ATOM     14  C   UNL     1     -36.290  48.667 -15.952  0.00  0.00    +0.000 C 
ATOM     15  C   UNL     1     -31.313  43.807 -15.455  0.00  0.00    +0.000 C 
ATOM     16  C   UNL     1     -34.767  48.159 -18.404  0.00  0.00    +0.000 C 
ATOM     17  C   UNL     1     -36.401  49.554 -17.248  0.00  0.00    +0.000 C 
ATOM     18  C   UNL     1     -30.433  44.113 -19.796  0.00  0.00    +0.000 C 
ATOM     19  C   UNL     1     -30.689  42.641 -16.209  0.00  0.00    +0.000 C 
ATOM     20  C   UNL     1     -32.311  42.714 -18.864  0.00  0.00    +0.000 C 
ATOM     21  C   UNL     1     -29.426  41.778 -18.262  0.00  0.00    +0.000 C 
ATOM     22  C   UNL     1     -29.694  42.969 -20.497  0.00  0.00    +0.000 C 
ATOM     23  C   UNL     1     -28.748  42.214 -19.562  0.00  0.00    +0.000 C 
ATOM     24  C   UNL     1     -37.799  50.214 -17.358  0.00  0.00    +0.000 C 
ATOM     25  C   UNL     1     -36.264  49.503 -19.698  0.00  0.00    +0.000 C 
ATOM     26  C   UNL     1     -36.559  49.492 -14.685  0.00  0.00    +0.000 C 
ATOM     27  C   UNL     1     -37.664  50.099 -19.877  0.00  0.00    +0.000 C 
ATOM     28  C   UNL     1     -38.001  50.968 -18.667  0.00  0.00    +0.000 C 
ATOM     29  C   UNL     1     -38.718  49.015 -20.119  0.00  0.00    +0.000 C 
ENDROOT
BRANCH  14  30
ATOM     30  O   UNL     1     -37.292  47.638 -16.017  0.00  0.00    +0.000 OA
ATOM     31  H   UNL     1     -38.041  47.980 -15.488  0.00  0.00    +0.000 HD
ENDBRANCH  14  30
BRANCH  23  32
ATOM     32  O   UNL     1     -28.250  41.074 -20.253  0.00  0.00    +0.000 OA
ATOM     33  H   UNL     1     -27.750  41.389 -21.025  0.00  0.00    +0.000 HD
ENDBRANCH  23  32
TORSDOF 2
ENDMDL
MODEL 9
REMARK VINA RESULT:      -6.9      5.091     10.855
REMARK  Name = 
REMARK  5 active torsions:
REMARK  status: ('A' for Active; 'I' for Inactive)
REMARK    1  A    between atoms: O_1  and  C_16
REMARK    2  A    between atoms: O_3  and  C_25
REMARK    3  A    between atoms: C_11  and  C_22
REMARK    4  A    between atoms: C_16  and  C_28
REMARK    5  A    between atoms: C_29  and  C_31
REMARK                            x       y       z     vdW  Elec       q    Type
REMARK                         _______ _______ _______ _____ _____    ______ ____
ROOT
ATOM      1  O   UNL     1     -35.537  49.515 -23.352  0.00  0.00    +0.000 OA
ATOM      2  N   UNL     1     -35.403  46.659 -14.297  0.00  0.00    +0.000 NA
ATOM      3  C   UNL     1     -34.616  48.550 -17.558  0.00  0.00    +0.000 C 
ATOM      4  C   UNL     1     -33.946  48.191 -18.911  0.00  0.00    +0.000 C 
ATOM      5  C   UNL     1     -35.642  49.853 -19.287  0.00  0.00    +0.000 C 
ATOM      6  C   UNL     1     -34.936  48.681 -19.980  0.00  0.00    +0.000 C 
ATOM      7  C   UNL     1     -34.768  47.346 -16.608  0.00  0.00    +0.000 C 
ATOM      8  C   UNL     1     -35.942  49.251 -17.918  0.00  0.00    +0.000 C 
ATOM      9  C   UNL     1     -36.803  50.433 -20.139  0.00  0.00    +0.000 C 
ATOM     10  C   UNL     1     -33.404  46.635 -16.465  0.00  0.00    +0.000 C 
ATOM     11  C   UNL     1     -33.627  46.706 -19.049  0.00  0.00    +0.000 C 
ATOM     12  C   UNL     1     -36.160  50.916 -21.474  0.00  0.00    +0.000 C 
ATOM     13  C   UNL     1     -32.876  46.152 -17.840  0.00  0.00    +0.000 C 
ATOM     14  C   UNL     1     -33.469  45.505 -15.396  0.00  0.00    +0.000 C 
ATOM     15  C   UNL     1     -34.333  49.091 -21.316  0.00  0.00    +0.000 C 
ATOM     16  C   UNL     1     -35.301  47.787 -15.239  0.00  0.00    +0.000 C 
ATOM     17  C   UNL     1     -34.065  46.054 -14.046  0.00  0.00    +0.000 C 
ATOM     18  C   UNL     1     -37.420  51.666 -19.430  0.00  0.00    +0.000 C 
ATOM     19  C   UNL     1     -35.393  49.783 -22.160  0.00  0.00    +0.000 C 
ATOM     20  C   UNL     1     -37.918  49.387 -20.385  0.00  0.00    +0.000 C 
ATOM     21  C   UNL     1     -37.164  51.618 -22.388  0.00  0.00    +0.000 C 
ATOM     22  C   UNL     1     -38.395  52.444 -20.318  0.00  0.00    +0.000 C 
ATOM     23  C   UNL     1     -37.795  52.815 -21.674  0.00  0.00    +0.000 C 
ATOM     24  C   UNL     1     -34.174  44.930 -12.985  0.00  0.00    +0.000 C 
ATOM     25  C   UNL     1     -36.022  47.149 -13.049  0.00  0.00    +0.000 C 
ATOM     26  C   UNL     1     -32.083  44.879 -15.181  0.00  0.00    +0.000 C 
ATOM     27  C   UNL     1     -36.222  46.042 -12.009  0.00  0.00    +0.000 C 
ATOM     28  C   UNL     1     -34.878  45.382 -11.710  0.00  0.00    +0.000 C 
ATOM     29  C   UNL     1     -37.276  45.024 -12.455  0.00  0.00    +0.000 C 
ENDROOT
BRANCH  14  30
ATOM     30  O   UNL     1     -34.337  44.472 -15.892  0.00  0.00    +0.000 OA
ATOM     31  H   UNL     1     -34.916  44.917 -16.543  0.00  0.00    +0.000 HD
ENDBRANCH  14  30
BRANCH  23  32
ATOM     32  O   UNL     1     -38.824  53.373 -22.483  0.00  0.00    +0.000 OA
ATOM     33  H   UNL     1     -39.021  52.738 -23.193  0.00  0.00    +0.000 HD
ENDBRANCH  23  32
TORSDOF 2
ENDMDL
