MODEL 1
REMARK VINA RESULT:      -5.8      0.000      0.000
REMARK  Name = PhIP.pdbqt.pdb
REMARK  2 active torsions:
REMARK  status: ('A' for Active; 'I' for Inactive)
REMARK    1  A    between atoms: N_4  and  C_9
REMARK    2  A    between atoms: C_7  and  C_10
REMARK                            x       y       z     vdW  Elec       q    Type
REMARK                         _______ _______ _______ _____ _____    ______ ____
ROOT
ATOM      1  N   UNL     1     -34.384  44.037  -5.305  0.00  0.00    +0.000 N 
ATOM      2  N   UNL     1     -32.248  44.926  -5.873  0.00  0.00    +0.000 NA
ATOM      3  N   UNL     1     -33.030  46.552  -7.495  0.00  0.00    +0.000 NA
ATOM      4  C   UNL     1     -34.601  45.036  -6.204  0.00  0.00    +0.000 C 
ATOM      5  C   UNL     1     -33.192  45.554  -6.526  0.00  0.00    +0.000 C 
ATOM      6  C   UNL     1     -35.443  46.389  -8.046  0.00  0.00    +0.000 C 
ATOM      7  C   UNL     1     -35.557  45.431  -6.990  0.00  0.00    +0.000 C 
ATOM      8  C   UNL     1     -32.995  43.996  -5.168  0.00  0.00    +0.000 C 
ATOM      9  C   UNL     1     -35.210  42.843  -5.250  0.00  0.00    +0.000 C 
ATOM     10  C   UNL     1     -34.056  46.762  -8.038  0.00  0.00    +0.000 C 
ENDROOT
BRANCH   6  11
ATOM     11  C   UNL     1     -36.501  46.923  -8.881  0.00  0.00    +0.000 A 
ATOM     12  C   UNL     1     -37.408  47.855  -8.372  0.00  0.00    +0.000 A 
ATOM     13  C   UNL     1     -36.631  46.518 -10.211  0.00  0.00    +0.000 A 
ATOM     14  C   UNL     1     -38.426  48.371  -9.173  0.00  0.00    +0.000 A 
ATOM     15  C   UNL     1     -37.648  47.030 -11.017  0.00  0.00    +0.000 A 
ATOM     16  C   UNL     1     -38.545  47.957 -10.495  0.00  0.00    +0.000 A 
ENDBRANCH   6  11
BRANCH   8  17
ATOM     17  N   UNL     1     -32.281  43.025  -4.445  0.00  0.00    +0.000 NA
ATOM     18  H   UNL     1     -31.550  42.574  -4.985  0.00  0.00    +0.000 HD
ATOM     19  H   UNL     1     -31.979  43.353  -3.536  0.00  0.00    +0.000 HD
ENDBRANCH   8  17
TORSDOF 2
ENDMDL
MODEL 2
REMARK VINA RESULT:      -5.3     27.000     28.651
REMARK  Name = PhIP.pdbqt.pdb
REMARK  2 active torsions:
REMARK  status: ('A' for Active; 'I' for Inactive)
REMARK    1  A    between atoms: N_4  and  C_9
REMARK    2  A    between atoms: C_7  and  C_10
REMARK                            x       y       z     vdW  Elec       q    Type
REMARK                         _______ _______ _______ _____ _____    ______ ____
ROOT
ATOM      1  N   UNL     1     -18.361  57.384 -28.544  0.00  0.00    +0.000 N 
ATOM      2  N   UNL     1     -18.646  55.435 -29.885  0.00  0.00    +0.000 NA
ATOM      3  N   UNL     1     -17.933  53.825 -28.216  0.00  0.00    +0.000 NA
ATOM      4  C   UNL     1     -18.047  56.316 -27.758  0.00  0.00    +0.000 C 
ATOM      5  C   UNL     1     -18.247  55.107 -28.683  0.00  0.00    +0.000 C 
ATOM      6  C   UNL     1     -17.001  54.822 -26.145  0.00  0.00    +0.000 C 
ATOM      7  C   UNL     1     -17.417  56.096 -26.644  0.00  0.00    +0.000 C 
ATOM      8  C   UNL     1     -18.676  56.817 -29.781  0.00  0.00    +0.000 C 
ATOM      9  C   UNL     1     -17.692  58.667 -28.422  0.00  0.00    +0.000 C 
ATOM     10  C   UNL     1     -17.409  53.893 -27.162  0.00  0.00    +0.000 C 
ENDROOT
BRANCH   6  11
ATOM     11  C   UNL     1     -16.382  54.525 -24.867  0.00  0.00    +0.000 A 
ATOM     12  C   UNL     1     -16.374  55.474 -23.843  0.00  0.00    +0.000 A 
ATOM     13  C   UNL     1     -15.784  53.284 -24.638  0.00  0.00    +0.000 A 
ATOM     14  C   UNL     1     -15.780  55.191 -22.614  0.00  0.00    +0.000 A 
ATOM     15  C   UNL     1     -15.188  52.996 -23.411  0.00  0.00    +0.000 A 
ATOM     16  C   UNL     1     -15.187  53.951 -22.399  0.00  0.00    +0.000 A 
ENDBRANCH   6  11
BRANCH   8  17
ATOM     17  N   UNL     1     -18.930  57.537 -30.961  0.00  0.00    +0.000 NA
ATOM     18  H   UNL     1     -19.820  57.309 -31.391  0.00  0.00    +0.000 HD
ATOM     19  H   UNL     1     -18.764  58.530 -30.859  0.00  0.00    +0.000 HD
ENDBRANCH   8  17
TORSDOF 2
ENDMDL
MODEL 3
REMARK VINA RESULT:      -5.3     10.530     13.520
REMARK  Name = PhIP.pdbqt.pdb
REMARK  2 active torsions:
REMARK  status: ('A' for Active; 'I' for Inactive)
REMARK    1  A    between atoms: N_4  and  C_9
REMARK    2  A    between atoms: C_7  and  C_10
REMARK                            x       y       z     vdW  Elec       q    Type
REMARK                         _______ _______ _______ _____ _____    ______ ____
ROOT
ATOM      1  N   UNL     1     -34.743  49.019 -22.085  0.00  0.00    +0.000 N 
ATOM      2  N   UNL     1     -35.586  51.065 -21.204  0.00  0.00    +0.000 NA
ATOM      3  N   UNL     1     -35.062  50.619 -18.876  0.00  0.00    +0.000 NA
ATOM      4  C   UNL     1     -34.500  48.999 -20.744  0.00  0.00    +0.000 C 
ATOM      5  C   UNL     1     -35.071  50.335 -20.248  0.00  0.00    +0.000 C 
ATOM      6  C   UNL     1     -34.248  48.321 -18.419  0.00  0.00    +0.000 C 
ATOM      7  C   UNL     1     -34.205  48.120 -19.834  0.00  0.00    +0.000 C 
ATOM      8  C   UNL     1     -35.401  50.232 -22.295  0.00  0.00    +0.000 C 
ATOM      9  C   UNL     1     -35.058  47.818 -22.839  0.00  0.00    +0.000 C 
ATOM     10  C   UNL     1     -34.713  49.672 -18.267  0.00  0.00    +0.000 C 
ENDROOT
BRANCH   6  11
ATOM     11  C   UNL     1     -33.839  47.401 -17.376  0.00  0.00    +0.000 A 
ATOM     12  C   UNL     1     -33.043  46.293 -17.677  0.00  0.00    +0.000 A 
ATOM     13  C   UNL     1     -34.231  47.606 -16.052  0.00  0.00    +0.000 A 
ATOM     14  C   UNL     1     -32.648  45.407 -16.676  0.00  0.00    +0.000 A 
ATOM     15  C   UNL     1     -33.840  46.722 -15.047  0.00  0.00    +0.000 A 
ATOM     16  C   UNL     1     -33.047  45.622 -15.361  0.00  0.00    +0.000 A 
ENDBRANCH   6  11
BRANCH   8  17
ATOM     17  N   UNL     1     -35.980  50.639 -23.510  0.00  0.00    +0.000 NA
ATOM     18  H   UNL     1     -35.300  50.838 -24.236  0.00  0.00    +0.000 HD
ATOM     19  H   UNL     1     -36.736  50.036 -23.806  0.00  0.00    +0.000 HD
ENDBRANCH   8  17
TORSDOF 2
ENDMDL
MODEL 4
REMARK VINA RESULT:      -5.1      9.399     11.746
REMARK  Name = PhIP.pdbqt.pdb
REMARK  2 active torsions:
REMARK  status: ('A' for Active; 'I' for Inactive)
REMARK    1  A    between atoms: N_4  and  C_9
REMARK    2  A    between atoms: C_7  and  C_10
REMARK                            x       y       z     vdW  Elec       q    Type
REMARK                         _______ _______ _______ _____ _____    ______ ____
ROOT
ATOM      1  N   UNL     1     -33.902  46.632 -16.564  0.00  0.00    +0.000 N 
ATOM      2  N   UNL     1     -34.924  48.269 -15.168  0.00  0.00    +0.000 NA
ATOM      3  N   UNL     1     -35.810  49.660 -16.949  0.00  0.00    +0.000 NA
ATOM      4  C   UNL     1     -34.522  47.521 -17.390  0.00  0.00    +0.000 C 
ATOM      5  C   UNL     1     -35.148  48.541 -16.428  0.00  0.00    +0.000 C 
ATOM      6  C   UNL     1     -35.073  49.019 -19.229  0.00  0.00    +0.000 C 
ATOM      7  C   UNL     1     -34.484  47.854 -18.645  0.00  0.00    +0.000 C 
ATOM      8  C   UNL     1     -34.144  47.130 -15.282  0.00  0.00    +0.000 C 
ATOM      9  C   UNL     1     -32.661  45.968 -16.923  0.00  0.00    +0.000 C 
ATOM     10  C   UNL     1     -35.662  49.714 -18.117  0.00  0.00    +0.000 C 
ENDROOT
BRANCH   6  11
ATOM     11  C   UNL     1     -35.133  49.378 -20.632  0.00  0.00    +0.000 A 
ATOM     12  C   UNL     1     -34.419  48.648 -21.585  0.00  0.00    +0.000 A 
ATOM     13  C   UNL     1     -35.907  50.460 -21.058  0.00  0.00    +0.000 A 
ATOM     14  C   UNL     1     -34.476  48.991 -22.935  0.00  0.00    +0.000 A 
ATOM     15  C   UNL     1     -35.967  50.808 -22.406  0.00  0.00    +0.000 A 
ATOM     16  C   UNL     1     -35.250  50.071 -23.345  0.00  0.00    +0.000 A 
ENDBRANCH   6  11
BRANCH   8  17
ATOM     17  N   UNL     1     -33.582  46.624 -14.098  0.00  0.00    +0.000 NA
ATOM     18  H   UNL     1     -32.640  46.266 -14.217  0.00  0.00    +0.000 HD
ATOM     19  H   UNL     1     -33.688  47.254 -13.312  0.00  0.00    +0.000 HD
ENDBRANCH   8  17
TORSDOF 2
ENDMDL
MODEL 5
REMARK VINA RESULT:      -5.0      8.821     11.562
REMARK  Name = PhIP.pdbqt.pdb
REMARK  2 active torsions:
REMARK  status: ('A' for Active; 'I' for Inactive)
REMARK    1  A    between atoms: N_4  and  C_9
REMARK    2  A    between atoms: C_7  and  C_10
REMARK                            x       y       z     vdW  Elec       q    Type
REMARK                         _______ _______ _______ _____ _____    ______ ____
ROOT
ATOM      1  N   UNL     1     -34.865  49.060 -18.259  0.00  0.00    +0.000 N 
ATOM      2  N   UNL     1     -35.683  49.140 -16.023  0.00  0.00    +0.000 NA
ATOM      3  N   UNL     1     -34.203  47.447 -15.110  0.00  0.00    +0.000 NA
ATOM      4  C   UNL     1     -34.114  48.185 -17.534  0.00  0.00    +0.000 C 
ATOM      5  C   UNL     1     -34.697  48.285 -16.118  0.00  0.00    +0.000 C 
ATOM      6  C   UNL     1     -32.831  46.252 -16.796  0.00  0.00    +0.000 C 
ATOM      7  C   UNL     1     -33.313  47.188 -17.763  0.00  0.00    +0.000 C 
ATOM      8  C   UNL     1     -35.783  49.569 -17.336  0.00  0.00    +0.000 C 
ATOM      9  C   UNL     1     -35.205  48.830 -19.652  0.00  0.00    +0.000 C 
ATOM     10  C   UNL     1     -33.458  46.655 -15.568  0.00  0.00    +0.000 C 
ENDROOT
BRANCH   6  11
ATOM     11  C   UNL     1     -31.866  45.186 -16.991  0.00  0.00    +0.000 A 
ATOM     12  C   UNL     1     -31.600  44.693 -18.270  0.00  0.00    +0.000 A 
ATOM     13  C   UNL     1     -31.185  44.635 -15.904  0.00  0.00    +0.000 A 
ATOM     14  C   UNL     1     -30.674  43.670 -18.461  0.00  0.00    +0.000 A 
ATOM     15  C   UNL     1     -30.257  43.611 -16.089  0.00  0.00    +0.000 A 
ATOM     16  C   UNL     1     -30.002  43.129 -17.370  0.00  0.00    +0.000 A 
ENDBRANCH   6  11
BRANCH   8  17
ATOM     17  N   UNL     1     -36.863  50.411 -17.649  0.00  0.00    +0.000 NA
ATOM     18  H   UNL     1     -37.769  49.980 -17.498  0.00  0.00    +0.000 HD
ATOM     19  H   UNL     1     -36.773  51.334 -17.244  0.00  0.00    +0.000 HD
ENDBRANCH   8  17
TORSDOF 2
ENDMDL
MODEL 6
REMARK VINA RESULT:      -5.0     22.529     23.027
REMARK  Name = PhIP.pdbqt.pdb
REMARK  2 active torsions:
REMARK  status: ('A' for Active; 'I' for Inactive)
REMARK    1  A    between atoms: N_4  and  C_9
REMARK    2  A    between atoms: C_7  and  C_10
REMARK                            x       y       z     vdW  Elec       q    Type
REMARK                         _______ _______ _______ _____ _____    ______ ____
ROOT
ATOM      1  N   UNL     1     -16.012  44.418   5.970  0.00  0.00    +0.000 N 
ATOM      2  N   UNL     1     -15.541  44.368   3.636  0.00  0.00    +0.000 NA
ATOM      3  N   UNL     1     -15.653  46.763   3.264  0.00  0.00    +0.000 NA
ATOM      4  C   UNL     1     -15.980  45.712   5.548  0.00  0.00    +0.000 C 
ATOM      5  C   UNL     1     -15.680  45.602   4.046  0.00  0.00    +0.000 C 
ATOM      6  C   UNL     1     -16.446  48.079   5.211  0.00  0.00    +0.000 C 
ATOM      7  C   UNL     1     -16.377  46.873   5.977  0.00  0.00    +0.000 C 
ATOM      8  C   UNL     1     -15.777  43.674   4.811  0.00  0.00    +0.000 C 
ATOM      9  C   UNL     1     -16.901  43.961   7.024  0.00  0.00    +0.000 C 
ATOM     10  C   UNL     1     -16.015  47.690   3.897  0.00  0.00    +0.000 C 
ENDROOT
BRANCH   6  11
ATOM     11  C   UNL     1     -16.793  49.409   5.674  0.00  0.00    +0.000 A 
ATOM     12  C   UNL     1     -16.941  49.671   7.038  0.00  0.00    +0.000 A 
ATOM     13  C   UNL     1     -16.984  50.451   4.765  0.00  0.00    +0.000 A 
ATOM     14  C   UNL     1     -17.274  50.949   7.486  0.00  0.00    +0.000 A 
ATOM     15  C   UNL     1     -17.318  51.730   5.207  0.00  0.00    +0.000 A 
ATOM     16  C   UNL     1     -17.463  51.978   6.569  0.00  0.00    +0.000 A 
ENDBRANCH   6  11
BRANCH   8  17
ATOM     17  N   UNL     1     -15.854  42.274   4.718  0.00  0.00    +0.000 NA
ATOM     18  H   UNL     1     -15.047  41.797   5.105  0.00  0.00    +0.000 HD
ATOM     19  H   UNL     1     -16.742  41.907   5.037  0.00  0.00    +0.000 HD
ENDBRANCH   8  17
TORSDOF 2
ENDMDL
MODEL 7
REMARK VINA RESULT:      -5.0     26.068     26.895
REMARK  Name = PhIP.pdbqt.pdb
REMARK  2 active torsions:
REMARK  status: ('A' for Active; 'I' for Inactive)
REMARK    1  A    between atoms: N_4  and  C_9
REMARK    2  A    between atoms: C_7  and  C_10
REMARK                            x       y       z     vdW  Elec       q    Type
REMARK                         _______ _______ _______ _____ _____    ______ ____
ROOT
ATOM      1  N   UNL     1     -15.489  56.266 -21.866  0.00  0.00    +0.000 N 
ATOM      2  N   UNL     1     -14.688  54.332 -20.729  0.00  0.00    +0.000 NA
ATOM      3  N   UNL     1     -14.878  52.795 -22.597  0.00  0.00    +0.000 NA
ATOM      4  C   UNL     1     -15.469  55.254 -22.778  0.00  0.00    +0.000 C 
ATOM      5  C   UNL     1     -14.952  54.049 -21.979  0.00  0.00    +0.000 C 
ATOM      6  C   UNL     1     -16.013  53.728 -24.596  0.00  0.00    +0.000 C 
ATOM      7  C   UNL     1     -15.987  54.999 -23.941  0.00  0.00    +0.000 C 
ATOM      8  C   UNL     1     -15.050  55.668 -20.682  0.00  0.00    +0.000 C 
ATOM      9  C   UNL     1     -16.493  57.315 -21.885  0.00  0.00    +0.000 C 
ATOM     10  C   UNL     1     -15.378  52.837 -23.665  0.00  0.00    +0.000 C 
ENDROOT
BRANCH   6  11
ATOM     11  C   UNL     1     -16.495  53.422 -25.929  0.00  0.00    +0.000 A 
ATOM     12  C   UNL     1     -17.207  54.373 -26.664  0.00  0.00    +0.000 A 
ATOM     13  C   UNL     1     -16.256  52.172 -26.503  0.00  0.00    +0.000 A 
ATOM     14  C   UNL     1     -17.672  54.082 -27.945  0.00  0.00    +0.000 A 
ATOM     15  C   UNL     1     -16.719  51.875 -27.784  0.00  0.00    +0.000 A 
ATOM     16  C   UNL     1     -17.428  52.832 -28.505  0.00  0.00    +0.000 A 
ENDBRANCH   6  11
BRANCH   8  17
ATOM     17  N   UNL     1     -15.036  56.286 -19.420  0.00  0.00    +0.000 NA
ATOM     18  H   UNL     1     -14.108  56.363 -19.017  0.00  0.00    +0.000 HD
ATOM     19  H   UNL     1     -15.568  57.147 -19.398  0.00  0.00    +0.000 HD
ENDBRANCH   8  17
TORSDOF 2
ENDMDL
MODEL 8
REMARK VINA RESULT:      -5.0      2.187      2.761
REMARK  Name = PhIP.pdbqt.pdb
REMARK  2 active torsions:
REMARK  status: ('A' for Active; 'I' for Inactive)
REMARK    1  A    between atoms: N_4  and  C_9
REMARK    2  A    between atoms: C_7  and  C_10
REMARK                            x       y       z     vdW  Elec       q    Type
REMARK                         _______ _______ _______ _____ _____    ______ ____
ROOT
ATOM      1  N   UNL     1     -34.023  42.989  -5.379  0.00  0.00    +0.000 N 
ATOM      2  N   UNL     1     -32.624  44.751  -4.593  0.00  0.00    +0.000 NA
ATOM      3  N   UNL     1     -32.685  46.095  -6.612  0.00  0.00    +0.000 NA
ATOM      4  C   UNL     1     -33.956  43.913  -6.378  0.00  0.00    +0.000 C 
ATOM      5  C   UNL     1     -33.041  45.006  -5.807  0.00  0.00    +0.000 C 
ATOM      6  C   UNL     1     -33.803  45.014  -8.545  0.00  0.00    +0.000 C 
ATOM      7  C   UNL     1     -34.202  43.970  -7.652  0.00  0.00    +0.000 C 
ATOM      8  C   UNL     1     -33.208  43.513  -4.373  0.00  0.00    +0.000 C 
ATOM      9  C   UNL     1     -34.124  41.564  -5.639  0.00  0.00    +0.000 C 
ATOM     10  C   UNL     1     -33.064  45.926  -7.716  0.00  0.00    +0.000 C 
ENDROOT
BRANCH   6  11
ATOM     11  C   UNL     1     -34.136  45.160  -9.949  0.00  0.00    +0.000 A 
ATOM     12  C   UNL     1     -35.376  45.672 -10.336  0.00  0.00    +0.000 A 
ATOM     13  C   UNL     1     -33.222  44.794 -10.939  0.00  0.00    +0.000 A 
ATOM     14  C   UNL     1     -35.699  45.814 -11.684  0.00  0.00    +0.000 A 
ATOM     15  C   UNL     1     -33.539  44.934 -12.289  0.00  0.00    +0.000 A 
ATOM     16  C   UNL     1     -34.780  45.445 -12.661  0.00  0.00    +0.000 A 
ENDBRANCH   6  11
BRANCH   8  17
ATOM     17  N   UNL     1     -32.851  42.844  -3.190  0.00  0.00    +0.000 NA
ATOM     18  H   UNL     1     -33.557  42.193  -2.864  0.00  0.00    +0.000 HD
ATOM     19  H   UNL     1     -31.916  42.457  -3.224  0.00  0.00    +0.000 HD
ENDBRANCH   8  17
TORSDOF 2
ENDMDL
MODEL 9
REMARK VINA RESULT:      -4.9     16.728     18.259
REMARK  Name = PhIP.pdbqt.pdb
REMARK  2 active torsions:
REMARK  status: ('A' for Active; 'I' for Inactive)
REMARK    1  A    between atoms: N_4  and  C_9
REMARK    2  A    between atoms: C_7  and  C_10
REMARK                            x       y       z     vdW  Elec       q    Type
REMARK                         _______ _______ _______ _____ _____    ______ ____
ROOT
ATOM      1  N   UNL     1     -31.177  64.916  -5.148  0.00  0.00    +0.000 N 
ATOM      2  N   UNL     1     -31.808  62.952  -3.958  0.00  0.00    +0.000 NA
ATOM      3  N   UNL     1     -33.094  61.929  -5.744  0.00  0.00    +0.000 NA
ATOM      4  C   UNL     1     -31.896  64.148  -6.012  0.00  0.00    +0.000 C 
ATOM      5  C   UNL     1     -32.270  62.912  -5.181  0.00  0.00    +0.000 C 
ATOM      6  C   UNL     1     -33.433  63.370  -7.734  0.00  0.00    +0.000 C 
ATOM      7  C   UNL     1     -32.522  64.299  -7.140  0.00  0.00    +0.000 C 
ATOM      8  C   UNL     1     -31.179  64.186  -3.957  0.00  0.00    +0.000 C 
ATOM      9  C   UNL     1     -31.219  66.368  -5.174  0.00  0.00    +0.000 C 
ATOM     10  C   UNL     1     -33.502  62.289  -6.790  0.00  0.00    +0.000 C 
ENDROOT
BRANCH   6  11
ATOM     11  C   UNL     1     -34.077  63.459  -9.030  0.00  0.00    +0.000 A 
ATOM     12  C   UNL     1     -34.986  62.481  -9.441  0.00  0.00    +0.000 A 
ATOM     13  C   UNL     1     -33.802  64.524  -9.890  0.00  0.00    +0.000 A 
ATOM     14  C   UNL     1     -35.608  62.565 -10.686  0.00  0.00    +0.000 A 
ATOM     15  C   UNL     1     -34.420  64.612 -11.136  0.00  0.00    +0.000 A 
ATOM     16  C   UNL     1     -35.324  63.631 -11.533  0.00  0.00    +0.000 A 
ENDBRANCH   6  11
BRANCH   8  17
ATOM     17  N   UNL     1     -30.676  64.642  -2.727  0.00  0.00    +0.000 NA
ATOM     18  H   UNL     1     -29.867  64.124  -2.403  0.00  0.00    +0.000 HD
ATOM     19  H   UNL     1     -30.561  65.647  -2.698  0.00  0.00    +0.000 HD
ENDBRANCH   8  17
TORSDOF 2
ENDMDL
