MODEL 1
REMARK VINA RESULT:      -6.1      0.000      0.000
REMARK  Name = Piroxicam.pdbqt.pdb
REMARK  3 active torsions:
REMARK  status: ('A' for Active; 'I' for Inactive)
REMARK    1  A    between atoms: C_7  and  C_14
REMARK    2  A    between atoms: C_8  and  O_24
REMARK    3  A    between atoms: N_16  and  C_18
REMARK                            x       y       z     vdW  Elec       q    Type
REMARK                         _______ _______ _______ _____ _____    ______ ____
ROOT
ATOM      1  S   UNL     1     -29.355  41.249 -16.592  0.00  0.00    +0.000 S 
ATOM      2  O   UNL     1     -28.417  41.906 -15.700  0.00  0.00    +0.000 OA
ATOM      3  O   UNL     1     -29.727  39.863 -16.384  0.00  0.00    +0.000 OA
ATOM      4  N   UNL     1     -30.761  42.234 -16.730  0.00  0.00    +0.000 N 
ATOM      5  C   UNL     1     -28.687  41.395 -18.204  0.00  0.00    +0.000 A 
ATOM      6  C   UNL     1     -28.876  42.603 -18.872  0.00  0.00    +0.000 A 
ATOM      7  C   UNL     1     -30.490  43.551 -17.234  0.00  0.00    +0.000 C 
ATOM      8  C   UNL     1     -29.599  43.722 -18.238  0.00  0.00    +0.000 C 
ATOM      9  C   UNL     1     -28.026  40.314 -18.777  0.00  0.00    +0.000 A 
ATOM     10  C   UNL     1     -31.975  41.650 -17.326  0.00  0.00    +0.000 C 
ATOM     11  C   UNL     1     -28.336  42.723 -20.153  0.00  0.00    +0.000 A 
ATOM     12  C   UNL     1     -27.508  40.453 -20.059  0.00  0.00    +0.000 A 
ATOM     13  C   UNL     1     -27.656  41.656 -20.745  0.00  0.00    +0.000 A 
ENDROOT
BRANCH   7  14
ATOM     14  C   UNL     1     -31.200  44.717 -16.612  0.00  0.00    +0.000 C 
ATOM     15  O   UNL     1     -30.900  45.066 -15.472  0.00  0.00    +0.000 OA
ATOM     16  N   UNL     1     -32.156  45.302 -17.402  0.00  0.00    +0.000 N 
ATOM     17  H   UNL     1     -32.295  44.993 -18.357  0.00  0.00    +0.000 HD
BRANCH  16  18
ATOM     18  C   UNL     1     -32.974  46.378 -17.055  0.00  0.00    +0.000 A 
ATOM     19  N   UNL     1     -33.038  47.350 -17.987  0.00  0.00    +0.000 NA
ATOM     20  C   UNL     1     -33.821  48.416 -17.704  0.00  0.00    +0.000 A 
ATOM     21  C   UNL     1     -34.548  48.562 -16.536  0.00  0.00    +0.000 A 
ATOM     22  C   UNL     1     -34.462  47.543 -15.598  0.00  0.00    +0.000 A 
ATOM     23  C   UNL     1     -33.667  46.432 -15.854  0.00  0.00    +0.000 A 
ENDBRANCH  16  18
ENDBRANCH   7  14
BRANCH   8  24
ATOM     24  O   UNL     1     -29.284  44.956 -18.783  0.00  0.00    +0.000 OA
ATOM     25  H   UNL     1     -29.057  45.587 -18.063  0.00  0.00    +0.000 HD
ENDBRANCH   8  24
TORSDOF 3
ENDMDL
MODEL 2
REMARK VINA RESULT:      -6.0     19.574     20.913
REMARK  Name = Piroxicam.pdbqt.pdb
REMARK  3 active torsions:
REMARK  status: ('A' for Active; 'I' for Inactive)
REMARK    1  A    between atoms: C_7  and  C_14
REMARK    2  A    between atoms: C_8  and  O_24
REMARK    3  A    between atoms: N_16  and  C_18
REMARK                            x       y       z     vdW  Elec       q    Type
REMARK                         _______ _______ _______ _____ _____    ______ ____
ROOT
ATOM      1  S   UNL     1     -18.226  56.911 -29.563  0.00  0.00    +0.000 S 
ATOM      2  O   UNL     1     -19.268  57.435 -28.700  0.00  0.00    +0.000 OA
ATOM      3  O   UNL     1     -17.677  57.719 -30.635  0.00  0.00    +0.000 OA
ATOM      4  N   UNL     1     -16.962  56.283 -28.576  0.00  0.00    +0.000 N 
ATOM      5  C   UNL     1     -18.862  55.439 -30.266  0.00  0.00    +0.000 A 
ATOM      6  C   UNL     1     -18.819  54.284 -29.488  0.00  0.00    +0.000 A 
ATOM      7  C   UNL     1     -17.394  55.241 -27.688  0.00  0.00    +0.000 C 
ATOM      8  C   UNL     1     -18.271  54.304 -28.118  0.00  0.00    +0.000 C 
ATOM      9  C   UNL     1     -19.355  55.452 -31.566  0.00  0.00    +0.000 A 
ATOM     10  C   UNL     1     -15.664  55.977 -29.202  0.00  0.00    +0.000 C 
ATOM     11  C   UNL     1     -19.335  53.112 -30.044  0.00  0.00    +0.000 A 
ATOM     12  C   UNL     1     -19.851  54.270 -32.103  0.00  0.00    +0.000 A 
ATOM     13  C   UNL     1     -19.847  53.103 -31.342  0.00  0.00    +0.000 A 
ENDROOT
BRANCH   7  14
ATOM     14  C   UNL     1     -16.866  55.230 -26.284  0.00  0.00    +0.000 C 
ATOM     15  O   UNL     1     -16.584  54.156 -25.755  0.00  0.00    +0.000 OA
ATOM     16  N   UNL     1     -16.748  56.464 -25.698  0.00  0.00    +0.000 N 
ATOM     17  H   UNL     1     -16.940  57.306 -26.229  0.00  0.00    +0.000 HD
BRANCH  16  18
ATOM     18  C   UNL     1     -16.311  56.728 -24.399  0.00  0.00    +0.000 A 
ATOM     19  N   UNL     1     -15.006  57.051 -24.308  0.00  0.00    +0.000 NA
ATOM     20  C   UNL     1     -14.530  57.321 -23.070  0.00  0.00    +0.000 A 
ATOM     21  C   UNL     1     -15.292  57.287 -21.917  0.00  0.00    +0.000 A 
ATOM     22  C   UNL     1     -16.633  56.954 -22.046  0.00  0.00    +0.000 A 
ATOM     23  C   UNL     1     -17.158  56.669 -23.301  0.00  0.00    +0.000 A 
ENDBRANCH  16  18
ENDBRANCH   7  14
BRANCH   8  24
ATOM     24  O   UNL     1     -18.735  53.266 -27.328  0.00  0.00    +0.000 OA
ATOM     25  H   UNL     1     -18.028  52.983 -26.704  0.00  0.00    +0.000 HD
ENDBRANCH   8  24
TORSDOF 3
ENDMDL
MODEL 3
REMARK VINA RESULT:      -5.9     19.291     21.785
REMARK  Name = Piroxicam.pdbqt.pdb
REMARK  3 active torsions:
REMARK  status: ('A' for Active; 'I' for Inactive)
REMARK    1  A    between atoms: C_7  and  C_14
REMARK    2  A    between atoms: C_8  and  O_24
REMARK    3  A    between atoms: N_16  and  C_18
REMARK                            x       y       z     vdW  Elec       q    Type
REMARK                         _______ _______ _______ _____ _____    ______ ____
ROOT
ATOM      1  S   UNL     1     -30.583  67.052 -20.836  0.00  0.00    +0.000 S 
ATOM      2  O   UNL     1     -29.247  67.377 -21.300  0.00  0.00    +0.000 OA
ATOM      3  O   UNL     1     -31.566  68.095 -20.616  0.00  0.00    +0.000 OA
ATOM      4  N   UNL     1     -31.230  65.820 -21.851  0.00  0.00    +0.000 N 
ATOM      5  C   UNL     1     -30.383  66.173 -19.334  0.00  0.00    +0.000 A 
ATOM      6  C   UNL     1     -30.066  64.818 -19.419  0.00  0.00    +0.000 A 
ATOM      7  C   UNL     1     -30.443  64.621 -21.870  0.00  0.00    +0.000 C 
ATOM      8  C   UNL     1     -29.892  64.154 -20.725  0.00  0.00    +0.000 C 
ATOM      9  C   UNL     1     -30.571  66.826 -18.122  0.00  0.00    +0.000 A 
ATOM     10  C   UNL     1     -32.674  65.536 -21.782  0.00  0.00    +0.000 C 
ATOM     11  C   UNL     1     -29.897  64.119 -18.223  0.00  0.00    +0.000 A 
ATOM     12  C   UNL     1     -30.410  66.107 -16.944  0.00  0.00    +0.000 A 
ATOM     13  C   UNL     1     -30.068  64.757 -16.993  0.00  0.00    +0.000 A 
ENDROOT
BRANCH   7  14
ATOM     14  C   UNL     1     -30.236  63.918 -23.179  0.00  0.00    +0.000 C 
ATOM     15  O   UNL     1     -29.776  64.544 -24.132  0.00  0.00    +0.000 OA
ATOM     16  N   UNL     1     -30.598  62.596 -23.191  0.00  0.00    +0.000 N 
ATOM     17  H   UNL     1     -30.907  62.139 -22.341  0.00  0.00    +0.000 HD
BRANCH  16  18
ATOM     18  C   UNL     1     -30.533  61.728 -24.282  0.00  0.00    +0.000 A 
ATOM     19  N   UNL     1     -31.717  61.511 -24.890  0.00  0.00    +0.000 NA
ATOM     20  C   UNL     1     -31.712  60.680 -25.957  0.00  0.00    +0.000 A 
ATOM     21  C   UNL     1     -30.582  60.054 -26.453  0.00  0.00    +0.000 A 
ATOM     22  C   UNL     1     -29.379  60.300 -25.807  0.00  0.00    +0.000 A 
ATOM     23  C   UNL     1     -29.346  61.148 -24.706  0.00  0.00    +0.000 A 
ENDBRANCH  16  18
ENDBRANCH   7  14
BRANCH   8  24
ATOM     24  O   UNL     1     -29.123  63.004 -20.656  0.00  0.00    +0.000 OA
ATOM     25  H   UNL     1     -28.170  63.246 -20.602  0.00  0.00    +0.000 HD
ENDBRANCH   8  24
TORSDOF 3
ENDMDL
MODEL 4
REMARK VINA RESULT:      -5.9     20.063     21.714
REMARK  Name = Piroxicam.pdbqt.pdb
REMARK  3 active torsions:
REMARK  status: ('A' for Active; 'I' for Inactive)
REMARK    1  A    between atoms: C_7  and  C_14
REMARK    2  A    between atoms: C_8  and  O_24
REMARK    3  A    between atoms: N_16  and  C_18
REMARK                            x       y       z     vdW  Elec       q    Type
REMARK                         _______ _______ _______ _____ _____    ______ ____
ROOT
ATOM      1  S   UNL     1     -23.827  34.717   1.141  0.00  0.00    +0.000 S 
ATOM      2  O   UNL     1     -24.099  34.863  -0.277  0.00  0.00    +0.000 OA
ATOM      3  O   UNL     1     -23.523  33.417   1.706  0.00  0.00    +0.000 OA
ATOM      4  N   UNL     1     -22.623  35.864   1.588  0.00  0.00    +0.000 N 
ATOM      5  C   UNL     1     -25.225  35.358   1.979  0.00  0.00    +0.000 A 
ATOM      6  C   UNL     1     -25.310  36.741   2.123  0.00  0.00    +0.000 A 
ATOM      7  C   UNL     1     -23.003  37.224   1.328  0.00  0.00    +0.000 C 
ATOM      8  C   UNL     1     -24.269  37.633   1.576  0.00  0.00    +0.000 C 
ATOM      9  C   UNL     1     -26.178  34.488   2.496  0.00  0.00    +0.000 A 
ATOM     10  C   UNL     1     -21.956  35.713   2.893  0.00  0.00    +0.000 C 
ATOM     11  C   UNL     1     -26.428  37.253   2.783  0.00  0.00    +0.000 A 
ATOM     12  C   UNL     1     -27.276  35.020   3.161  0.00  0.00    +0.000 A 
ATOM     13  C   UNL     1     -27.406  36.401   3.299  0.00  0.00    +0.000 A 
ENDROOT
BRANCH   7  14
ATOM     14  C   UNL     1     -21.976  38.161   0.766  0.00  0.00    +0.000 C 
ATOM     15  O   UNL     1     -21.585  39.106   1.449  0.00  0.00    +0.000 OA
ATOM     16  N   UNL     1     -21.558  37.869  -0.507  0.00  0.00    +0.000 N 
ATOM     17  H   UNL     1     -21.883  37.031  -0.975  0.00  0.00    +0.000 HD
BRANCH  16  18
ATOM     18  C   UNL     1     -20.638  38.593  -1.265  0.00  0.00    +0.000 A 
ATOM     19  N   UNL     1     -19.359  38.193  -1.116  0.00  0.00    +0.000 NA
ATOM     20  C   UNL     1     -18.424  38.859  -1.832  0.00  0.00    +0.000 A 
ATOM     21  C   UNL     1     -18.701  39.905  -2.694  0.00  0.00    +0.000 A 
ATOM     22  C   UNL     1     -20.027  40.290  -2.828  0.00  0.00    +0.000 A 
ATOM     23  C   UNL     1     -21.015  39.629  -2.107  0.00  0.00    +0.000 A 
ENDBRANCH  16  18
ENDBRANCH   7  14
BRANCH   8  24
ATOM     24  O   UNL     1     -24.716  38.925   1.357  0.00  0.00    +0.000 OA
ATOM     25  H   UNL     1     -24.935  39.043   0.405  0.00  0.00    +0.000 HD
ENDBRANCH   8  24
TORSDOF 3
ENDMDL
MODEL 5
REMARK VINA RESULT:      -5.9     19.620     21.615
REMARK  Name = Piroxicam.pdbqt.pdb
REMARK  3 active torsions:
REMARK  status: ('A' for Active; 'I' for Inactive)
REMARK    1  A    between atoms: C_7  and  C_14
REMARK    2  A    between atoms: C_8  and  O_24
REMARK    3  A    between atoms: N_16  and  C_18
REMARK                            x       y       z     vdW  Elec       q    Type
REMARK                         _______ _______ _______ _____ _____    ______ ____
ROOT
ATOM      1  S   UNL     1     -32.393  65.428 -22.903  0.00  0.00    +0.000 S 
ATOM      2  O   UNL     1     -31.466  66.122 -23.778  0.00  0.00    +0.000 OA
ATOM      3  O   UNL     1     -33.768  65.871 -22.780  0.00  0.00    +0.000 OA
ATOM      4  N   UNL     1     -32.335  63.745 -23.267  0.00  0.00    +0.000 N 
ATOM      5  C   UNL     1     -31.673  65.447 -21.307  0.00  0.00    +0.000 A 
ATOM      6  C   UNL     1     -30.686  64.502 -21.035  0.00  0.00    +0.000 A 
ATOM      7  C   UNL     1     -31.030  63.170 -23.107  0.00  0.00    +0.000 C 
ATOM      8  C   UNL     1     -30.254  63.531 -22.059  0.00  0.00    +0.000 C 
ATOM      9  C   UNL     1     -32.116  66.365 -20.362  0.00  0.00    +0.000 A 
ATOM     10  C   UNL     1     -33.396  62.872 -22.738  0.00  0.00    +0.000 C 
ATOM     11  C   UNL     1     -30.105  64.523 -19.766  0.00  0.00    +0.000 A 
ATOM     12  C   UNL     1     -31.532  66.358 -19.101  0.00  0.00    +0.000 A 
ATOM     13  C   UNL     1     -30.524  65.444 -18.804  0.00  0.00    +0.000 A 
ENDROOT
BRANCH   7  14
ATOM     14  C   UNL     1     -30.550  62.183 -24.130  0.00  0.00    +0.000 C 
ATOM     15  O   UNL     1     -30.999  61.039 -24.120  0.00  0.00    +0.000 OA
ATOM     16  N   UNL     1     -29.615  62.667 -25.009  0.00  0.00    +0.000 N 
ATOM     17  H   UNL     1     -29.348  63.644 -24.990  0.00  0.00    +0.000 HD
BRANCH  16  18
ATOM     18  C   UNL     1     -28.990  61.953 -26.033  0.00  0.00    +0.000 A 
ATOM     19  N   UNL     1     -29.608  62.040 -27.228  0.00  0.00    +0.000 NA
ATOM     20  C   UNL     1     -29.042  61.370 -28.257  0.00  0.00    +0.000 A 
ATOM     21  C   UNL     1     -27.887  60.616 -28.156  0.00  0.00    +0.000 A 
ATOM     22  C   UNL     1     -27.274  60.549 -26.913  0.00  0.00    +0.000 A 
ATOM     23  C   UNL     1     -27.827  61.224 -25.831  0.00  0.00    +0.000 A 
ENDBRANCH  16  18
ENDBRANCH   7  14
BRANCH   8  24
ATOM     24  O   UNL     1     -28.987  63.022 -21.829  0.00  0.00    +0.000 OA
ATOM     25  H   UNL     1     -28.933  62.669 -20.912  0.00  0.00    +0.000 HD
ENDBRANCH   8  24
TORSDOF 3
ENDMDL
MODEL 6
REMARK VINA RESULT:      -5.7      3.519      5.290
REMARK  Name = Piroxicam.pdbqt.pdb
REMARK  3 active torsions:
REMARK  status: ('A' for Active; 'I' for Inactive)
REMARK    1  A    between atoms: C_7  and  C_14
REMARK    2  A    between atoms: C_8  and  O_24
REMARK    3  A    between atoms: N_16  and  C_18
REMARK                            x       y       z     vdW  Elec       q    Type
REMARK                         _______ _______ _______ _____ _____    ______ ____
ROOT
ATOM      1  S   UNL     1     -33.958  45.164 -18.691  0.00  0.00    +0.000 S 
ATOM      2  O   UNL     1     -34.635  44.036 -18.078  0.00  0.00    +0.000 OA
ATOM      3  O   UNL     1     -34.328  45.618 -20.017  0.00  0.00    +0.000 OA
ATOM      4  N   UNL     1     -33.972  46.480 -17.579  0.00  0.00    +0.000 N 
ATOM      5  C   UNL     1     -32.254  44.764 -18.711  0.00  0.00    +0.000 A 
ATOM      6  C   UNL     1     -31.534  44.954 -17.533  0.00  0.00    +0.000 A 
ATOM      7  C   UNL     1     -33.332  46.181 -16.329  0.00  0.00    +0.000 C 
ATOM      8  C   UNL     1     -32.188  45.458 -16.310  0.00  0.00    +0.000 C 
ATOM      9  C   UNL     1     -31.667  44.307 -19.885  0.00  0.00    +0.000 A 
ATOM     10  C   UNL     1     -33.625  47.824 -18.074  0.00  0.00    +0.000 C 
ATOM     11  C   UNL     1     -30.177  44.626 -17.546  0.00  0.00    +0.000 A 
ATOM     12  C   UNL     1     -30.311  44.000 -19.878  0.00  0.00    +0.000 A 
ATOM     13  C   UNL     1     -29.568  44.153 -18.709  0.00  0.00    +0.000 A 
ENDROOT
BRANCH   7  14
ATOM     14  C   UNL     1     -33.968  46.670 -15.062  0.00  0.00    +0.000 C 
ATOM     15  O   UNL     1     -33.955  47.873 -14.807  0.00  0.00    +0.000 OA
ATOM     16  N   UNL     1     -34.520  45.692 -14.275  0.00  0.00    +0.000 N 
ATOM     17  H   UNL     1     -34.546  44.730 -14.592  0.00  0.00    +0.000 HD
BRANCH  16  18
ATOM     18  C   UNL     1     -35.144  45.875 -13.040  0.00  0.00    +0.000 A 
ATOM     19  N   UNL     1     -34.479  45.338 -11.998  0.00  0.00    +0.000 NA
ATOM     20  C   UNL     1     -35.038  45.489 -10.775  0.00  0.00    +0.000 A 
ATOM     21  C   UNL     1     -36.228  46.153 -10.538  0.00  0.00    +0.000 A 
ATOM     22  C   UNL     1     -36.886  46.696 -11.632  0.00  0.00    +0.000 A 
ATOM     23  C   UNL     1     -36.343  46.560 -12.904  0.00  0.00    +0.000 A 
ENDBRANCH  16  18
ENDBRANCH   7  14
BRANCH   8  24
ATOM     24  O   UNL     1     -31.507  45.129 -15.150  0.00  0.00    +0.000 OA
ATOM     25  H   UNL     1     -30.656  45.624 -15.114  0.00  0.00    +0.000 HD
ENDBRANCH   8  24
TORSDOF 3
ENDMDL
MODEL 7
REMARK VINA RESULT:      -5.6     19.120     19.947
REMARK  Name = Piroxicam.pdbqt.pdb
REMARK  3 active torsions:
REMARK  status: ('A' for Active; 'I' for Inactive)
REMARK    1  A    between atoms: C_7  and  C_14
REMARK    2  A    between atoms: C_8  and  O_24
REMARK    3  A    between atoms: N_16  and  C_18
REMARK                            x       y       z     vdW  Elec       q    Type
REMARK                         _______ _______ _______ _____ _____    ______ ____
ROOT
ATOM      1  S   UNL     1     -31.158  60.830 -28.496  0.00  0.00    +0.000 S 
ATOM      2  O   UNL     1     -31.735  59.507 -28.357  0.00  0.00    +0.000 OA
ATOM      3  O   UNL     1     -30.942  61.410 -29.808  0.00  0.00    +0.000 OA
ATOM      4  N   UNL     1     -32.039  61.920 -27.495  0.00  0.00    +0.000 N 
ATOM      5  C   UNL     1     -29.618  60.786 -27.664  0.00  0.00    +0.000 A 
ATOM      6  C   UNL     1     -29.631  60.922 -26.277  0.00  0.00    +0.000 A 
ATOM      7  C   UNL     1     -32.030  61.557 -26.106  0.00  0.00    +0.000 C 
ATOM      8  C   UNL     1     -30.898  61.082 -25.537  0.00  0.00    +0.000 C 
ATOM      9  C   UNL     1     -28.443  60.650 -28.395  0.00  0.00    +0.000 A 
ATOM     10  C   UNL     1     -31.849  63.368 -27.692  0.00  0.00    +0.000 C 
ATOM     11  C   UNL     1     -28.404  60.878 -25.613  0.00  0.00    +0.000 A 
ATOM     12  C   UNL     1     -27.233  60.621 -27.712  0.00  0.00    +0.000 A 
ATOM     13  C   UNL     1     -27.212  60.729 -26.323  0.00  0.00    +0.000 A 
ENDROOT
BRANCH   7  14
ATOM     14  C   UNL     1     -33.299  61.699 -25.320  0.00  0.00    +0.000 C 
ATOM     15  O   UNL     1     -33.237  61.881 -24.105  0.00  0.00    +0.000 OA
ATOM     16  N   UNL     1     -34.452  61.602 -26.055  0.00  0.00    +0.000 N 
ATOM     17  H   UNL     1     -34.413  61.517 -27.064  0.00  0.00    +0.000 HD
BRANCH  16  18
ATOM     18  C   UNL     1     -35.757  61.670 -25.565  0.00  0.00    +0.000 A 
ATOM     19  N   UNL     1     -36.488  60.557 -25.778  0.00  0.00    +0.000 NA
ATOM     20  C   UNL     1     -37.761  60.567 -25.319  0.00  0.00    +0.000 A 
ATOM     21  C   UNL     1     -38.343  61.633 -24.656  0.00  0.00    +0.000 A 
ATOM     22  C   UNL     1     -37.563  62.761 -24.451  0.00  0.00    +0.000 A 
ATOM     23  C   UNL     1     -36.251  62.788 -24.909  0.00  0.00    +0.000 A 
ENDBRANCH  16  18
ENDBRANCH   7  14
BRANCH   8  24
ATOM     24  O   UNL     1     -30.804  60.713 -24.206  0.00  0.00    +0.000 OA
ATOM     25  H   UNL     1     -31.156  59.801 -24.090  0.00  0.00    +0.000 HD
ENDBRANCH   8  24
TORSDOF 3
ENDMDL
MODEL 8
REMARK VINA RESULT:      -5.6     25.500     26.874
REMARK  Name = Piroxicam.pdbqt.pdb
REMARK  3 active torsions:
REMARK  status: ('A' for Active; 'I' for Inactive)
REMARK    1  A    between atoms: C_7  and  C_14
REMARK    2  A    between atoms: C_8  and  O_24
REMARK    3  A    between atoms: N_16  and  C_18
REMARK                            x       y       z     vdW  Elec       q    Type
REMARK                         _______ _______ _______ _____ _____    ______ ____
ROOT
ATOM      1  S   UNL     1     -31.567  53.094   8.745  0.00  0.00    +0.000 S 
ATOM      2  O   UNL     1     -31.835  53.898   7.567  0.00  0.00    +0.000 OA
ATOM      3  O   UNL     1     -31.125  53.714   9.979  0.00  0.00    +0.000 OA
ATOM      4  N   UNL     1     -32.927  52.078   9.036  0.00  0.00    +0.000 N 
ATOM      5  C   UNL     1     -30.365  51.912   8.273  0.00  0.00    +0.000 A 
ATOM      6  C   UNL     1     -30.808  50.783   7.586  0.00  0.00    +0.000 A 
ATOM      7  C   UNL     1     -33.234  51.203   7.941  0.00  0.00    +0.000 C 
ATOM      8  C   UNL     1     -32.234  50.599   7.256  0.00  0.00    +0.000 C 
ATOM      9  C   UNL     1     -29.032  52.110   8.614  0.00  0.00    +0.000 A 
ATOM     10  C   UNL     1     -33.032  51.397  10.338  0.00  0.00    +0.000 C 
ATOM     11  C   UNL     1     -29.848  49.845   7.201  0.00  0.00    +0.000 A 
ATOM     12  C   UNL     1     -28.097  51.156   8.231  0.00  0.00    +0.000 A 
ATOM     13  C   UNL     1     -28.502  50.028   7.520  0.00  0.00    +0.000 A 
ENDROOT
BRANCH   7  14
ATOM     14  C   UNL     1     -34.671  50.994   7.569  0.00  0.00    +0.000 C 
ATOM     15  O   UNL     1     -35.309  51.926   7.082  0.00  0.00    +0.000 OA
ATOM     16  N   UNL     1     -35.160  49.738   7.823  0.00  0.00    +0.000 N 
ATOM     17  H   UNL     1     -34.547  49.007   8.166  0.00  0.00    +0.000 HD
BRANCH  16  18
ATOM     18  C   UNL     1     -36.463  49.293   7.598  0.00  0.00    +0.000 A 
ATOM     19  N   UNL     1     -36.556  48.263   6.733  0.00  0.00    +0.000 NA
ATOM     20  C   UNL     1     -37.798  47.789   6.482  0.00  0.00    +0.000 A 
ATOM     21  C   UNL     1     -38.955  48.289   7.053  0.00  0.00    +0.000 A 
ATOM     22  C   UNL     1     -38.824  49.347   7.940  0.00  0.00    +0.000 A 
ATOM     23  C   UNL     1     -37.564  49.862   8.223  0.00  0.00    +0.000 A 
ENDBRANCH  16  18
ENDBRANCH   7  14
BRANCH   8  24
ATOM     24  O   UNL     1     -32.443  49.740   6.191  0.00  0.00    +0.000 OA
ATOM     25  H   UNL     1     -32.282  50.216   5.345  0.00  0.00    +0.000 HD
ENDBRANCH   8  24
TORSDOF 3
ENDMDL
MODEL 9
REMARK VINA RESULT:      -5.6     19.195     20.183
REMARK  Name = Piroxicam.pdbqt.pdb
REMARK  3 active torsions:
REMARK  status: ('A' for Active; 'I' for Inactive)
REMARK    1  A    between atoms: C_7  and  C_14
REMARK    2  A    between atoms: C_8  and  O_24
REMARK    3  A    between atoms: N_16  and  C_18
REMARK                            x       y       z     vdW  Elec       q    Type
REMARK                         _______ _______ _______ _____ _____    ______ ____
ROOT
ATOM      1  S   UNL     1     -28.296  61.977 -28.752  0.00  0.00    +0.000 S 
ATOM      2  O   UNL     1     -29.279  63.001 -29.057  0.00  0.00    +0.000 OA
ATOM      3  O   UNL     1     -26.879  62.283 -28.765  0.00  0.00    +0.000 OA
ATOM      4  N   UNL     1     -28.734  61.223 -27.267  0.00  0.00    +0.000 N 
ATOM      5  C   UNL     1     -28.578  60.671 -29.884  0.00  0.00    +0.000 A 
ATOM      6  C   UNL     1     -29.614  59.784 -29.597  0.00  0.00    +0.000 A 
ATOM      7  C   UNL     1     -30.037  60.621 -27.293  0.00  0.00    +0.000 C 
ATOM      8  C   UNL     1     -30.450  59.948 -28.392  0.00  0.00    +0.000 C 
ATOM      9  C   UNL     1     -27.760  60.536 -31.000  0.00  0.00    +0.000 A 
ATOM     10  C   UNL     1     -27.742  60.372 -26.589  0.00  0.00    +0.000 C 
ATOM     11  C   UNL     1     -29.845  58.748 -30.503  0.00  0.00    +0.000 A 
ATOM     12  C   UNL     1     -28.002  59.490 -31.881  0.00  0.00    +0.000 A 
ATOM     13  C   UNL     1     -29.046  58.599 -31.638  0.00  0.00    +0.000 A 
ENDROOT
BRANCH   7  14
ATOM     14  C   UNL     1     -30.921  60.770 -26.091  0.00  0.00    +0.000 C 
ATOM     15  O   UNL     1     -31.181  59.781 -25.408  0.00  0.00    +0.000 OA
ATOM     16  N   UNL     1     -31.379  62.042 -25.862  0.00  0.00    +0.000 N 
ATOM     17  H   UNL     1     -31.063  62.814 -26.437  0.00  0.00    +0.000 HD
BRANCH  16  18
ATOM     18  C   UNL     1     -32.234  62.444 -24.834  0.00  0.00    +0.000 A 
ATOM     19  N   UNL     1     -31.636  62.567 -23.632  0.00  0.00    +0.000 NA
ATOM     20  C   UNL     1     -32.418  62.958 -22.599  0.00  0.00    +0.000 A 
ATOM     21  C   UNL     1     -33.769  63.237 -22.706  0.00  0.00    +0.000 A 
ATOM     22  C   UNL     1     -34.352  63.103 -23.957  0.00  0.00    +0.000 A 
ATOM     23  C   UNL     1     -33.581  62.702 -25.042  0.00  0.00    +0.000 A 
ENDBRANCH  16  18
ENDBRANCH   7  14
BRANCH   8  24
ATOM     24  O   UNL     1     -31.688  59.336 -28.498  0.00  0.00    +0.000 OA
ATOM     25  H   UNL     1     -32.398  59.985 -28.290  0.00  0.00    +0.000 HD
ENDBRANCH   8  24
TORSDOF 3
ENDMDL
