MODEL 1
REMARK VINA RESULT:      -5.8      0.000      0.000
REMARK  Name = PKR_Inhibitor.pdbqt.pdb
REMARK  0 active torsions:
REMARK  status: ('A' for Active; 'I' for Inactive)
REMARK                            x       y       z     vdW  Elec       q    Type
REMARK                         _______ _______ _______ _____ _____    ______ ____
ROOT
ATOM      1  S   UNL     1     -32.959  44.384 -13.489  0.00  0.00    +0.000 S 
ATOM      2  O   UNL     1     -33.055  47.483 -18.369  0.00  0.00    +0.000 OA
ATOM      3  N   UNL     1     -34.523  47.864 -16.579  0.00  0.00    +0.000 N 
ATOM      4  N   UNL     1     -34.772  45.175 -11.798  0.00  0.00    +0.000 NA
ATOM      5  C   UNL     1     -33.844  46.268 -15.097  0.00  0.00    +0.000 A 
ATOM      6  C   UNL     1     -34.758  47.328 -15.322  0.00  0.00    +0.000 A 
ATOM      7  C   UNL     1     -32.999  46.166 -16.320  0.00  0.00    +0.000 C 
ATOM      8  C   UNL     1     -33.964  45.650 -13.898  0.00  0.00    +0.000 A 
ATOM      9  C   UNL     1     -33.482  47.231 -17.259  0.00  0.00    +0.000 C 
ATOM     10  C   UNL     1     -34.881  45.976 -12.922  0.00  0.00    +0.000 A 
ATOM     11  C   UNL     1     -35.727  47.750 -14.417  0.00  0.00    +0.000 A 
ATOM     12  C   UNL     1     -32.027  45.357 -16.600  0.00  0.00    +0.000 C 
ATOM     13  C   UNL     1     -35.771  47.042 -13.194  0.00  0.00    +0.000 A 
ATOM     14  C   UNL     1     -33.797  44.311 -11.995  0.00  0.00    +0.000 A 
ATOM     15  H   UNL     1     -35.039  48.634 -16.984  0.00  0.00    +0.000 HD
ATOM     16  C   UNL     1     -30.958  44.512 -16.981  0.00  0.00    +0.000 C 
ATOM     17  N   UNL     1     -30.293  44.577 -18.173  0.00  0.00    +0.000 N 
ATOM     18  C   UNL     1     -29.334  43.603 -18.166  0.00  0.00    +0.000 C 
ATOM     19  H   UNL     1     -30.473  45.225 -18.929  0.00  0.00    +0.000 HD
ATOM     20  N   UNL     1     -29.349  42.924 -17.041  0.00  0.00    +0.000 NA
ATOM     21  C   UNL     1     -30.358  43.482 -16.294  0.00  0.00    +0.000 C 
ENDROOT
TORSDOF 0
ENDMDL
MODEL 2
REMARK VINA RESULT:      -5.6      8.575     12.164
REMARK  Name = PKR_Inhibitor.pdbqt.pdb
REMARK  0 active torsions:
REMARK  status: ('A' for Active; 'I' for Inactive)
REMARK                            x       y       z     vdW  Elec       q    Type
REMARK                         _______ _______ _______ _____ _____    ______ ____
ROOT
ATOM      1  S   UNL     1     -34.951  41.301  -7.014  0.00  0.00    +0.000 S 
ATOM      2  O   UNL     1     -32.928  44.038  -2.341  0.00  0.00    +0.000 OA
ATOM      3  N   UNL     1     -32.573  44.805  -4.529  0.00  0.00    +0.000 N 
ATOM      4  N   UNL     1     -34.305  42.528  -9.216  0.00  0.00    +0.000 NA
ATOM      5  C   UNL     1     -33.662  43.209  -5.743  0.00  0.00    +0.000 A 
ATOM      6  C   UNL     1     -32.905  44.405  -5.814  0.00  0.00    +0.000 A 
ATOM      7  C   UNL     1     -33.789  42.870  -4.298  0.00  0.00    +0.000 C 
ATOM      8  C   UNL     1     -34.054  42.704  -6.937  0.00  0.00    +0.000 A 
ATOM      9  C   UNL     1     -33.060  43.944  -3.545  0.00  0.00    +0.000 C 
ATOM     10  C   UNL     1     -33.776  43.261  -8.167  0.00  0.00    +0.000 A 
ATOM     11  C   UNL     1     -32.560  45.061  -6.993  0.00  0.00    +0.000 A 
ATOM     12  C   UNL     1     -34.386  41.876  -3.721  0.00  0.00    +0.000 C 
ATOM     13  C   UNL     1     -33.018  44.456  -8.186  0.00  0.00    +0.000 A 
ATOM     14  C   UNL     1     -34.938  41.485  -8.719  0.00  0.00    +0.000 A 
ATOM     15  H   UNL     1     -32.035  45.630  -4.301  0.00  0.00    +0.000 HD
ATOM     16  C   UNL     1     -35.013  40.821  -3.017  0.00  0.00    +0.000 C 
ATOM     17  N   UNL     1     -35.021  40.682  -1.657  0.00  0.00    +0.000 N 
ATOM     18  C   UNL     1     -35.723  39.547  -1.361  0.00  0.00    +0.000 C 
ATOM     19  H   UNL     1     -34.587  41.301  -0.986  0.00  0.00    +0.000 HD
ATOM     20  N   UNL     1     -36.162  38.957  -2.452  0.00  0.00    +0.000 NA
ATOM     21  C   UNL     1     -35.725  39.743  -3.490  0.00  0.00    +0.000 C 
ENDROOT
TORSDOF 0
ENDMDL
MODEL 3
REMARK VINA RESULT:      -5.6     21.052     21.765
REMARK  Name = PKR_Inhibitor.pdbqt.pdb
REMARK  0 active torsions:
REMARK  status: ('A' for Active; 'I' for Inactive)
REMARK                            x       y       z     vdW  Elec       q    Type
REMARK                         _______ _______ _______ _____ _____    ______ ____
ROOT
ATOM      1  S   UNL     1     -16.982  57.003 -24.223  0.00  0.00    +0.000 S 
ATOM      2  O   UNL     1     -16.431  52.198 -27.391  0.00  0.00    +0.000 OA
ATOM      3  N   UNL     1     -15.695  52.360 -25.170  0.00  0.00    +0.000 N 
ATOM      4  N   UNL     1     -16.021  56.702 -21.824  0.00  0.00    +0.000 NA
ATOM      5  C   UNL     1     -16.268  54.511 -24.665  0.00  0.00    +0.000 A 
ATOM      6  C   UNL     1     -15.676  53.322 -24.171  0.00  0.00    +0.000 A 
ATOM      7  C   UNL     1     -16.673  54.233 -26.073  0.00  0.00    +0.000 C 
ATOM      8  C   UNL     1     -16.314  55.539 -23.786  0.00  0.00    +0.000 A 
ATOM      9  C   UNL     1     -16.277  52.813 -26.354  0.00  0.00    +0.000 C 
ATOM     10  C   UNL     1     -15.840  55.503 -22.492  0.00  0.00    +0.000 A 
ATOM     11  C   UNL     1     -15.162  53.162 -22.887  0.00  0.00    +0.000 A 
ATOM     12  C   UNL     1     -17.251  54.997 -26.943  0.00  0.00    +0.000 C 
ATOM     13  C   UNL     1     -15.258  54.293 -22.045  0.00  0.00    +0.000 A 
ATOM     14  C   UNL     1     -16.610  57.551 -22.641  0.00  0.00    +0.000 A 
ATOM     15  H   UNL     1     -15.333  51.421 -25.075  0.00  0.00    +0.000 HD
ATOM     16  C   UNL     1     -17.879  55.769 -27.950  0.00  0.00    +0.000 C 
ATOM     17  N   UNL     1     -18.174  55.324 -29.208  0.00  0.00    +0.000 N 
ATOM     18  C   UNL     1     -18.773  56.354 -29.880  0.00  0.00    +0.000 C 
ATOM     19  H   UNL     1     -17.987  54.404 -29.582  0.00  0.00    +0.000 HD
ATOM     20  N   UNL     1     -18.876  57.424 -29.124  0.00  0.00    +0.000 NA
ATOM     21  C   UNL     1     -18.321  57.071 -27.917  0.00  0.00    +0.000 C 
ENDROOT
TORSDOF 0
ENDMDL
MODEL 4
REMARK VINA RESULT:      -5.5     21.043     21.864
REMARK  Name = PKR_Inhibitor.pdbqt.pdb
REMARK  0 active torsions:
REMARK  status: ('A' for Active; 'I' for Inactive)
REMARK                            x       y       z     vdW  Elec       q    Type
REMARK                         _______ _______ _______ _____ _____    ______ ____
ROOT
ATOM      1  S   UNL     1     -17.175  51.974 -27.653  0.00  0.00    +0.000 S 
ATOM      2  O   UNL     1     -18.278  57.648 -27.818  0.00  0.00    +0.000 OA
ATOM      3  N   UNL     1     -17.063  56.628 -26.089  0.00  0.00    +0.000 N 
ATOM      4  N   UNL     1     -15.798  51.312 -25.547  0.00  0.00    +0.000 NA
ATOM      5  C   UNL     1     -17.078  54.447 -26.760  0.00  0.00    +0.000 A 
ATOM      6  C   UNL     1     -16.640  55.349 -25.759  0.00  0.00    +0.000 A 
ATOM      7  C   UNL     1     -17.824  55.254 -27.767  0.00  0.00    +0.000 C 
ATOM      8  C   UNL     1     -16.730  53.153 -26.561  0.00  0.00    +0.000 A 
ATOM      9  C   UNL     1     -17.785  56.674 -27.282  0.00  0.00    +0.000 C 
ATOM     10  C   UNL     1     -16.005  52.680 -25.489  0.00  0.00    +0.000 A 
ATOM     11  C   UNL     1     -15.902  54.993 -24.633  0.00  0.00    +0.000 A 
ATOM     12  C   UNL     1     -18.413  54.890 -28.860  0.00  0.00    +0.000 C 
ATOM     13  C   UNL     1     -15.589  53.620 -24.516  0.00  0.00    +0.000 A 
ATOM     14  C   UNL     1     -16.369  50.850 -26.640  0.00  0.00    +0.000 A 
ATOM     15  H   UNL     1     -16.881  57.456 -25.540  0.00  0.00    +0.000 HD
ATOM     16  C   UNL     1     -19.080  54.573 -30.068  0.00  0.00    +0.000 C 
ATOM     17  N   UNL     1     -19.719  55.476 -30.871  0.00  0.00    +0.000 N 
ATOM     18  C   UNL     1     -20.235  54.791 -31.935  0.00  0.00    +0.000 C 
ATOM     19  H   UNL     1     -19.800  56.472 -30.713  0.00  0.00    +0.000 HD
ATOM     20  N   UNL     1     -19.962  53.507 -31.856  0.00  0.00    +0.000 NA
ATOM     21  C   UNL     1     -19.242  53.360 -30.695  0.00  0.00    +0.000 C 
ENDROOT
TORSDOF 0
ENDMDL
MODEL 5
REMARK VINA RESULT:      -5.5      2.216      3.714
REMARK  Name = PKR_Inhibitor.pdbqt.pdb
REMARK  0 active torsions:
REMARK  status: ('A' for Active; 'I' for Inactive)
REMARK                            x       y       z     vdW  Elec       q    Type
REMARK                         _______ _______ _______ _____ _____    ______ ____
ROOT
ATOM      1  S   UNL     1     -33.534  47.535 -17.669  0.00  0.00    +0.000 S 
ATOM      2  O   UNL     1     -32.926  44.226 -12.967  0.00  0.00    +0.000 OA
ATOM      3  N   UNL     1     -34.508  45.951 -13.124  0.00  0.00    +0.000 N 
ATOM      4  N   UNL     1     -35.414  49.309 -17.373  0.00  0.00    +0.000 NA
ATOM      5  C   UNL     1     -34.106  46.734 -15.229  0.00  0.00    +0.000 A 
ATOM      6  C   UNL     1     -34.899  46.891 -14.065  0.00  0.00    +0.000 A 
ATOM      7  C   UNL     1     -33.167  45.610 -14.957  0.00  0.00    +0.000 C 
ATOM      8  C   UNL     1     -34.384  47.597 -16.236  0.00  0.00    +0.000 A 
ATOM      9  C   UNL     1     -33.470  45.131 -13.568  0.00  0.00    +0.000 C 
ATOM     10  C   UNL     1     -35.353  48.577 -16.200  0.00  0.00    +0.000 A 
ATOM     11  C   UNL     1     -35.905  47.841 -13.908  0.00  0.00    +0.000 A 
ATOM     12  C   UNL     1     -32.249  45.087 -15.706  0.00  0.00    +0.000 C 
ATOM     13  C   UNL     1     -36.119  48.694 -15.016  0.00  0.00    +0.000 A 
ATOM     14  C   UNL     1     -34.505  48.843 -18.204  0.00  0.00    +0.000 A 
ATOM     15  H   UNL     1     -34.917  45.849 -12.205  0.00  0.00    +0.000 HD
ATOM     16  C   UNL     1     -31.228  44.463 -16.461  0.00  0.00    +0.000 C 
ATOM     17  N   UNL     1     -30.459  43.419 -16.028  0.00  0.00    +0.000 N 
ATOM     18  C   UNL     1     -29.592  43.098 -17.035  0.00  0.00    +0.000 C 
ATOM     19  H   UNL     1     -30.515  42.962 -15.128  0.00  0.00    +0.000 HD
ATOM     20  N   UNL     1     -29.764  43.875 -18.081  0.00  0.00    +0.000 NA
ATOM     21  C   UNL     1     -30.782  44.730 -17.735  0.00  0.00    +0.000 C 
ENDROOT
TORSDOF 0
ENDMDL
MODEL 6
REMARK VINA RESULT:      -5.5      3.263      5.501
REMARK  Name = PKR_Inhibitor.pdbqt.pdb
REMARK  0 active torsions:
REMARK  status: ('A' for Active; 'I' for Inactive)
REMARK                            x       y       z     vdW  Elec       q    Type
REMARK                         _______ _______ _______ _____ _____    ______ ____
ROOT
ATOM      1  S   UNL     1     -37.246  49.403 -15.830  0.00  0.00    +0.000 S 
ATOM      2  O   UNL     1     -32.537  46.814 -17.963  0.00  0.00    +0.000 OA
ATOM      3  N   UNL     1     -33.387  46.367 -15.823  0.00  0.00    +0.000 N 
ATOM      4  N   UNL     1     -37.801  48.583 -13.424  0.00  0.00    +0.000 NA
ATOM      5  C   UNL     1     -35.196  47.756 -15.762  0.00  0.00    +0.000 A 
ATOM      6  C   UNL     1     -34.449  46.792 -15.040  0.00  0.00    +0.000 A 
ATOM      7  C   UNL     1     -34.523  47.916 -17.082  0.00  0.00    +0.000 C 
ATOM      8  C   UNL     1     -36.270  48.259 -15.109  0.00  0.00    +0.000 A 
ATOM      9  C   UNL     1     -33.346  46.986 -17.073  0.00  0.00    +0.000 C 
ATOM     10  C   UNL     1     -36.666  47.906 -13.836  0.00  0.00    +0.000 A 
ATOM     11  C   UNL     1     -34.747  46.355 -13.752  0.00  0.00    +0.000 A 
ATOM     12  C   UNL     1     -34.823  48.676 -18.087  0.00  0.00    +0.000 C 
ATOM     13  C   UNL     1     -35.888  46.940 -13.156  0.00  0.00    +0.000 A 
ATOM     14  C   UNL     1     -38.182  49.388 -14.394  0.00  0.00    +0.000 A 
ATOM     15  H   UNL     1     -32.701  45.680 -15.542  0.00  0.00    +0.000 HD
ATOM     16  C   UNL     1     -35.083  49.474 -19.226  0.00  0.00    +0.000 C 
ATOM     17  N   UNL     1     -34.333  49.479 -20.369  0.00  0.00    +0.000 N 
ATOM     18  C   UNL     1     -34.899  50.375 -21.232  0.00  0.00    +0.000 C 
ATOM     19  H   UNL     1     -33.508  48.924 -20.550  0.00  0.00    +0.000 HD
ATOM     20  N   UNL     1     -35.964  50.939 -20.706  0.00  0.00    +0.000 NA
ATOM     21  C   UNL     1     -36.088  50.386 -19.455  0.00  0.00    +0.000 C 
ENDROOT
TORSDOF 0
ENDMDL
MODEL 7
REMARK VINA RESULT:      -5.3     18.506     20.335
REMARK  Name = PKR_Inhibitor.pdbqt.pdb
REMARK  0 active torsions:
REMARK  status: ('A' for Active; 'I' for Inactive)
REMARK                            x       y       z     vdW  Elec       q    Type
REMARK                         _______ _______ _______ _____ _____    ______ ____
ROOT
ATOM      1  S   UNL     1     -26.313  62.766 -26.981  0.00  0.00    +0.000 S 
ATOM      2  O   UNL     1     -31.061  59.896 -25.354  0.00  0.00    +0.000 OA
ATOM      3  N   UNL     1     -29.747  61.147 -23.867  0.00  0.00    +0.000 N 
ATOM      4  N   UNL     1     -25.193  64.004 -24.985  0.00  0.00    +0.000 NA
ATOM      5  C   UNL     1     -28.121  61.933 -25.262  0.00  0.00    +0.000 A 
ATOM      6  C   UNL     1     -28.598  61.920 -23.927  0.00  0.00    +0.000 A 
ATOM      7  C   UNL     1     -29.063  61.099 -26.060  0.00  0.00    +0.000 C 
ATOM      8  C   UNL     1     -26.994  62.657 -25.463  0.00  0.00    +0.000 A 
ATOM      9  C   UNL     1     -30.108  60.608 -25.102  0.00  0.00    +0.000 C 
ATOM     10  C   UNL     1     -26.311  63.355 -24.490  0.00  0.00    +0.000 A 
ATOM     11  C   UNL     1     -27.997  62.583 -22.860  0.00  0.00    +0.000 A 
ATOM     12  C   UNL     1     -29.058  60.805 -27.321  0.00  0.00    +0.000 C 
ATOM     13  C   UNL     1     -26.827  63.312 -23.173  0.00  0.00    +0.000 A 
ATOM     14  C   UNL     1     -25.106  63.759 -26.276  0.00  0.00    +0.000 A 
ATOM     15  H   UNL     1     -30.285  60.976 -23.029  0.00  0.00    +0.000 HD
ATOM     16  C   UNL     1     -29.122  60.439 -28.686  0.00  0.00    +0.000 C 
ATOM     17  N   UNL     1     -30.089  59.647 -29.241  0.00  0.00    +0.000 N 
ATOM     18  C   UNL     1     -29.808  59.524 -30.573  0.00  0.00    +0.000 C 
ATOM     19  H   UNL     1     -30.871  59.226 -28.760  0.00  0.00    +0.000 HD
ATOM     20  N   UNL     1     -28.722  60.190 -30.898  0.00  0.00    +0.000 NA
ATOM     21  C   UNL     1     -28.285  60.764 -29.728  0.00  0.00    +0.000 C 
ENDROOT
TORSDOF 0
ENDMDL
MODEL 8
REMARK VINA RESULT:      -5.3      2.748      5.651
REMARK  Name = PKR_Inhibitor.pdbqt.pdb
REMARK  0 active torsions:
REMARK  status: ('A' for Active; 'I' for Inactive)
REMARK                            x       y       z     vdW  Elec       q    Type
REMARK                         _______ _______ _______ _____ _____    ______ ____
ROOT
ATOM      1  S   UNL     1     -32.367  44.843 -19.176  0.00  0.00    +0.000 S 
ATOM      2  O   UNL     1     -34.569  48.391 -15.177  0.00  0.00    +0.000 OA
ATOM      3  N   UNL     1     -33.400  46.428 -14.644  0.00  0.00    +0.000 N 
ATOM      4  N   UNL     1     -31.161  42.801 -18.106  0.00  0.00    +0.000 NA
ATOM      5  C   UNL     1     -32.888  45.637 -16.722  0.00  0.00    +0.000 A 
ATOM      6  C   UNL     1     -32.771  45.400 -15.330  0.00  0.00    +0.000 A 
ATOM      7  C   UNL     1     -33.649  46.909 -16.877  0.00  0.00    +0.000 C 
ATOM      8  C   UNL     1     -32.313  44.701 -17.515  0.00  0.00    +0.000 A 
ATOM      9  C   UNL     1     -33.960  47.386 -15.489  0.00  0.00    +0.000 C 
ATOM     10  C   UNL     1     -31.647  43.580 -17.069  0.00  0.00    +0.000 A 
ATOM     11  C   UNL     1     -32.125  44.306 -14.759  0.00  0.00    +0.000 A 
ATOM     12  C   UNL     1     -34.009  47.543 -17.947  0.00  0.00    +0.000 C 
ATOM     13  C   UNL     1     -31.557  43.387 -15.670  0.00  0.00    +0.000 A 
ATOM     14  C   UNL     1     -31.485  43.375 -19.246  0.00  0.00    +0.000 A 
ATOM     15  H   UNL     1     -33.461  46.499 -13.638  0.00  0.00    +0.000 HD
ATOM     16  C   UNL     1     -34.440  48.294 -19.066  0.00  0.00    +0.000 C 
ATOM     17  N   UNL     1     -35.142  49.465 -19.002  0.00  0.00    +0.000 N 
ATOM     18  C   UNL     1     -35.370  49.882 -20.283  0.00  0.00    +0.000 C 
ATOM     19  H   UNL     1     -35.442  49.942 -18.162  0.00  0.00    +0.000 HD
ATOM     20  N   UNL     1     -34.854  49.046 -21.158  0.00  0.00    +0.000 NA
ATOM     21  C   UNL     1     -34.272  48.051 -20.410  0.00  0.00    +0.000 C 
ENDROOT
TORSDOF 0
ENDMDL
MODEL 9
REMARK VINA RESULT:      -5.3     25.566     27.354
REMARK  Name = PKR_Inhibitor.pdbqt.pdb
REMARK  0 active torsions:
REMARK  status: ('A' for Active; 'I' for Inactive)
REMARK                            x       y       z     vdW  Elec       q    Type
REMARK                         _______ _______ _______ _____ _____    ______ ____
ROOT
ATOM      1  S   UNL     1     -15.882  48.297   5.298  0.00  0.00    +0.000 S 
ATOM      2  O   UNL     1     -18.545  53.393   5.901  0.00  0.00    +0.000 OA
ATOM      3  N   UNL     1     -17.969  52.487   3.815  0.00  0.00    +0.000 N 
ATOM      4  N   UNL     1     -15.452  47.713   2.799  0.00  0.00    +0.000 NA
ATOM      5  C   UNL     1     -16.988  50.523   4.438  0.00  0.00    +0.000 A 
ATOM      6  C   UNL     1     -17.352  51.340   3.338  0.00  0.00    +0.000 A 
ATOM      7  C   UNL     1     -17.422  51.243   5.668  0.00  0.00    +0.000 C 
ATOM      8  C   UNL     1     -16.371  49.362   4.112  0.00  0.00    +0.000 A 
ATOM      9  C   UNL     1     -18.059  52.521   5.207  0.00  0.00    +0.000 C 
ATOM     10  C   UNL     1     -16.089  48.943   2.830  0.00  0.00    +0.000 A 
ATOM     11  C   UNL     1     -17.122  51.026   2.001  0.00  0.00    +0.000 A 
ATOM     12  C   UNL     1     -17.314  50.910   6.914  0.00  0.00    +0.000 C 
ATOM     13  C   UNL     1     -16.473  49.792   1.766  0.00  0.00    +0.000 A 
ATOM     14  C   UNL     1     -15.298  47.292   4.037  0.00  0.00    +0.000 A 
ATOM     15  H   UNL     1     -18.326  53.234   3.235  0.00  0.00    +0.000 HD
ATOM     16  C   UNL     1     -17.234  50.619   8.297  0.00  0.00    +0.000 C 
ATOM     17  N   UNL     1     -17.704  51.425   9.296  0.00  0.00    +0.000 N 
ATOM     18  C   UNL     1     -17.443  50.804  10.486  0.00  0.00    +0.000 C 
ATOM     19  H   UNL     1     -18.161  52.320   9.184  0.00  0.00    +0.000 HD
ATOM     20  N   UNL     1     -16.837  49.652  10.301  0.00  0.00    +0.000 NA
ATOM     21  C   UNL     1     -16.701  49.526   8.940  0.00  0.00    +0.000 C 
ENDROOT
TORSDOF 0
ENDMDL
