MODEL 1
REMARK VINA RESULT:      -6.8      0.000      0.000
REMARK  Name = 
REMARK  14 active torsions:
REMARK  status: ('A' for Active; 'I' for Inactive)
REMARK    1  A    between atoms: O_1  and  C_14
REMARK    2  A    between atoms: O_1  and  C_15
REMARK    3  A    between atoms: O_4  and  C_16
REMARK    4  A    between atoms: O_5  and  C_18
REMARK    5  A    between atoms: O_6  and  C_26
REMARK    6  A    between atoms: O_7  and  C_29
REMARK    7  A    between atoms: O_8  and  C_35
REMARK    8  A    between atoms: O_9  and  C_36
REMARK    9  A    between atoms: O_10  and  C_39
REMARK   10  A    between atoms: O_11  and  C_40
REMARK   11  A    between atoms: O_12  and  C_41
REMARK   12  A    between atoms: O_13  and  C_43
REMARK   13  A    between atoms: C_14  and  C_20
REMARK   14  A    between atoms: C_17  and  C_24
REMARK                            x       y       z     vdW  Elec       q    Type
REMARK                         _______ _______ _______ _____ _____    ______ ____
ROOT
ATOM      1  O   UNL     1     -28.165  62.918 -27.212  0.00  0.00    +0.000 OA
ATOM      2  C   UNL     1     -28.616  61.633 -26.761  0.00  0.00    +0.000 C 
ATOM      3  C   UNL     1     -27.620  60.510 -27.181  0.00  0.00    +0.000 C 
ATOM      4  C   UNL     1     -27.395  60.531 -28.689  0.00  0.00    +0.000 C 
ATOM      5  C   UNL     1     -27.112  61.920 -29.178  0.00  0.00    +0.000 A 
ATOM      6  C   UNL     1     -27.525  63.016 -28.416  0.00  0.00    +0.000 A 
ATOM      7  C   UNL     1     -26.480  62.168 -30.406  0.00  0.00    +0.000 A 
ATOM      8  C   UNL     1     -27.294  64.320 -28.862  0.00  0.00    +0.000 A 
ATOM      9  C   UNL     1     -26.263  63.462 -30.869  0.00  0.00    +0.000 A 
ATOM     10  C   UNL     1     -26.670  64.532 -30.086  0.00  0.00    +0.000 A 
ENDROOT
BRANCH   2  11
ATOM     11  C   UNL     1     -30.048  61.303 -27.225  0.00  0.00    +0.000 A 
ATOM     12  C   UNL     1     -30.659  60.082 -26.859  0.00  0.00    +0.000 A 
ATOM     13  C   UNL     1     -30.793  62.208 -28.010  0.00  0.00    +0.000 A 
ATOM     14  C   UNL     1     -31.953  59.792 -27.279  0.00  0.00    +0.000 A 
ATOM     15  C   UNL     1     -32.087  61.900 -28.439  0.00  0.00    +0.000 A 
ATOM     16  C   UNL     1     -32.652  60.692 -28.075  0.00  0.00    +0.000 A 
BRANCH  14  17
ATOM     17  O   UNL     1     -32.593  58.635 -26.934  0.00  0.00    +0.000 OA
ATOM     18  H   UNL     1     -32.474  57.971 -27.642  0.00  0.00    +0.000 HD
ENDBRANCH  14  17
BRANCH  16  19
ATOM     19  O   UNL     1     -33.918  60.393 -28.490  0.00  0.00    +0.000 OA
ATOM     20  H   UNL     1     -34.463  61.138 -28.164  0.00  0.00    +0.000 HD
ENDBRANCH  16  19
ENDBRANCH   2  11
BRANCH   3  21
ATOM     21  O   UNL     1     -26.328  60.651 -26.523  0.00  0.00    +0.000 OA
ATOM     22  H   UNL     1     -26.125  59.758 -26.177  0.00  0.00    +0.000 HD
ENDBRANCH   3  21
BRANCH   4  23
ATOM     23  O   UNL     1     -26.288  59.675 -29.021  0.00  0.00    +0.000 OA
ATOM     24  H   UNL     1     -26.685  58.776 -29.061  0.00  0.00    +0.000 HD
ENDBRANCH   4  23
BRANCH   7  25
ATOM     25  O   UNL     1     -26.029  61.147 -31.199  0.00  0.00    +0.000 OA
ATOM     26  H   UNL     1     -26.675  61.043 -31.932  0.00  0.00    +0.000 HD
ENDBRANCH   7  25
BRANCH  10  27
ATOM     27  O   UNL     1     -26.475  65.822 -30.486  0.00  0.00    +0.000 OA
ATOM     28  H   UNL     1     -26.253  65.819 -31.433  0.00  0.00    +0.000 HD
ENDBRANCH  10  27
BRANCH   2  29
ATOM     29  O   UNL     1     -28.544  61.611 -25.308  0.00  0.00    +0.000 OA
BRANCH  29  31
ATOM     30  O   UNL     1     -28.982  64.438 -22.953  0.00  0.00    +0.000 OA
ATOM     31  C   UNL     1     -28.163  62.836 -24.651  0.00  0.00    +0.000 C 
ATOM     32  C   UNL     1     -29.247  63.187 -23.602  0.00  0.00    +0.000 C 
ATOM     33  C   UNL     1     -26.832  62.690 -23.906  0.00  0.00    +0.000 C 
ATOM     34  C   UNL     1     -26.651  63.738 -22.843  0.00  0.00    +0.000 A 
ATOM     35  C   UNL     1     -27.720  64.542 -22.435  0.00  0.00    +0.000 A 
ATOM     36  C   UNL     1     -25.405  63.925 -22.232  0.00  0.00    +0.000 A 
ATOM     37  C   UNL     1     -27.538  65.541 -21.475  0.00  0.00    +0.000 A 
ATOM     38  C   UNL     1     -25.215  64.906 -21.262  0.00  0.00    +0.000 A 
ATOM     39  C   UNL     1     -26.286  65.711 -20.896  0.00  0.00    +0.000 A 
BRANCH  32  40
ATOM     40  C   UNL     1     -30.623  63.288 -24.246  0.00  0.00    +0.000 A 
ATOM     41  C   UNL     1     -31.630  62.356 -23.951  0.00  0.00    +0.000 A 
ATOM     42  C   UNL     1     -30.926  64.375 -25.086  0.00  0.00    +0.000 A 
ATOM     43  C   UNL     1     -32.917  62.541 -24.450  0.00  0.00    +0.000 A 
ATOM     44  C   UNL     1     -32.214  64.545 -25.599  0.00  0.00    +0.000 A 
ATOM     45  C   UNL     1     -33.210  63.633 -25.265  0.00  0.00    +0.000 A 
BRANCH  43  46
ATOM     46  O   UNL     1     -33.923  61.691 -24.090  0.00  0.00    +0.000 OA
ATOM     47  H   UNL     1     -34.226  61.918 -23.194  0.00  0.00    +0.000 HD
ENDBRANCH  43  46
BRANCH  45  48
ATOM     48  O   UNL     1     -34.491  63.815 -25.703  0.00  0.00    +0.000 OA
ATOM     49  H   UNL     1     -34.634  64.758 -25.882  0.00  0.00    +0.000 HD
ENDBRANCH  45  48
ENDBRANCH  32  40
BRANCH  36  50
ATOM     50  O   UNL     1     -24.365  63.123 -22.611  0.00  0.00    +0.000 OA
ATOM     51  H   UNL     1     -23.912  63.531 -23.368  0.00  0.00    +0.000 HD
ENDBRANCH  36  50
BRANCH  39  52
ATOM     52  O   UNL     1     -26.066  66.668 -19.949  0.00  0.00    +0.000 OA
ATOM     53  H   UNL     1     -26.029  67.537 -20.385  0.00  0.00    +0.000 HD
ENDBRANCH  39  52
ENDBRANCH  29  31
ENDBRANCH   2  29
TORSDOF 14
ENDMDL
MODEL 2
REMARK VINA RESULT:      -6.7     22.353     25.718
REMARK  Name = 
REMARK  14 active torsions:
REMARK  status: ('A' for Active; 'I' for Inactive)
REMARK    1  A    between atoms: O_1  and  C_14
REMARK    2  A    between atoms: O_1  and  C_15
REMARK    3  A    between atoms: O_4  and  C_16
REMARK    4  A    between atoms: O_5  and  C_18
REMARK    5  A    between atoms: O_6  and  C_26
REMARK    6  A    between atoms: O_7  and  C_29
REMARK    7  A    between atoms: O_8  and  C_35
REMARK    8  A    between atoms: O_9  and  C_36
REMARK    9  A    between atoms: O_10  and  C_39
REMARK   10  A    between atoms: O_11  and  C_40
REMARK   11  A    between atoms: O_12  and  C_41
REMARK   12  A    between atoms: O_13  and  C_43
REMARK   13  A    between atoms: C_14  and  C_20
REMARK   14  A    between atoms: C_17  and  C_24
REMARK                            x       y       z     vdW  Elec       q    Type
REMARK                         _______ _______ _______ _____ _____    ______ ____
ROOT
ATOM      1  O   UNL     1     -37.655  47.429  -8.981  0.00  0.00    +0.000 OA
ATOM      2  C   UNL     1     -37.316  46.046  -8.806  0.00  0.00    +0.000 C 
ATOM      3  C   UNL     1     -38.507  45.251  -8.189  0.00  0.00    +0.000 C 
ATOM      4  C   UNL     1     -38.956  45.891  -6.880  0.00  0.00    +0.000 C 
ATOM      5  C   UNL     1     -39.121  47.374  -7.027  0.00  0.00    +0.000 A 
ATOM      6  C   UNL     1     -38.453  48.042  -8.057  0.00  0.00    +0.000 A 
ATOM      7  C   UNL     1     -39.896  48.133  -6.138  0.00  0.00    +0.000 A 
ATOM      8  C   UNL     1     -38.573  49.427  -8.200  0.00  0.00    +0.000 A 
ATOM      9  C   UNL     1     -40.006  49.515  -6.260  0.00  0.00    +0.000 A 
ATOM     10  C   UNL     1     -39.343  50.152  -7.299  0.00  0.00    +0.000 A 
ENDROOT
BRANCH   2  11
ATOM     11  C   UNL     1     -36.030  45.842  -7.982  0.00  0.00    +0.000 A 
ATOM     12  C   UNL     1     -35.862  44.688  -7.184  0.00  0.00    +0.000 A 
ATOM     13  C   UNL     1     -34.982  46.786  -8.011  0.00  0.00    +0.000 A 
ATOM     14  C   UNL     1     -34.697  44.509  -6.445  0.00  0.00    +0.000 A 
ATOM     15  C   UNL     1     -33.822  46.605  -7.253  0.00  0.00    +0.000 A 
ATOM     16  C   UNL     1     -33.693  45.471  -6.472  0.00  0.00    +0.000 A 
BRANCH  14  17
ATOM     17  O   UNL     1     -34.480  43.401  -5.676  0.00  0.00    +0.000 OA
ATOM     18  H   UNL     1     -34.992  43.474  -4.845  0.00  0.00    +0.000 HD
ENDBRANCH  14  17
BRANCH  16  19
ATOM     19  O   UNL     1     -32.558  45.290  -5.735  0.00  0.00    +0.000 OA
ATOM     20  H   UNL     1     -32.637  44.379  -5.386  0.00  0.00    +0.000 HD
ENDBRANCH  16  19
ENDBRANCH   2  11
BRANCH   3  21
ATOM     21  O   UNL     1     -39.651  45.194  -9.088  0.00  0.00    +0.000 OA
ATOM     22  H   UNL     1     -39.262  45.139  -9.985  0.00  0.00    +0.000 HD
ENDBRANCH   3  21
BRANCH   4  23
ATOM     23  O   UNL     1     -40.205  45.311  -6.466  0.00  0.00    +0.000 OA
ATOM     24  H   UNL     1     -40.399  44.641  -7.160  0.00  0.00    +0.000 HD
ENDBRANCH   4  23
BRANCH   7  25
ATOM     25  O   UNL     1     -40.597  47.548  -5.117  0.00  0.00    +0.000 OA
ATOM     26  H   UNL     1     -40.851  46.648  -5.419  0.00  0.00    +0.000 HD
ENDBRANCH   7  25
BRANCH  10  27
ATOM     27  O   UNL     1     -39.423  51.503  -7.471  0.00  0.00    +0.000 OA
ATOM     28  H   UNL     1     -38.910  51.933  -6.767  0.00  0.00    +0.000 HD
ENDBRANCH  10  27
BRANCH   2  29
ATOM     29  O   UNL     1     -37.166  45.445 -10.123  0.00  0.00    +0.000 OA
BRANCH  29  31
ATOM     30  O   UNL     1     -34.496  45.526 -12.691  0.00  0.00    +0.000 OA
ATOM     31  C   UNL     1     -36.247  46.080 -11.033  0.00  0.00    +0.000 C 
ATOM     32  C   UNL     1     -35.490  44.977 -11.814  0.00  0.00    +0.000 C 
ATOM     33  C   UNL     1     -36.977  46.951 -12.061  0.00  0.00    +0.000 C 
ATOM     34  C   UNL     1     -36.142  47.222 -13.281  0.00  0.00    +0.000 A 
ATOM     35  C   UNL     1     -34.965  46.507 -13.522  0.00  0.00    +0.000 A 
ATOM     36  C   UNL     1     -36.531  48.196 -14.209  0.00  0.00    +0.000 A 
ATOM     37  C   UNL     1     -34.171  46.788 -14.636  0.00  0.00    +0.000 A 
ATOM     38  C   UNL     1     -35.757  48.475 -15.333  0.00  0.00    +0.000 A 
ATOM     39  C   UNL     1     -34.577  47.770 -15.533  0.00  0.00    +0.000 A 
BRANCH  32  40
ATOM     40  C   UNL     1     -34.782  44.019 -10.864  0.00  0.00    +0.000 A 
ATOM     41  C   UNL     1     -33.561  44.366 -10.266  0.00  0.00    +0.000 A 
ATOM     42  C   UNL     1     -35.394  42.803 -10.511  0.00  0.00    +0.000 A 
ATOM     43  C   UNL     1     -32.997  43.532  -9.303  0.00  0.00    +0.000 A 
ATOM     44  C   UNL     1     -34.813  41.962  -9.558  0.00  0.00    +0.000 A 
ATOM     45  C   UNL     1     -33.623  42.339  -8.946  0.00  0.00    +0.000 A 
BRANCH  43  46
ATOM     46  O   UNL     1     -31.859  43.909  -8.649  0.00  0.00    +0.000 OA
ATOM     47  H   UNL     1     -31.153  43.269  -8.843  0.00  0.00    +0.000 HD
ENDBRANCH  43  46
BRANCH  45  48
ATOM     48  O   UNL     1     -33.070  41.563  -7.967  0.00  0.00    +0.000 OA
ATOM     49  H   UNL     1     -32.544  42.125  -7.376  0.00  0.00    +0.000 HD
ENDBRANCH  45  48
ENDBRANCH  32  40
BRANCH  36  50
ATOM     50  O   UNL     1     -37.694  48.880 -13.990  0.00  0.00    +0.000 OA
ATOM     51  H   UNL     1     -37.678  49.248 -13.090  0.00  0.00    +0.000 HD
ENDBRANCH  36  50
BRANCH  39  52
ATOM     52  O   UNL     1     -33.838  48.071 -16.639  0.00  0.00    +0.000 OA
ATOM     53  H   UNL     1     -33.932  49.021 -16.828  0.00  0.00    +0.000 HD
ENDBRANCH  39  52
ENDBRANCH  29  31
ENDBRANCH   2  29
TORSDOF 14
ENDMDL
MODEL 3
REMARK VINA RESULT:      -6.7     18.562     21.765
REMARK  Name = 
REMARK  14 active torsions:
REMARK  status: ('A' for Active; 'I' for Inactive)
REMARK    1  A    between atoms: O_1  and  C_14
REMARK    2  A    between atoms: O_1  and  C_15
REMARK    3  A    between atoms: O_4  and  C_16
REMARK    4  A    between atoms: O_5  and  C_18
REMARK    5  A    between atoms: O_6  and  C_26
REMARK    6  A    between atoms: O_7  and  C_29
REMARK    7  A    between atoms: O_8  and  C_35
REMARK    8  A    between atoms: O_9  and  C_36
REMARK    9  A    between atoms: O_10  and  C_39
REMARK   10  A    between atoms: O_11  and  C_40
REMARK   11  A    between atoms: O_12  and  C_41
REMARK   12  A    between atoms: O_13  and  C_43
REMARK   13  A    between atoms: C_14  and  C_20
REMARK   14  A    between atoms: C_17  and  C_24
REMARK                            x       y       z     vdW  Elec       q    Type
REMARK                         _______ _______ _______ _____ _____    ______ ____
ROOT
ATOM      1  O   UNL     1     -34.868  44.447 -14.852  0.00  0.00    +0.000 OA
ATOM      2  C   UNL     1     -34.625  45.801 -14.447  0.00  0.00    +0.000 C 
ATOM      3  C   UNL     1     -34.234  45.874 -12.939  0.00  0.00    +0.000 C 
ATOM      4  C   UNL     1     -35.304  45.211 -12.077  0.00  0.00    +0.000 C 
ATOM      5  C   UNL     1     -35.690  43.869 -12.624  0.00  0.00    +0.000 A 
ATOM      6  C   UNL     1     -35.457  43.583 -13.972  0.00  0.00    +0.000 A 
ATOM      7  C   UNL     1     -36.320  42.893 -11.838  0.00  0.00    +0.000 A 
ATOM      8  C   UNL     1     -35.829  42.348 -14.510  0.00  0.00    +0.000 A 
ATOM      9  C   UNL     1     -36.713  41.668 -12.369  0.00  0.00    +0.000 A 
ATOM     10  C   UNL     1     -36.458  41.404 -13.707  0.00  0.00    +0.000 A 
ENDROOT
BRANCH   2  11
ATOM     11  C   UNL     1     -35.805  46.742 -14.758  0.00  0.00    +0.000 A 
ATOM     12  C   UNL     1     -35.715  48.125 -14.482  0.00  0.00    +0.000 A 
ATOM     13  C   UNL     1     -36.998  46.258 -15.336  0.00  0.00    +0.000 A 
ATOM     14  C   UNL     1     -36.784  48.969 -14.767  0.00  0.00    +0.000 A 
ATOM     15  C   UNL     1     -38.071  47.111 -15.606  0.00  0.00    +0.000 A 
ATOM     16  C   UNL     1     -37.956  48.458 -15.313  0.00  0.00    +0.000 A 
BRANCH  14  17
ATOM     17  O   UNL     1     -36.736  50.315 -14.538  0.00  0.00    +0.000 OA
ATOM     18  H   UNL     1     -36.656  50.480 -13.577  0.00  0.00    +0.000 HD
ENDBRANCH  14  17
BRANCH  16  19
ATOM     19  O   UNL     1     -39.003  49.293 -15.580  0.00  0.00    +0.000 OA
ATOM     20  H   UNL     1     -38.927  49.479 -16.538  0.00  0.00    +0.000 HD
ENDBRANCH  16  19
ENDBRANCH   2  11
BRANCH   3  21
ATOM     21  O   UNL     1     -32.960  45.222 -12.673  0.00  0.00    +0.000 OA
ATOM     22  H   UNL     1     -32.327  45.955 -12.534  0.00  0.00    +0.000 HD
ENDBRANCH   3  21
BRANCH   4  23
ATOM     23  O   UNL     1     -34.809  45.055 -10.736  0.00  0.00    +0.000 OA
ATOM     24  H   UNL     1     -33.958  45.548 -10.736  0.00  0.00    +0.000 HD
ENDBRANCH   4  23
BRANCH   7  25
ATOM     25  O   UNL     1     -36.562  43.092 -10.505  0.00  0.00    +0.000 OA
ATOM     26  H   UNL     1     -37.503  43.365 -10.420  0.00  0.00    +0.000 HD
ENDBRANCH   7  25
BRANCH  10  27
ATOM     27  O   UNL     1     -36.813  40.216 -14.277  0.00  0.00    +0.000 OA
ATOM     28  H   UNL     1     -37.781  40.133 -14.234  0.00  0.00    +0.000 HD
ENDBRANCH  10  27
BRANCH   2  29
ATOM     29  O   UNL     1     -33.423  46.269 -15.121  0.00  0.00    +0.000 OA
BRANCH  29  31
ATOM     30  O   UNL     1     -32.293  45.738 -18.610  0.00  0.00    +0.000 OA
ATOM     31  C   UNL     1     -32.953  45.489 -16.238  0.00  0.00    +0.000 C 
ATOM     32  C   UNL     1     -32.693  46.446 -17.428  0.00  0.00    +0.000 C 
ATOM     33  C   UNL     1     -31.632  44.781 -15.920  0.00  0.00    +0.000 C 
ATOM     34  C   UNL     1     -30.882  44.380 -17.161  0.00  0.00    +0.000 A 
ATOM     35  C   UNL     1     -31.252  44.871 -18.416  0.00  0.00    +0.000 A 
ATOM     36  C   UNL     1     -29.790  43.507 -17.081  0.00  0.00    +0.000 A 
ATOM     37  C   UNL     1     -30.577  44.466 -19.570  0.00  0.00    +0.000 A 
ATOM     38  C   UNL     1     -29.099  43.108 -18.223  0.00  0.00    +0.000 A 
ATOM     39  C   UNL     1     -29.505  43.589 -19.462  0.00  0.00    +0.000 A 
BRANCH  32  40
ATOM     40  C   UNL     1     -33.942  47.245 -17.775  0.00  0.00    +0.000 A 
ATOM     41  C   UNL     1     -33.986  48.635 -17.586  0.00  0.00    +0.000 A 
ATOM     42  C   UNL     1     -35.043  46.602 -18.370  0.00  0.00    +0.000 A 
ATOM     43  C   UNL     1     -35.089  49.362 -18.029  0.00  0.00    +0.000 A 
ATOM     44  C   UNL     1     -36.154  47.335 -18.795  0.00  0.00    +0.000 A 
ATOM     45  C   UNL     1     -36.164  48.717 -18.636  0.00  0.00    +0.000 A 
BRANCH  43  46
ATOM     46  O   UNL     1     -35.097  50.725 -17.935  0.00  0.00    +0.000 OA
ATOM     47  H   UNL     1     -35.725  50.992 -17.244  0.00  0.00    +0.000 HD
ENDBRANCH  43  46
BRANCH  45  48
ATOM     48  O   UNL     1     -37.212  49.460 -19.101  0.00  0.00    +0.000 OA
ATOM     49  H   UNL     1     -38.021  48.924 -19.067  0.00  0.00    +0.000 HD
ENDBRANCH  45  48
ENDBRANCH  32  40
BRANCH  36  50
ATOM     50  O   UNL     1     -29.411  43.045 -15.852  0.00  0.00    +0.000 OA
ATOM     51  H   UNL     1     -30.044  43.363 -15.187  0.00  0.00    +0.000 HD
ENDBRANCH  36  50
BRANCH  39  52
ATOM     52  O   UNL     1     -28.812  43.173 -20.561  0.00  0.00    +0.000 OA
ATOM     53  H   UNL     1     -28.209  43.885 -20.838  0.00  0.00    +0.000 HD
ENDBRANCH  39  52
ENDBRANCH  29  31
ENDBRANCH   2  29
TORSDOF 14
ENDMDL
MODEL 4
REMARK VINA RESULT:      -6.5     16.553     19.745
REMARK  Name = 
REMARK  14 active torsions:
REMARK  status: ('A' for Active; 'I' for Inactive)
REMARK    1  A    between atoms: O_1  and  C_14
REMARK    2  A    between atoms: O_1  and  C_15
REMARK    3  A    between atoms: O_4  and  C_16
REMARK    4  A    between atoms: O_5  and  C_18
REMARK    5  A    between atoms: O_6  and  C_26
REMARK    6  A    between atoms: O_7  and  C_29
REMARK    7  A    between atoms: O_8  and  C_35
REMARK    8  A    between atoms: O_9  and  C_36
REMARK    9  A    between atoms: O_10  and  C_39
REMARK   10  A    between atoms: O_11  and  C_40
REMARK   11  A    between atoms: O_12  and  C_41
REMARK   12  A    between atoms: O_13  and  C_43
REMARK   13  A    between atoms: C_14  and  C_20
REMARK   14  A    between atoms: C_17  and  C_24
REMARK                            x       y       z     vdW  Elec       q    Type
REMARK                         _______ _______ _______ _____ _____    ______ ____
ROOT
ATOM      1  O   UNL     1     -36.920  48.537 -18.182  0.00  0.00    +0.000 OA
ATOM      2  C   UNL     1     -35.531  48.476 -17.828  0.00  0.00    +0.000 C 
ATOM      3  C   UNL     1     -34.739  49.663 -18.457  0.00  0.00    +0.000 C 
ATOM      4  C   UNL     1     -34.934  49.694 -19.970  0.00  0.00    +0.000 C 
ATOM      5  C   UNL     1     -36.383  49.562 -20.335  0.00  0.00    +0.000 A 
ATOM      6  C   UNL     1     -37.272  48.985 -19.425  0.00  0.00    +0.000 A 
ATOM      7  C   UNL     1     -36.879  49.963 -21.584  0.00  0.00    +0.000 A 
ATOM      8  C   UNL     1     -38.622  48.830 -19.752  0.00  0.00    +0.000 A 
ATOM      9  C   UNL     1     -38.218  49.794 -21.927  0.00  0.00    +0.000 A 
ATOM     10  C   UNL     1     -39.083  49.231 -21.000  0.00  0.00    +0.000 A 
ENDROOT
BRANCH   2  11
ATOM     11  C   UNL     1     -34.879  47.127 -18.185  0.00  0.00    +0.000 A 
ATOM     12  C   UNL     1     -33.486  46.939 -18.036  0.00  0.00    +0.000 A 
ATOM     13  C   UNL     1     -35.648  46.040 -18.654  0.00  0.00    +0.000 A 
ATOM     14  C   UNL     1     -32.904  45.717 -18.358  0.00  0.00    +0.000 A 
ATOM     15  C   UNL     1     -35.052  44.821 -18.988  0.00  0.00    +0.000 A 
ATOM     16  C   UNL     1     -33.685  44.673 -18.843  0.00  0.00    +0.000 A 
BRANCH  14  17
ATOM     17  O   UNL     1     -31.567  45.480 -18.211  0.00  0.00    +0.000 OA
ATOM     18  H   UNL     1     -31.060  46.245 -18.553  0.00  0.00    +0.000 HD
ENDBRANCH  14  17
BRANCH  16  19
ATOM     19  O   UNL     1     -33.102  43.481 -19.165  0.00  0.00    +0.000 OA
ATOM     20  H   UNL     1     -33.128  43.454 -20.143  0.00  0.00    +0.000 HD
ENDBRANCH  16  19
ENDBRANCH   2  11
BRANCH   3  21
ATOM     21  O   UNL     1     -35.157  50.948 -17.914  0.00  0.00    +0.000 OA
ATOM     22  H   UNL     1     -35.482  50.746 -17.013  0.00  0.00    +0.000 HD
ENDBRANCH   3  21
BRANCH   4  23
ATOM     23  O   UNL     1     -34.421  50.931 -20.494  0.00  0.00    +0.000 OA
ATOM     24  H   UNL     1     -33.501  50.712 -20.765  0.00  0.00    +0.000 HD
ENDBRANCH   4  23
BRANCH   7  25
ATOM     25  O   UNL     1     -36.074  50.555 -22.520  0.00  0.00    +0.000 OA
ATOM     26  H   UNL     1     -35.190  50.131 -22.451  0.00  0.00    +0.000 HD
ENDBRANCH   7  25
BRANCH  10  27
ATOM     27  O   UNL     1     -40.406  49.050 -21.280  0.00  0.00    +0.000 OA
ATOM     28  H   UNL     1     -40.479  48.485 -22.067  0.00  0.00    +0.000 HD
ENDBRANCH  10  27
BRANCH   2  29
ATOM     29  O   UNL     1     -35.416  48.725 -16.399  0.00  0.00    +0.000 OA
BRANCH  29  31
ATOM     30  O   UNL     1     -37.129  47.226 -13.475  0.00  0.00    +0.000 OA
ATOM     31  C   UNL     1     -36.554  48.390 -15.581  0.00  0.00    +0.000 C 
ATOM     32  C   UNL     1     -36.048  47.663 -14.311  0.00  0.00    +0.000 C 
ATOM     33  C   UNL     1     -37.311  49.641 -15.124  0.00  0.00    +0.000 C 
ATOM     34  C   UNL     1     -38.170  49.383 -13.916  0.00  0.00    +0.000 A 
ATOM     35  C   UNL     1     -38.034  48.207 -13.174  0.00  0.00    +0.000 A 
ATOM     36  C   UNL     1     -39.122  50.324 -13.506  0.00  0.00    +0.000 A 
ATOM     37  C   UNL     1     -38.859  47.954 -12.076  0.00  0.00    +0.000 A 
ATOM     38  C   UNL     1     -39.940  50.091 -12.403  0.00  0.00    +0.000 A 
ATOM     39  C   UNL     1     -39.804  48.901 -11.700  0.00  0.00    +0.000 A 
BRANCH  32  40
ATOM     40  C   UNL     1     -35.224  46.434 -14.672  0.00  0.00    +0.000 A 
ATOM     41  C   UNL     1     -33.832  46.420 -14.493  0.00  0.00    +0.000 A 
ATOM     42  C   UNL     1     -35.867  45.264 -15.115  0.00  0.00    +0.000 A 
ATOM     43  C   UNL     1     -33.115  45.244 -14.708  0.00  0.00    +0.000 A 
ATOM     44  C   UNL     1     -35.140  44.093 -15.347  0.00  0.00    +0.000 A 
ATOM     45  C   UNL     1     -33.766  44.085 -15.126  0.00  0.00    +0.000 A 
BRANCH  43  46
ATOM     46  O   UNL     1     -31.776  45.198 -14.443  0.00  0.00    +0.000 OA
ATOM     47  H   UNL     1     -31.325  45.884 -14.964  0.00  0.00    +0.000 HD
ENDBRANCH  43  46
BRANCH  45  48
ATOM     48  O   UNL     1     -33.046  42.936 -15.285  0.00  0.00    +0.000 OA
ATOM     49  H   UNL     1     -32.508  42.786 -14.491  0.00  0.00    +0.000 HD
ENDBRANCH  45  48
ENDBRANCH  32  40
BRANCH  36  50
ATOM     50  O   UNL     1     -39.240  51.487 -14.215  0.00  0.00    +0.000 OA
ATOM     51  H   UNL     1     -40.130  51.529 -14.605  0.00  0.00    +0.000 HD
ENDBRANCH  36  50
BRANCH  39  52
ATOM     52  O   UNL     1     -40.626  48.699 -10.629  0.00  0.00    +0.000 OA
ATOM     53  H   UNL     1     -40.702  47.743 -10.471  0.00  0.00    +0.000 HD
ENDBRANCH  39  52
ENDBRANCH  29  31
ENDBRANCH   2  29
TORSDOF 14
ENDMDL
MODEL 5
REMARK VINA RESULT:      -6.1      1.727      2.378
REMARK  Name = 
REMARK  14 active torsions:
REMARK  status: ('A' for Active; 'I' for Inactive)
REMARK    1  A    between atoms: O_1  and  C_14
REMARK    2  A    between atoms: O_1  and  C_15
REMARK    3  A    between atoms: O_4  and  C_16
REMARK    4  A    between atoms: O_5  and  C_18
REMARK    5  A    between atoms: O_6  and  C_26
REMARK    6  A    between atoms: O_7  and  C_29
REMARK    7  A    between atoms: O_8  and  C_35
REMARK    8  A    between atoms: O_9  and  C_36
REMARK    9  A    between atoms: O_10  and  C_39
REMARK   10  A    between atoms: O_11  and  C_40
REMARK   11  A    between atoms: O_12  and  C_41
REMARK   12  A    between atoms: O_13  and  C_43
REMARK   13  A    between atoms: C_14  and  C_20
REMARK   14  A    between atoms: C_17  and  C_24
REMARK                            x       y       z     vdW  Elec       q    Type
REMARK                         _______ _______ _______ _____ _____    ______ ____
ROOT
ATOM      1  O   UNL     1     -28.321  62.647 -28.321  0.00  0.00    +0.000 OA
ATOM      2  C   UNL     1     -28.755  61.280 -28.335  0.00  0.00    +0.000 C 
ATOM      3  C   UNL     1     -27.641  60.343 -28.892  0.00  0.00    +0.000 C 
ATOM      4  C   UNL     1     -27.195  60.806 -30.275  0.00  0.00    +0.000 C 
ATOM      5  C   UNL     1     -26.927  62.282 -30.295  0.00  0.00    +0.000 A 
ATOM      6  C   UNL     1     -27.515  63.101 -29.327  0.00  0.00    +0.000 A 
ATOM      7  C   UNL     1     -26.134  62.886 -31.282  0.00  0.00    +0.000 A 
ATOM      8  C   UNL     1     -27.299  64.481 -29.339  0.00  0.00    +0.000 A 
ATOM      9  C   UNL     1     -25.930  64.262 -31.314  0.00  0.00    +0.000 A 
ATOM     10  C   UNL     1     -26.513  65.051 -30.334  0.00  0.00    +0.000 A 
ENDROOT
BRANCH   2  11
ATOM     11  C   UNL     1     -30.079  61.078 -29.098  0.00  0.00    +0.000 A 
ATOM     12  C   UNL     1     -30.452  59.798 -29.565  0.00  0.00    +0.000 A 
ATOM     13  C   UNL     1     -30.959  62.154 -29.338  0.00  0.00    +0.000 A 
ATOM     14  C   UNL     1     -31.650  59.623 -30.251  0.00  0.00    +0.000 A 
ATOM     15  C   UNL     1     -32.154  61.971 -30.040  0.00  0.00    +0.000 A 
ATOM     16  C   UNL     1     -32.484  60.707 -30.496  0.00  0.00    +0.000 A 
BRANCH  14  17
ATOM     17  O   UNL     1     -32.063  58.402 -30.704  0.00  0.00    +0.000 OA
ATOM     18  H   UNL     1     -31.283  57.844 -30.898  0.00  0.00    +0.000 HD
ENDBRANCH  14  17
BRANCH  16  19
ATOM     19  O   UNL     1     -33.653  60.527 -31.179  0.00  0.00    +0.000 OA
ATOM     20  H   UNL     1     -34.083  61.406 -31.162  0.00  0.00    +0.000 HD
ENDBRANCH  16  19
ENDBRANCH   2  11
BRANCH   3  21
ATOM     21  O   UNL     1     -26.474  60.304 -28.023  0.00  0.00    +0.000 OA
ATOM     22  H   UNL     1     -25.996  59.490 -28.281  0.00  0.00    +0.000 HD
ENDBRANCH   3  21
BRANCH   4  23
ATOM     23  O   UNL     1     -26.001  60.100 -30.656  0.00  0.00    +0.000 OA
ATOM     24  H   UNL     1     -26.322  59.205 -30.908  0.00  0.00    +0.000 HD
ENDBRANCH   4  23
BRANCH   7  25
ATOM     25  O   UNL     1     -25.508  62.147 -32.251  0.00  0.00    +0.000 OA
ATOM     26  H   UNL     1     -24.631  62.561 -32.408  0.00  0.00    +0.000 HD
ENDBRANCH   7  25
BRANCH  10  27
ATOM     27  O   UNL     1     -26.339  66.404 -30.313  0.00  0.00    +0.000 OA
ATOM     28  H   UNL     1     -27.215  66.826 -30.310  0.00  0.00    +0.000 HD
ENDBRANCH  10  27
BRANCH   2  29
ATOM     29  O   UNL     1     -28.900  60.835 -26.957  0.00  0.00    +0.000 OA
BRANCH  29  31
ATOM     30  O   UNL     1     -30.466  62.463 -24.019  0.00  0.00    +0.000 OA
ATOM     31  C   UNL     1     -29.042  61.856 -25.950  0.00  0.00    +0.000 C 
ATOM     32  C   UNL     1     -30.207  61.457 -25.009  0.00  0.00    +0.000 C 
ATOM     33  C   UNL     1     -27.780  61.985 -25.091  0.00  0.00    +0.000 C 
ATOM     34  C   UNL     1     -28.050  62.656 -23.772  0.00  0.00    +0.000 A 
ATOM     35  C   UNL     1     -29.358  62.856 -23.319  0.00  0.00    +0.000 A 
ATOM     36  C   UNL     1     -26.991  63.089 -22.964  0.00  0.00    +0.000 A 
ATOM     37  C   UNL     1     -29.605  63.514 -22.112  0.00  0.00    +0.000 A 
ATOM     38  C   UNL     1     -27.224  63.732 -21.750  0.00  0.00    +0.000 A 
ATOM     39  C   UNL     1     -28.533  63.944 -21.338  0.00  0.00    +0.000 A 
BRANCH  32  40
ATOM     40  C   UNL     1     -31.496  61.243 -25.791  0.00  0.00    +0.000 A 
ATOM     41  C   UNL     1     -31.840  59.973 -26.281  0.00  0.00    +0.000 A 
ATOM     42  C   UNL     1     -32.401  62.307 -25.958  0.00  0.00    +0.000 A 
ATOM     43  C   UNL     1     -33.083  59.773 -26.879  0.00  0.00    +0.000 A 
ATOM     44  C   UNL     1     -33.637  62.103 -26.576  0.00  0.00    +0.000 A 
ATOM     45  C   UNL     1     -33.979  60.830 -27.020  0.00  0.00    +0.000 A 
BRANCH  43  46
ATOM     46  O   UNL     1     -33.462  58.521 -27.272  0.00  0.00    +0.000 OA
ATOM     47  H   UNL     1     -32.682  58.038 -27.592  0.00  0.00    +0.000 HD
ENDBRANCH  43  46
BRANCH  45  48
ATOM     48  O   UNL     1     -35.207  60.595 -27.570  0.00  0.00    +0.000 OA
ATOM     49  H   UNL     1     -35.853  60.463 -26.858  0.00  0.00    +0.000 HD
ENDBRANCH  45  48
ENDBRANCH  32  40
BRANCH  36  50
ATOM     50  O   UNL     1     -25.712  62.872 -23.392  0.00  0.00    +0.000 OA
ATOM     51  H   UNL     1     -25.170  63.648 -23.170  0.00  0.00    +0.000 HD
ENDBRANCH  36  50
BRANCH  39  52
ATOM     52  O   UNL     1     -28.728  64.583 -20.148  0.00  0.00    +0.000 OA
ATOM     53  H   UNL     1     -29.672  64.802 -20.062  0.00  0.00    +0.000 HD
ENDBRANCH  39  52
ENDBRANCH  29  31
ENDBRANCH   2  29
TORSDOF 14
ENDMDL
MODEL 6
REMARK VINA RESULT:      -6.0     23.647     26.286
REMARK  Name = 
REMARK  14 active torsions:
REMARK  status: ('A' for Active; 'I' for Inactive)
REMARK    1  A    between atoms: O_1  and  C_14
REMARK    2  A    between atoms: O_1  and  C_15
REMARK    3  A    between atoms: O_4  and  C_16
REMARK    4  A    between atoms: O_5  and  C_18
REMARK    5  A    between atoms: O_6  and  C_26
REMARK    6  A    between atoms: O_7  and  C_29
REMARK    7  A    between atoms: O_8  and  C_35
REMARK    8  A    between atoms: O_9  and  C_36
REMARK    9  A    between atoms: O_10  and  C_39
REMARK   10  A    between atoms: O_11  and  C_40
REMARK   11  A    between atoms: O_12  and  C_41
REMARK   12  A    between atoms: O_13  and  C_43
REMARK   13  A    between atoms: C_14  and  C_20
REMARK   14  A    between atoms: C_17  and  C_24
REMARK                            x       y       z     vdW  Elec       q    Type
REMARK                         _______ _______ _______ _____ _____    ______ ____
ROOT
ATOM      1  O   UNL     1     -37.925  43.958 -10.441  0.00  0.00    +0.000 OA
ATOM      2  C   UNL     1     -36.515  44.125 -10.642  0.00  0.00    +0.000 C 
ATOM      3  C   UNL     1     -36.129  43.895 -12.135  0.00  0.00    +0.000 C 
ATOM      4  C   UNL     1     -36.607  42.525 -12.605  0.00  0.00    +0.000 C 
ATOM      5  C   UNL     1     -38.035  42.284 -12.218  0.00  0.00    +0.000 A 
ATOM      6  C   UNL     1     -38.593  43.005 -11.159  0.00  0.00    +0.000 A 
ATOM      7  C   UNL     1     -38.832  41.322 -12.857  0.00  0.00    +0.000 A 
ATOM      8  C   UNL     1     -39.914  42.781 -10.765  0.00  0.00    +0.000 A 
ATOM      9  C   UNL     1     -40.143  41.077 -12.458  0.00  0.00    +0.000 A 
ATOM     10  C   UNL     1     -40.677  41.816 -11.413  0.00  0.00    +0.000 A 
ENDROOT
BRANCH   2  11
ATOM     11  C   UNL     1     -35.667  43.238  -9.709  0.00  0.00    +0.000 A 
ATOM     12  C   UNL     1     -34.258  43.220  -9.819  0.00  0.00    +0.000 A 
ATOM     13  C   UNL     1     -36.265  42.436  -8.715  0.00  0.00    +0.000 A 
ATOM     14  C   UNL     1     -33.498  42.419  -8.973  0.00  0.00    +0.000 A 
ATOM     15  C   UNL     1     -35.493  41.624  -7.878  0.00  0.00    +0.000 A 
ATOM     16  C   UNL     1     -34.118  41.618  -8.020  0.00  0.00    +0.000 A 
BRANCH  14  17
ATOM     17  O   UNL     1     -32.134  42.383  -9.027  0.00  0.00    +0.000 OA
ATOM     18  H   UNL     1     -31.804  41.642  -8.479  0.00  0.00    +0.000 HD
ENDBRANCH  14  17
BRANCH  16  19
ATOM     19  O   UNL     1     -33.364  40.828  -7.200  0.00  0.00    +0.000 OA
ATOM     20  H   UNL     1     -32.794  41.457  -6.714  0.00  0.00    +0.000 HD
ENDBRANCH  16  19
ENDBRANCH   2  11
BRANCH   3  21
ATOM     21  O   UNL     1     -36.704  44.907 -13.010  0.00  0.00    +0.000 OA
ATOM     22  H   UNL     1     -36.509  44.594 -13.916  0.00  0.00    +0.000 HD
ENDBRANCH   3  21
BRANCH   4  23
ATOM     23  O   UNL     1     -36.479  42.438 -14.035  0.00  0.00    +0.000 OA
ATOM     24  H   UNL     1     -35.665  41.903 -14.170  0.00  0.00    +0.000 HD
ENDBRANCH   4  23
BRANCH   7  25
ATOM     25  O   UNL     1     -38.364  40.590 -13.915  0.00  0.00    +0.000 OA
ATOM     26  H   UNL     1     -37.440  40.332 -13.702  0.00  0.00    +0.000 HD
ENDBRANCH   7  25
BRANCH  10  27
ATOM     27  O   UNL     1     -41.959  41.624 -10.988  0.00  0.00    +0.000 OA
ATOM     28  H   UNL     1     -42.540  42.226 -11.482  0.00  0.00    +0.000 HD
ENDBRANCH  10  27
BRANCH   2  29
ATOM     29  O   UNL     1     -36.189  45.528 -10.430  0.00  0.00    +0.000 OA
BRANCH  29  31
ATOM     30  O   UNL     1     -37.153  48.020  -7.863  0.00  0.00    +0.000 OA
ATOM     31  C   UNL     1     -37.115  46.305  -9.646  0.00  0.00    +0.000 C 
ATOM     32  C   UNL     1     -36.304  47.260  -8.735  0.00  0.00    +0.000 C 
ATOM     33  C   UNL     1     -38.020  47.169 -10.529  0.00  0.00    +0.000 C 
ATOM     34  C   UNL     1     -38.633  48.317  -9.775  0.00  0.00    +0.000 A 
ATOM     35  C   UNL     1     -38.173  48.669  -8.502  0.00  0.00    +0.000 A 
ATOM     36  C   UNL     1     -39.676  49.063 -10.337  0.00  0.00    +0.000 A 
ATOM     37  C   UNL     1     -38.770  49.711  -7.789  0.00  0.00    +0.000 A 
ATOM     38  C   UNL     1     -40.269  50.114  -9.642  0.00  0.00    +0.000 A 
ATOM     39  C   UNL     1     -39.812  50.426  -8.368  0.00  0.00    +0.000 A 
BRANCH  32  40
ATOM     40  C   UNL     1     -35.325  46.488  -7.862  0.00  0.00    +0.000 A 
ATOM     41  C   UNL     1     -35.781  45.634  -6.846  0.00  0.00    +0.000 A 
ATOM     42  C   UNL     1     -33.944  46.560  -8.123  0.00  0.00    +0.000 A 
ATOM     43  C   UNL     1     -34.876  44.839  -6.146  0.00  0.00    +0.000 A 
ATOM     44  C   UNL     1     -33.039  45.775  -7.404  0.00  0.00    +0.000 A 
ATOM     45  C   UNL     1     -33.512  44.904  -6.428  0.00  0.00    +0.000 A 
BRANCH  43  46
ATOM     46  O   UNL     1     -35.323  43.937  -5.223  0.00  0.00    +0.000 OA
ATOM     47  H   UNL     1     -36.201  44.212  -4.909  0.00  0.00    +0.000 HD
ENDBRANCH  43  46
BRANCH  45  48
ATOM     48  O   UNL     1     -32.653  44.082  -5.757  0.00  0.00    +0.000 OA
ATOM     49  H   UNL     1     -32.019  44.624  -5.259  0.00  0.00    +0.000 HD
ENDBRANCH  45  48
ENDBRANCH  32  40
BRANCH  36  50
ATOM     50  O   UNL     1     -40.111  48.737 -11.591  0.00  0.00    +0.000 OA
ATOM     51  H   UNL     1     -39.690  47.903 -11.863  0.00  0.00    +0.000 HD
ENDBRANCH  36  50
BRANCH  39  52
ATOM     52  O   UNL     1     -40.419  51.456  -7.710  0.00  0.00    +0.000 OA
ATOM     53  H   UNL     1     -40.216  51.383  -6.762  0.00  0.00    +0.000 HD
ENDBRANCH  39  52
ENDBRANCH  29  31
ENDBRANCH   2  29
TORSDOF 14
ENDMDL
MODEL 7
REMARK VINA RESULT:      -5.9     17.302     20.404
REMARK  Name = 
REMARK  14 active torsions:
REMARK  status: ('A' for Active; 'I' for Inactive)
REMARK    1  A    between atoms: O_1  and  C_14
REMARK    2  A    between atoms: O_1  and  C_15
REMARK    3  A    between atoms: O_4  and  C_16
REMARK    4  A    between atoms: O_5  and  C_18
REMARK    5  A    between atoms: O_6  and  C_26
REMARK    6  A    between atoms: O_7  and  C_29
REMARK    7  A    between atoms: O_8  and  C_35
REMARK    8  A    between atoms: O_9  and  C_36
REMARK    9  A    between atoms: O_10  and  C_39
REMARK   10  A    between atoms: O_11  and  C_40
REMARK   11  A    between atoms: O_12  and  C_41
REMARK   12  A    between atoms: O_13  and  C_43
REMARK   13  A    between atoms: C_14  and  C_20
REMARK   14  A    between atoms: C_17  and  C_24
REMARK                            x       y       z     vdW  Elec       q    Type
REMARK                         _______ _______ _______ _____ _____    ______ ____
ROOT
ATOM      1  O   UNL     1     -35.890  47.914 -17.068  0.00  0.00    +0.000 OA
ATOM      2  C   UNL     1     -34.730  47.440 -17.766  0.00  0.00    +0.000 C 
ATOM      3  C   UNL     1     -33.994  48.607 -18.490  0.00  0.00    +0.000 C 
ATOM      4  C   UNL     1     -34.950  49.346 -19.421  0.00  0.00    +0.000 C 
ATOM      5  C   UNL     1     -36.241  49.669 -18.732  0.00  0.00    +0.000 A 
ATOM      6  C   UNL     1     -36.629  48.927 -17.613  0.00  0.00    +0.000 A 
ATOM      7  C   UNL     1     -37.108  50.670 -19.195  0.00  0.00    +0.000 A 
ATOM      8  C   UNL     1     -37.839  49.193 -16.968  0.00  0.00    +0.000 A 
ATOM      9  C   UNL     1     -38.325  50.930 -18.571  0.00  0.00    +0.000 A 
ATOM     10  C   UNL     1     -38.679  50.188 -17.454  0.00  0.00    +0.000 A 
ENDROOT
BRANCH   2  11
ATOM     11  C   UNL     1     -35.047  46.294 -18.747  0.00  0.00    +0.000 A 
ATOM     12  C   UNL     1     -34.143  45.962 -19.781  0.00  0.00    +0.000 A 
ATOM     13  C   UNL     1     -36.233  45.538 -18.635  0.00  0.00    +0.000 A 
ATOM     14  C   UNL     1     -34.435  44.925 -20.662  0.00  0.00    +0.000 A 
ATOM     15  C   UNL     1     -36.523  44.507 -19.534  0.00  0.00    +0.000 A 
ATOM     16  C   UNL     1     -35.624  44.215 -20.543  0.00  0.00    +0.000 A 
BRANCH  14  17
ATOM     17  O   UNL     1     -33.583  44.554 -21.664  0.00  0.00    +0.000 OA
ATOM     18  H   UNL     1     -33.459  45.302 -22.282  0.00  0.00    +0.000 HD
ENDBRANCH  14  17
BRANCH  16  19
ATOM     19  O   UNL     1     -35.905  43.206 -21.419  0.00  0.00    +0.000 OA
ATOM     20  H   UNL     1     -35.133  42.607 -21.355  0.00  0.00    +0.000 HD
ENDBRANCH  16  19
ENDBRANCH   2  11
BRANCH   3  21
ATOM     21  O   UNL     1     -33.436  49.568 -17.549  0.00  0.00    +0.000 OA
ATOM     22  H   UNL     1     -34.209  50.058 -17.202  0.00  0.00    +0.000 HD
ENDBRANCH   3  21
BRANCH   4  23
ATOM     23  O   UNL     1     -34.333  50.565 -19.873  0.00  0.00    +0.000 OA
ATOM     24  H   UNL     1     -34.543  50.597 -20.833  0.00  0.00    +0.000 HD
ENDBRANCH   4  23
BRANCH   7  25
ATOM     25  O   UNL     1     -36.789  51.454 -20.272  0.00  0.00    +0.000 OA
ATOM     26  H   UNL     1     -37.562  52.034 -20.447  0.00  0.00    +0.000 HD
ENDBRANCH   7  25
BRANCH  10  27
ATOM     27  O   UNL     1     -39.856  50.406 -16.799  0.00  0.00    +0.000 OA
ATOM     28  H   UNL     1     -40.315  51.146 -17.232  0.00  0.00    +0.000 HD
ENDBRANCH  10  27
BRANCH   2  29
ATOM     29  O   UNL     1     -33.756  46.997 -16.780  0.00  0.00    +0.000 OA
BRANCH  29  31
ATOM     30  O   UNL     1     -33.224  43.953 -14.735  0.00  0.00    +0.000 OA
ATOM     31  C   UNL     1     -34.153  45.929 -15.898  0.00  0.00    +0.000 C 
ATOM     32  C   UNL     1     -32.900  45.087 -15.552  0.00  0.00    +0.000 C 
ATOM     33  C   UNL     1     -34.727  46.464 -14.582  0.00  0.00    +0.000 C 
ATOM     34  C   UNL     1     -34.692  45.439 -13.482  0.00  0.00    +0.000 A 
ATOM     35  C   UNL     1     -33.956  44.258 -13.621  0.00  0.00    +0.000 A 
ATOM     36  C   UNL     1     -35.394  45.650 -12.289  0.00  0.00    +0.000 A 
ATOM     37  C   UNL     1     -33.958  43.291 -12.613  0.00  0.00    +0.000 A 
ATOM     38  C   UNL     1     -35.391  44.701 -11.270  0.00  0.00    +0.000 A 
ATOM     39  C   UNL     1     -34.675  43.524 -11.445  0.00  0.00    +0.000 A 
BRANCH  32  40
ATOM     40  C   UNL     1     -32.223  44.565 -16.812  0.00  0.00    +0.000 A 
ATOM     41  C   UNL     1     -30.989  45.083 -17.237  0.00  0.00    +0.000 A 
ATOM     42  C   UNL     1     -32.793  43.493 -17.522  0.00  0.00    +0.000 A 
ATOM     43  C   UNL     1     -30.327  44.503 -18.316  0.00  0.00    +0.000 A 
ATOM     44  C   UNL     1     -32.133  42.928 -18.616  0.00  0.00    +0.000 A 
ATOM     45  C   UNL     1     -30.892  43.427 -18.999  0.00  0.00    +0.000 A 
BRANCH  43  46
ATOM     46  O   UNL     1     -29.083  44.940 -18.674  0.00  0.00    +0.000 OA
ATOM     47  H   UNL     1     -28.442  44.222 -18.536  0.00  0.00    +0.000 HD
ENDBRANCH  43  46
BRANCH  45  48
ATOM     48  O   UNL     1     -30.200  42.851 -20.025  0.00  0.00    +0.000 OA
ATOM     49  H   UNL     1     -30.332  43.375 -20.832  0.00  0.00    +0.000 HD
ENDBRANCH  45  48
ENDBRANCH  32  40
BRANCH  36  50
ATOM     50  O   UNL     1     -36.094  46.815 -12.141  0.00  0.00    +0.000 OA
ATOM     51  H   UNL     1     -35.964  47.364 -12.933  0.00  0.00    +0.000 HD
ENDBRANCH  36  50
BRANCH  39  52
ATOM     52  O   UNL     1     -34.698  42.610 -10.431  0.00  0.00    +0.000 OA
ATOM     53  H   UNL     1     -35.177  41.820 -10.734  0.00  0.00    +0.000 HD
ENDBRANCH  39  52
ENDBRANCH  29  31
ENDBRANCH   2  29
TORSDOF 14
ENDMDL
MODEL 8
REMARK VINA RESULT:      -5.9     21.005     23.310
REMARK  Name = 
REMARK  14 active torsions:
REMARK  status: ('A' for Active; 'I' for Inactive)
REMARK    1  A    between atoms: O_1  and  C_14
REMARK    2  A    between atoms: O_1  and  C_15
REMARK    3  A    between atoms: O_4  and  C_16
REMARK    4  A    between atoms: O_5  and  C_18
REMARK    5  A    between atoms: O_6  and  C_26
REMARK    6  A    between atoms: O_7  and  C_29
REMARK    7  A    between atoms: O_8  and  C_35
REMARK    8  A    between atoms: O_9  and  C_36
REMARK    9  A    between atoms: O_10  and  C_39
REMARK   10  A    between atoms: O_11  and  C_40
REMARK   11  A    between atoms: O_12  and  C_41
REMARK   12  A    between atoms: O_13  and  C_43
REMARK   13  A    between atoms: C_14  and  C_20
REMARK   14  A    between atoms: C_17  and  C_24
REMARK                            x       y       z     vdW  Elec       q    Type
REMARK                         _______ _______ _______ _____ _____    ______ ____
ROOT
ATOM      1  O   UNL     1     -34.263  44.664 -13.415  0.00  0.00    +0.000 OA
ATOM      2  C   UNL     1     -35.688  44.499 -13.410  0.00  0.00    +0.000 C 
ATOM      3  C   UNL     1     -36.111  43.246 -14.235  0.00  0.00    +0.000 C 
ATOM      4  C   UNL     1     -35.559  43.330 -15.655  0.00  0.00    +0.000 C 
ATOM      5  C   UNL     1     -34.105  43.694 -15.653  0.00  0.00    +0.000 A 
ATOM      6  C   UNL     1     -33.559  44.344 -14.543  0.00  0.00    +0.000 A 
ATOM      7  C   UNL     1     -33.269  43.443 -16.751  0.00  0.00    +0.000 A 
ATOM      8  C   UNL     1     -32.212  44.714 -14.527  0.00  0.00    +0.000 A 
ATOM      9  C   UNL     1     -31.930  43.826 -16.754  0.00  0.00    +0.000 A 
ATOM     10  C   UNL     1     -31.410  44.457 -15.634  0.00  0.00    +0.000 A 
ENDROOT
BRANCH   2  11
ATOM     11  C   UNL     1     -36.440  45.756 -13.889  0.00  0.00    +0.000 A 
ATOM     12  C   UNL     1     -35.772  46.996 -13.998  0.00  0.00    +0.000 A 
ATOM     13  C   UNL     1     -37.804  45.704 -14.245  0.00  0.00    +0.000 A 
ATOM     14  C   UNL     1     -36.456  48.126 -14.433  0.00  0.00    +0.000 A 
ATOM     15  C   UNL     1     -38.487  46.848 -14.668  0.00  0.00    +0.000 A 
ATOM     16  C   UNL     1     -37.807  48.050 -14.751  0.00  0.00    +0.000 A 
BRANCH  14  17
ATOM     17  O   UNL     1     -35.849  49.342 -14.574  0.00  0.00    +0.000 OA
ATOM     18  H   UNL     1     -35.117  49.269 -15.219  0.00  0.00    +0.000 HD
ENDBRANCH  14  17
BRANCH  16  19
ATOM     19  O   UNL     1     -38.473  49.167 -15.168  0.00  0.00    +0.000 OA
ATOM     20  H   UNL     1     -39.355  49.094 -14.751  0.00  0.00    +0.000 HD
ENDBRANCH  16  19
ENDBRANCH   2  11
BRANCH   3  21
ATOM     21  O   UNL     1     -35.638  42.008 -13.631  0.00  0.00    +0.000 OA
ATOM     22  H   UNL     1     -34.713  41.919 -13.936  0.00  0.00    +0.000 HD
ENDBRANCH   3  21
BRANCH   4  23
ATOM     23  O   UNL     1     -35.733  42.063 -16.312  0.00  0.00    +0.000 OA
ATOM     24  H   UNL     1     -36.704  41.913 -16.290  0.00  0.00    +0.000 HD
ENDBRANCH   4  23
BRANCH   7  25
ATOM     25  O   UNL     1     -33.725  42.792 -17.866  0.00  0.00    +0.000 OA
ATOM     26  H   UNL     1     -32.942  42.602 -18.430  0.00  0.00    +0.000 HD
ENDBRANCH   7  25
BRANCH  10  27
ATOM     27  O   UNL     1     -30.104  44.846 -15.579  0.00  0.00    +0.000 OA
ATOM     28  H   UNL     1     -29.818  45.088 -16.476  0.00  0.00    +0.000 HD
ENDBRANCH  10  27
BRANCH   2  29
ATOM     29  O   UNL     1     -36.100  44.156 -12.056  0.00  0.00    +0.000 OA
BRANCH  29  31
ATOM     30  O   UNL     1     -36.023  45.942  -8.811  0.00  0.00    +0.000 OA
ATOM     31  C   UNL     1     -35.476  44.880 -10.978  0.00  0.00    +0.000 C 
ATOM     32  C   UNL     1     -36.545  45.155  -9.891  0.00  0.00    +0.000 C 
ATOM     33  C   UNL     1     -34.354  44.068 -10.324  0.00  0.00    +0.000 C 
ATOM     34  C   UNL     1     -34.025  44.555  -8.940  0.00  0.00    +0.000 A 
ATOM     35  C   UNL     1     -34.864  45.453  -8.273  0.00  0.00    +0.000 A 
ATOM     36  C   UNL     1     -32.869  44.111  -8.285  0.00  0.00    +0.000 A 
ATOM     37  C   UNL     1     -34.535  45.933  -7.003  0.00  0.00    +0.000 A 
ATOM     38  C   UNL     1     -32.538  44.570  -7.012  0.00  0.00    +0.000 A 
ATOM     39  C   UNL     1     -33.374  45.484  -6.384  0.00  0.00    +0.000 A 
BRANCH  32  40
ATOM     40  C   UNL     1     -37.737  45.906 -10.469  0.00  0.00    +0.000 A 
ATOM     41  C   UNL     1     -38.961  45.257 -10.692  0.00  0.00    +0.000 A 
ATOM     42  C   UNL     1     -37.645  47.289 -10.709  0.00  0.00    +0.000 A 
ATOM     43  C   UNL     1     -40.073  45.990 -11.099  0.00  0.00    +0.000 A 
ATOM     44  C   UNL     1     -38.760  48.016 -11.136  0.00  0.00    +0.000 A 
ATOM     45  C   UNL     1     -39.975  47.364 -11.314  0.00  0.00    +0.000 A 
BRANCH  43  46
ATOM     46  O   UNL     1     -41.290  45.382 -11.226  0.00  0.00    +0.000 OA
ATOM     47  H   UNL     1     -41.936  45.844 -10.667  0.00  0.00    +0.000 HD
ENDBRANCH  43  46
BRANCH  45  48
ATOM     48  O   UNL     1     -41.092  48.065 -11.669  0.00  0.00    +0.000 OA
ATOM     49  H   UNL     1     -41.611  48.261 -10.871  0.00  0.00    +0.000 HD
ENDBRANCH  45  48
ENDBRANCH  32  40
BRANCH  36  50
ATOM     50  O   UNL     1     -32.060  43.214  -8.924  0.00  0.00    +0.000 OA
ATOM     51  H   UNL     1     -31.645  42.636  -8.261  0.00  0.00    +0.000 HD
ENDBRANCH  36  50
BRANCH  39  52
ATOM     52  O   UNL     1     -33.019  45.919  -5.140  0.00  0.00    +0.000 OA
ATOM     53  H   UNL     1     -32.250  45.405  -4.838  0.00  0.00    +0.000 HD
ENDBRANCH  39  52
ENDBRANCH  29  31
ENDBRANCH   2  29
TORSDOF 14
ENDMDL
MODEL 9
REMARK VINA RESULT:      -5.9     35.035     38.423
REMARK  Name = 
REMARK  14 active torsions:
REMARK  status: ('A' for Active; 'I' for Inactive)
REMARK    1  A    between atoms: O_1  and  C_14
REMARK    2  A    between atoms: O_1  and  C_15
REMARK    3  A    between atoms: O_4  and  C_16
REMARK    4  A    between atoms: O_5  and  C_18
REMARK    5  A    between atoms: O_6  and  C_26
REMARK    6  A    between atoms: O_7  and  C_29
REMARK    7  A    between atoms: O_8  and  C_35
REMARK    8  A    between atoms: O_9  and  C_36
REMARK    9  A    between atoms: O_10  and  C_39
REMARK   10  A    between atoms: O_11  and  C_40
REMARK   11  A    between atoms: O_12  and  C_41
REMARK   12  A    between atoms: O_13  and  C_43
REMARK   13  A    between atoms: C_14  and  C_20
REMARK   14  A    between atoms: C_17  and  C_24
REMARK                            x       y       z     vdW  Elec       q    Type
REMARK                         _______ _______ _______ _____ _____    ______ ____
ROOT
ATOM      1  O   UNL     1     -33.616  47.772   8.236  0.00  0.00    +0.000 OA
ATOM      2  C   UNL     1     -33.021  48.779   9.065  0.00  0.00    +0.000 C 
ATOM      3  C   UNL     1     -34.081  49.436  10.000  0.00  0.00    +0.000 C 
ATOM      4  C   UNL     1     -35.243  49.993   9.183  0.00  0.00    +0.000 C 
ATOM      5  C   UNL     1     -35.734  48.991   8.181  0.00  0.00    +0.000 A 
ATOM      6  C   UNL     1     -34.887  47.958   7.768  0.00  0.00    +0.000 A 
ATOM      7  C   UNL     1     -37.010  49.073   7.604  0.00  0.00    +0.000 A 
ATOM      8  C   UNL     1     -35.314  47.027   6.818  0.00  0.00    +0.000 A 
ATOM      9  C   UNL     1     -37.437  48.161   6.642  0.00  0.00    +0.000 A 
ATOM     10  C   UNL     1     -36.582  47.138   6.260  0.00  0.00    +0.000 A 
ENDROOT
BRANCH   2  11
ATOM     11  C   UNL     1     -32.259  49.848   8.258  0.00  0.00    +0.000 A 
ATOM     12  C   UNL     1     -31.842  49.589   6.933  0.00  0.00    +0.000 A 
ATOM     13  C   UNL     1     -31.969  51.115   8.807  0.00  0.00    +0.000 A 
ATOM     14  C   UNL     1     -31.157  50.559   6.209  0.00  0.00    +0.000 A 
ATOM     15  C   UNL     1     -31.268  52.079   8.077  0.00  0.00    +0.000 A 
ATOM     16  C   UNL     1     -30.862  51.789   6.787  0.00  0.00    +0.000 A 
BRANCH  14  17
ATOM     17  O   UNL     1     -30.752  50.363   4.919  0.00  0.00    +0.000 OA
ATOM     18  H   UNL     1     -31.244  50.966   4.327  0.00  0.00    +0.000 HD
ENDBRANCH  14  17
BRANCH  16  19
ATOM     19  O   UNL     1     -30.181  52.731   6.072  0.00  0.00    +0.000 OA
ATOM     20  H   UNL     1     -30.082  52.336   5.182  0.00  0.00    +0.000 HD
ENDBRANCH  16  19
ENDBRANCH   2  11
BRANCH   3  21
ATOM     21  O   UNL     1     -34.615  48.490  10.970  0.00  0.00    +0.000 OA
ATOM     22  H   UNL     1     -35.516  48.283  10.649  0.00  0.00    +0.000 HD
ENDBRANCH   3  21
BRANCH   4  23
ATOM     23  O   UNL     1     -36.320  50.353  10.064  0.00  0.00    +0.000 OA
ATOM     24  H   UNL     1     -36.786  51.077   9.590  0.00  0.00    +0.000 HD
ENDBRANCH   4  23
BRANCH   7  25
ATOM     25  O   UNL     1     -37.903  50.043   7.972  0.00  0.00    +0.000 OA
ATOM     26  H   UNL     1     -37.428  50.902   7.937  0.00  0.00    +0.000 HD
ENDBRANCH   7  25
BRANCH  10  27
ATOM     27  O   UNL     1     -36.952  46.212   5.329  0.00  0.00    +0.000 OA
ATOM     28  H   UNL     1     -37.903  46.040   5.429  0.00  0.00    +0.000 HD
ENDBRANCH  10  27
BRANCH   2  29
ATOM     29  O   UNL     1     -32.119  48.123  10.000  0.00  0.00    +0.000 OA
BRANCH  29  31
ATOM     30  O   UNL     1     -29.103  45.994   9.686  0.00  0.00    +0.000 OA
ATOM     31  C   UNL     1     -31.350  47.012   9.500  0.00  0.00    +0.000 C 
ATOM     32  C   UNL     1     -29.962  47.027  10.187  0.00  0.00    +0.000 C 
ATOM     33  C   UNL     1     -32.012  45.670   9.829  0.00  0.00    +0.000 C 
ATOM     34  C   UNL     1     -31.042  44.522   9.770  0.00  0.00    +0.000 A 
ATOM     35  C   UNL     1     -29.664  44.746   9.700  0.00  0.00    +0.000 A 
ATOM     36  C   UNL     1     -31.502  43.199   9.790  0.00  0.00    +0.000 A 
ATOM     37  C   UNL     1     -28.769  43.677   9.606  0.00  0.00    +0.000 A 
ATOM     38  C   UNL     1     -30.619  42.125   9.714  0.00  0.00    +0.000 A 
ATOM     39  C   UNL     1     -29.256  42.376   9.616  0.00  0.00    +0.000 A 
BRANCH  32  40
ATOM     40  C   UNL     1     -29.254  48.357   9.966  0.00  0.00    +0.000 A 
ATOM     41  C   UNL     1     -28.798  48.730   8.692  0.00  0.00    +0.000 A 
ATOM     42  C   UNL     1     -29.123  49.268  11.030  0.00  0.00    +0.000 A 
ATOM     43  C   UNL     1     -28.271  50.003   8.487  0.00  0.00    +0.000 A 
ATOM     44  C   UNL     1     -28.575  50.536  10.822  0.00  0.00    +0.000 A 
ATOM     45  C   UNL     1     -28.166  50.904   9.545  0.00  0.00    +0.000 A 
BRANCH  43  46
ATOM     46  O   UNL     1     -27.915  50.406   7.231  0.00  0.00    +0.000 OA
ATOM     47  H   UNL     1     -27.038  50.823   7.268  0.00  0.00    +0.000 HD
ENDBRANCH  43  46
BRANCH  45  48
ATOM     48  O   UNL     1     -27.686  52.160   9.306  0.00  0.00    +0.000 OA
ATOM     49  H   UNL     1     -27.677  52.660  10.139  0.00  0.00    +0.000 HD
ENDBRANCH  45  48
ENDBRANCH  32  40
BRANCH  36  50
ATOM     50  O   UNL     1     -32.848  42.977   9.884  0.00  0.00    +0.000 OA
ATOM     51  H   UNL     1     -33.107  43.006  10.821  0.00  0.00    +0.000 HD
ENDBRANCH  36  50
BRANCH  39  52
ATOM     52  O   UNL     1     -28.418  41.302   9.534  0.00  0.00    +0.000 OA
ATOM     53  H   UNL     1     -28.888  40.514   9.856  0.00  0.00    +0.000 HD
ENDBRANCH  39  52
ENDBRANCH  29  31
ENDBRANCH   2  29
TORSDOF 14
ENDMDL
