MODEL 1
REMARK VINA RESULT:      -6.5      0.000      0.000
REMARK  Name = Progesterone.pdbqt.pdb
REMARK  1 active torsions:
REMARK  status: ('A' for Active; 'I' for Inactive)
REMARK    1  A    between atoms: C_7  and  C_21
REMARK                            x       y       z     vdW  Elec       q    Type
REMARK                         _______ _______ _______ _____ _____    ______ ____
ROOT
ATOM      1  O   UNL     1     -22.887  52.832  10.183  0.00  0.00    +0.000 OA
ATOM      2  C   UNL     1     -16.607  50.878   6.265  0.00  0.00    +0.000 C 
ATOM      3  C   UNL     1     -16.355  51.372   4.739  0.00  0.00    +0.000 C 
ATOM      4  C   UNL     1     -17.435  51.641   7.219  0.00  0.00    +0.000 C 
ATOM      5  C   UNL     1     -18.353  52.782   6.878  0.00  0.00    +0.000 C 
ATOM      6  C   UNL     1     -19.108  53.626   7.929  0.00  0.00    +0.000 C 
ATOM      7  C   UNL     1     -16.486  50.104   3.950  0.00  0.00    +0.000 C 
ATOM      8  C   UNL     1     -17.409  52.361   4.508  0.00  0.00    +0.000 C 
ATOM      9  C   UNL     1     -18.332  53.050   5.482  0.00  0.00    +0.000 C 
ATOM     10  C   UNL     1     -16.667  49.448   6.242  0.00  0.00    +0.000 C 
ATOM     11  C   UNL     1     -17.538  51.251   8.574  0.00  0.00    +0.000 C 
ATOM     12  C   UNL     1     -16.621  48.979   4.813  0.00  0.00    +0.000 C 
ATOM     13  C   UNL     1     -19.302  52.899   9.405  0.00  0.00    +0.000 C 
ATOM     14  C   UNL     1     -14.916  51.935   4.688  0.00  0.00    +0.000 C 
ATOM     15  C   UNL     1     -18.414  51.822   9.648  0.00  0.00    +0.000 C 
ATOM     16  C   UNL     1     -20.523  53.862   7.489  0.00  0.00    +0.000 C 
ATOM     17  C   UNL     1     -18.351  54.958   8.175  0.00  0.00    +0.000 C 
ATOM     18  C   UNL     1     -21.887  53.654   8.185  0.00  0.00    +0.000 C 
ATOM     19  C   UNL     1     -20.522  52.814   9.892  0.00  0.00    +0.000 C 
ATOM     20  C   UNL     1     -21.902  53.086   9.519  0.00  0.00    +0.000 C 
ENDROOT
BRANCH   7  21
ATOM     21  C   UNL     1     -16.433  50.041   2.510  0.00  0.00    +0.000 C 
ATOM     22  O   UNL     1     -17.284  50.479   1.754  0.00  0.00    +0.000 OA
ATOM     23  C   UNL     1     -15.268  49.508   1.741  0.00  0.00    +0.000 C 
ENDBRANCH   7  21
TORSDOF 1
ENDMDL
MODEL 2
REMARK VINA RESULT:      -5.9     29.355     33.683
REMARK  Name = Progesterone.pdbqt.pdb
REMARK  1 active torsions:
REMARK  status: ('A' for Active; 'I' for Inactive)
REMARK    1  A    between atoms: C_7  and  C_21
REMARK                            x       y       z     vdW  Elec       q    Type
REMARK                         _______ _______ _______ _____ _____    ______ ____
ROOT
ATOM      1  O   UNL     1     -17.136  56.496 -21.036  0.00  0.00    +0.000 OA
ATOM      2  C   UNL     1     -16.831  53.486 -28.069  0.00  0.00    +0.000 C 
ATOM      3  C   UNL     1     -17.018  54.394 -29.403  0.00  0.00    +0.000 C 
ATOM      4  C   UNL     1     -16.318  54.039 -26.800  0.00  0.00    +0.000 C 
ATOM      5  C   UNL     1     -16.160  55.498 -26.471  0.00  0.00    +0.000 C 
ATOM      6  C   UNL     1     -15.507  56.024 -25.173  0.00  0.00    +0.000 C 
ATOM      7  C   UNL     1     -18.341  53.932 -29.938  0.00  0.00    +0.000 C 
ATOM      8  C   UNL     1     -16.994  55.768 -28.903  0.00  0.00    +0.000 C 
ATOM      9  C   UNL     1     -16.577  56.312 -27.559  0.00  0.00    +0.000 C 
ATOM     10  C   UNL     1     -17.890  52.524 -28.060  0.00  0.00    +0.000 C 
ATOM     11  C   UNL     1     -16.051  53.202 -25.692  0.00  0.00    +0.000 C 
ATOM     12  C   UNL     1     -18.832  52.821 -29.196  0.00  0.00    +0.000 C 
ATOM     13  C   UNL     1     -15.475  54.944 -23.917  0.00  0.00    +0.000 C 
ATOM     14  C   UNL     1     -15.855  54.028 -30.353  0.00  0.00    +0.000 C 
ATOM     15  C   UNL     1     -15.648  53.592 -24.302  0.00  0.00    +0.000 C 
ATOM     16  C   UNL     1     -16.307  57.162 -24.611  0.00  0.00    +0.000 C 
ATOM     17  C   UNL     1     -14.037  56.435 -25.455  0.00  0.00    +0.000 C 
ATOM     18  C   UNL     1     -16.891  57.441 -23.208  0.00  0.00    +0.000 C 
ATOM     19  C   UNL     1     -15.986  55.327 -22.766  0.00  0.00    +0.000 C 
ATOM     20  C   UNL     1     -16.712  56.441 -22.174  0.00  0.00    +0.000 C 
ENDROOT
BRANCH   7  21
ATOM     21  C   UNL     1     -18.995  54.516 -31.084  0.00  0.00    +0.000 C 
ATOM     22  O   UNL     1     -19.430  55.654 -31.142  0.00  0.00    +0.000 OA
ATOM     23  C   UNL     1     -19.143  53.826 -32.400  0.00  0.00    +0.000 C 
ENDBRANCH   7  21
TORSDOF 1
ENDMDL
MODEL 3
REMARK VINA RESULT:      -5.7     27.154     29.526
REMARK  Name = Progesterone.pdbqt.pdb
REMARK  1 active torsions:
REMARK  status: ('A' for Active; 'I' for Inactive)
REMARK    1  A    between atoms: C_7  and  C_21
REMARK                            x       y       z     vdW  Elec       q    Type
REMARK                         _______ _______ _______ _____ _____    ______ ____
ROOT
ATOM      1  O   UNL     1     -34.869  50.568 -19.484  0.00  0.00    +0.000 OA
ATOM      2  C   UNL     1     -31.702  43.628 -18.835  0.00  0.00    +0.000 C 
ATOM      3  C   UNL     1     -31.144  43.066 -17.417  0.00  0.00    +0.000 C 
ATOM      4  C   UNL     1     -32.783  44.630 -18.919  0.00  0.00    +0.000 C 
ATOM      5  C   UNL     1     -33.318  45.452 -17.780  0.00  0.00    +0.000 C 
ATOM      6  C   UNL     1     -34.531  46.402 -17.895  0.00  0.00    +0.000 C 
ATOM      7  C   UNL     1     -29.659  43.038 -17.630  0.00  0.00    +0.000 C 
ATOM      8  C   UNL     1     -31.615  44.044 -16.437  0.00  0.00    +0.000 C 
ATOM      9  C   UNL     1     -32.640  45.143 -16.569  0.00  0.00    +0.000 C 
ATOM     10  C   UNL     1     -30.590  43.690 -19.733  0.00  0.00    +0.000 C 
ATOM     11  C   UNL     1     -33.331  45.011 -20.165  0.00  0.00    +0.000 C 
ATOM     12  C   UNL     1     -29.332  43.354 -18.979  0.00  0.00    +0.000 C 
ATOM     13  C   UNL     1     -34.888  46.899 -19.435  0.00  0.00    +0.000 C 
ATOM     14  C   UNL     1     -31.726  41.643 -17.246  0.00  0.00    +0.000 C 
ATOM     15  C   UNL     1     -34.335  46.086 -20.456  0.00  0.00    +0.000 C 
ATOM     16  C   UNL     1     -34.250  47.695 -17.188  0.00  0.00    +0.000 C 
ATOM     17  C   UNL     1     -35.800  45.704 -17.339  0.00  0.00    +0.000 C 
ATOM     18  C   UNL     1     -34.357  49.174 -17.623  0.00  0.00    +0.000 C 
ATOM     19  C   UNL     1     -34.975  48.193 -19.658  0.00  0.00    +0.000 C 
ATOM     20  C   UNL     1     -34.768  49.466 -18.982  0.00  0.00    +0.000 C 
ENDROOT
BRANCH   7  21
ATOM     21  C   UNL     1     -28.705  42.691 -16.605  0.00  0.00    +0.000 C 
ATOM     22  O   UNL     1     -28.382  43.406 -15.672  0.00  0.00    +0.000 OA
ATOM     23  C   UNL     1     -28.048  41.354 -16.498  0.00  0.00    +0.000 C 
ENDBRANCH   7  21
TORSDOF 1
ENDMDL
MODEL 4
REMARK VINA RESULT:      -5.7     22.691     24.868
REMARK  Name = Progesterone.pdbqt.pdb
REMARK  1 active torsions:
REMARK  status: ('A' for Active; 'I' for Inactive)
REMARK    1  A    between atoms: C_7  and  C_21
REMARK                            x       y       z     vdW  Elec       q    Type
REMARK                         _______ _______ _______ _____ _____    ______ ____
ROOT
ATOM      1  O   UNL     1     -37.505  42.416 -14.325  0.00  0.00    +0.000 OA
ATOM      2  C   UNL     1     -34.708  45.814  -8.060  0.00  0.00    +0.000 C 
ATOM      3  C   UNL     1     -33.408  45.238  -7.277  0.00  0.00    +0.000 C 
ATOM      4  C   UNL     1     -34.931  45.584  -9.501  0.00  0.00    +0.000 C 
ATOM      5  C   UNL     1     -34.185  44.606 -10.367  0.00  0.00    +0.000 C 
ATOM      6  C   UNL     1     -34.375  44.487 -11.896  0.00  0.00    +0.000 C 
ATOM      7  C   UNL     1     -33.988  44.737  -5.987  0.00  0.00    +0.000 C 
ATOM      8  C   UNL     1     -32.886  44.202  -8.168  0.00  0.00    +0.000 C 
ATOM      9  C   UNL     1     -33.208  43.902  -9.611  0.00  0.00    +0.000 C 
ATOM     10  C   UNL     1     -35.808  45.770  -7.146  0.00  0.00    +0.000 C 
ATOM     11  C   UNL     1     -36.007  46.198 -10.182  0.00  0.00    +0.000 C 
ATOM     12  C   UNL     1     -35.366  45.081  -5.882  0.00  0.00    +0.000 C 
ATOM     13  C   UNL     1     -35.805  45.090 -12.474  0.00  0.00    +0.000 C 
ATOM     14  C   UNL     1     -32.460  46.439  -7.052  0.00  0.00    +0.000 C 
ATOM     15  C   UNL     1     -36.459  45.991 -11.597  0.00  0.00    +0.000 C 
ATOM     16  C   UNL     1     -34.435  43.044 -12.303  0.00  0.00    +0.000 C 
ATOM     17  C   UNL     1     -33.235  45.245 -12.626  0.00  0.00    +0.000 C 
ATOM     18  C   UNL     1     -35.441  42.235 -13.153  0.00  0.00    +0.000 C 
ATOM     19  C   UNL     1     -36.553  44.295 -13.210  0.00  0.00    +0.000 C 
ATOM     20  C   UNL     1     -36.611  42.916 -13.672  0.00  0.00    +0.000 C 
ENDROOT
BRANCH   7  21
ATOM     21  C   UNL     1     -33.228  44.043  -4.977  0.00  0.00    +0.000 C 
ATOM     22  O   UNL     1     -32.473  44.571  -4.178  0.00  0.00    +0.000 OA
ATOM     23  C   UNL     1     -33.340  42.579  -4.709  0.00  0.00    +0.000 C 
ENDBRANCH   7  21
TORSDOF 1
ENDMDL
MODEL 5
REMARK VINA RESULT:      -5.7     23.888     25.709
REMARK  Name = Progesterone.pdbqt.pdb
REMARK  1 active torsions:
REMARK  status: ('A' for Active; 'I' for Inactive)
REMARK    1  A    between atoms: C_7  and  C_21
REMARK                            x       y       z     vdW  Elec       q    Type
REMARK                         _______ _______ _______ _____ _____    ______ ____
ROOT
ATOM      1  O   UNL     1     -22.916  66.626  -9.668  0.00  0.00    +0.000 OA
ATOM      2  C   UNL     1     -30.174  67.270 -12.018  0.00  0.00    +0.000 C 
ATOM      3  C   UNL     1     -31.265  66.091 -11.777  0.00  0.00    +0.000 C 
ATOM      4  C   UNL     1     -29.005  67.459 -11.137  0.00  0.00    +0.000 C 
ATOM      5  C   UNL     1     -28.508  66.486 -10.103  0.00  0.00    +0.000 C 
ATOM      6  C   UNL     1     -27.351  66.783  -9.124  0.00  0.00    +0.000 C 
ATOM      7  C   UNL     1     -31.516  65.579 -13.164  0.00  0.00    +0.000 C 
ATOM      8  C   UNL     1     -30.584  65.155 -10.881  0.00  0.00    +0.000 C 
ATOM      9  C   UNL     1     -29.321  65.320 -10.073  0.00  0.00    +0.000 C 
ATOM     10  C   UNL     1     -30.046  67.445 -13.432  0.00  0.00    +0.000 C 
ATOM     11  C   UNL     1     -28.139  68.566 -11.298  0.00  0.00    +0.000 C 
ATOM     12  C   UNL     1     -30.851  66.384 -14.132  0.00  0.00    +0.000 C 
ATOM     13  C   UNL     1     -26.321  67.990  -9.600  0.00  0.00    +0.000 C 
ATOM     14  C   UNL     1     -32.520  66.766 -11.178  0.00  0.00    +0.000 C 
ATOM     15  C   UNL     1     -26.852  68.857 -10.587  0.00  0.00    +0.000 C 
ATOM     16  C   UNL     1     -26.441  65.595  -9.017  0.00  0.00    +0.000 C 
ATOM     17  C   UNL     1     -27.926  67.195  -7.743  0.00  0.00    +0.000 C 
ATOM     18  C   UNL     1     -24.911  65.430  -9.156  0.00  0.00    +0.000 C 
ATOM     19  C   UNL     1     -25.035  67.716  -9.647  0.00  0.00    +0.000 C 
ATOM     20  C   UNL     1     -24.118  66.597  -9.492  0.00  0.00    +0.000 C 
ENDROOT
BRANCH   7  21
ATOM     21  C   UNL     1     -32.359  64.448 -13.466  0.00  0.00    +0.000 C 
ATOM     22  O   UNL     1     -32.054  63.516 -14.191  0.00  0.00    +0.000 OA
ATOM     23  C   UNL     1     -33.698  64.218 -12.846  0.00  0.00    +0.000 C 
ENDBRANCH   7  21
TORSDOF 1
ENDMDL
MODEL 6
REMARK VINA RESULT:      -5.6      5.492      7.612
REMARK  Name = Progesterone.pdbqt.pdb
REMARK  1 active torsions:
REMARK  status: ('A' for Active; 'I' for Inactive)
REMARK    1  A    between atoms: C_7  and  C_21
REMARK                            x       y       z     vdW  Elec       q    Type
REMARK                         _______ _______ _______ _____ _____    ______ ____
ROOT
ATOM      1  O   UNL     1     -14.241  42.783   5.826  0.00  0.00    +0.000 OA
ATOM      2  C   UNL     1     -15.907  50.003   3.899  0.00  0.00    +0.000 C 
ATOM      3  C   UNL     1     -15.734  50.551   2.380  0.00  0.00    +0.000 C 
ATOM      4  C   UNL     1     -16.160  48.581   4.205  0.00  0.00    +0.000 C 
ATOM      5  C   UNL     1     -16.029  47.433   3.244  0.00  0.00    +0.000 C 
ATOM      6  C   UNL     1     -16.421  45.976   3.580  0.00  0.00    +0.000 C 
ATOM      7  C   UNL     1     -14.584  51.506   2.498  0.00  0.00    +0.000 C 
ATOM      8  C   UNL     1     -15.465  49.345   1.597  0.00  0.00    +0.000 C 
ATOM      9  C   UNL     1     -15.617  47.889   1.961  0.00  0.00    +0.000 C 
ATOM     10  C   UNL     1     -15.032  50.774   4.729  0.00  0.00    +0.000 C 
ATOM     11  C   UNL     1     -16.427  48.153   5.526  0.00  0.00    +0.000 C 
ATOM     12  C   UNL     1     -14.200  51.676   3.858  0.00  0.00    +0.000 C 
ATOM     13  C   UNL     1     -16.479  45.622   5.197  0.00  0.00    +0.000 C 
ATOM     14  C   UNL     1     -17.050  51.278   2.020  0.00  0.00    +0.000 C 
ATOM     15  C   UNL     1     -16.585  46.755   6.042  0.00  0.00    +0.000 C 
ATOM     16  C   UNL     1     -15.377  45.026   3.071  0.00  0.00    +0.000 C 
ATOM     17  C   UNL     1     -17.823  45.661   2.995  0.00  0.00    +0.000 C 
ATOM     18  C   UNL     1     -14.587  43.879   3.740  0.00  0.00    +0.000 C 
ATOM     19  C   UNL     1     -15.774  44.597   5.627  0.00  0.00    +0.000 C 
ATOM     20  C   UNL     1     -14.804  43.622   5.150  0.00  0.00    +0.000 C 
ENDROOT
BRANCH   7  21
ATOM     21  C   UNL     1     -13.986  52.190   1.377  0.00  0.00    +0.000 C 
ATOM     22  O   UNL     1     -13.051  51.772   0.715  0.00  0.00    +0.000 OA
ATOM     23  C   UNL     1     -14.502  53.472   0.812  0.00  0.00    +0.000 C 
ENDBRANCH   7  21
TORSDOF 1
ENDMDL
MODEL 7
REMARK VINA RESULT:      -5.5     31.739     36.597
REMARK  Name = Progesterone.pdbqt.pdb
REMARK  1 active torsions:
REMARK  status: ('A' for Active; 'I' for Inactive)
REMARK    1  A    between atoms: C_7  and  C_21
REMARK                            x       y       z     vdW  Elec       q    Type
REMARK                         _______ _______ _______ _____ _____    ______ ____
ROOT
ATOM      1  O   UNL     1     -17.502  52.561 -35.480  0.00  0.00    +0.000 OA
ATOM      2  C   UNL     1     -17.560  52.866 -27.831  0.00  0.00    +0.000 C 
ATOM      3  C   UNL     1     -16.257  53.329 -26.978  0.00  0.00    +0.000 C 
ATOM      4  C   UNL     1     -17.802  53.319 -29.214  0.00  0.00    +0.000 C 
ATOM      5  C   UNL     1     -16.810  54.014 -30.105  0.00  0.00    +0.000 C 
ATOM      6  C   UNL     1     -17.150  54.575 -31.504  0.00  0.00    +0.000 C 
ATOM      7  C   UNL     1     -15.831  52.059 -26.303  0.00  0.00    +0.000 C 
ATOM      8  C   UNL     1     -15.332  53.837 -27.991  0.00  0.00    +0.000 C 
ATOM      9  C   UNL     1     -15.566  54.188 -29.439  0.00  0.00    +0.000 C 
ATOM     10  C   UNL     1     -17.856  51.518 -27.452  0.00  0.00    +0.000 C 
ATOM     11  C   UNL     1     -19.003  52.998 -29.889  0.00  0.00    +0.000 C 
ATOM     12  C   UNL     1     -16.773  51.018 -26.534  0.00  0.00    +0.000 C 
ATOM     13  C   UNL     1     -18.492  53.915 -32.217  0.00  0.00    +0.000 C 
ATOM     14  C   UNL     1     -16.749  54.384 -25.959  0.00  0.00    +0.000 C 
ATOM     15  C   UNL     1     -19.372  53.263 -31.318  0.00  0.00    +0.000 C 
ATOM     16  C   UNL     1     -16.060  54.240 -32.479  0.00  0.00    +0.000 C 
ATOM     17  C   UNL     1     -17.392  56.105 -31.411  0.00  0.00    +0.000 C 
ATOM     18  C   UNL     1     -16.068  53.579 -33.876  0.00  0.00    +0.000 C 
ATOM     19  C   UNL     1     -18.359  53.410 -33.425  0.00  0.00    +0.000 C 
ATOM     20  C   UNL     1     -17.334  53.125 -34.417  0.00  0.00    +0.000 C 
ENDROOT
BRANCH   7  21
ATOM     21  C   UNL     1     -14.644  51.937 -25.492  0.00  0.00    +0.000 C 
ATOM     22  O   UNL     1     -13.512  51.788 -25.919  0.00  0.00    +0.000 OA
ATOM     23  C   UNL     1     -14.633  52.074 -24.005  0.00  0.00    +0.000 C 
ENDBRANCH   7  21
TORSDOF 1
ENDMDL
MODEL 8
REMARK VINA RESULT:      -5.4     23.507     25.172
REMARK  Name = Progesterone.pdbqt.pdb
REMARK  1 active torsions:
REMARK  status: ('A' for Active; 'I' for Inactive)
REMARK    1  A    between atoms: C_7  and  C_21
REMARK                            x       y       z     vdW  Elec       q    Type
REMARK                         _______ _______ _______ _____ _____    ______ ____
ROOT
ATOM      1  O   UNL     1     -34.562  42.829  -4.627  0.00  0.00    +0.000 OA
ATOM      2  C   UNL     1     -34.813  44.866 -12.003  0.00  0.00    +0.000 C 
ATOM      3  C   UNL     1     -35.933  45.894 -12.575  0.00  0.00    +0.000 C 
ATOM      4  C   UNL     1     -34.362  44.888 -10.598  0.00  0.00    +0.000 C 
ATOM      5  C   UNL     1     -35.021  45.629  -9.468  0.00  0.00    +0.000 C 
ATOM      6  C   UNL     1     -34.441  45.717  -8.039  0.00  0.00    +0.000 C 
ATOM      7  C   UNL     1     -36.790  45.011 -13.434  0.00  0.00    +0.000 C 
ATOM      8  C   UNL     1     -36.584  46.414 -11.372  0.00  0.00    +0.000 C 
ATOM      9  C   UNL     1     -36.171  46.330  -9.924  0.00  0.00    +0.000 C 
ATOM     10  C   UNL     1     -34.998  43.619 -12.681  0.00  0.00    +0.000 C 
ATOM     11  C   UNL     1     -33.300  44.064 -10.158  0.00  0.00    +0.000 C 
ATOM     12  C   UNL     1     -36.232  43.706 -13.538  0.00  0.00    +0.000 C 
ATOM     13  C   UNL     1     -33.356  44.528  -7.648  0.00  0.00    +0.000 C 
ATOM     14  C   UNL     1     -35.177  46.951 -13.412  0.00  0.00    +0.000 C 
ATOM     15  C   UNL     1     -32.789  43.863  -8.763  0.00  0.00    +0.000 C 
ATOM     16  C   UNL     1     -35.528  45.520  -7.023  0.00  0.00    +0.000 C 
ATOM     17  C   UNL     1     -33.714  47.075  -7.850  0.00  0.00    +0.000 C 
ATOM     18  C   UNL     1     -35.664  44.584  -5.800  0.00  0.00    +0.000 C 
ATOM     19  C   UNL     1     -33.584  43.823  -6.560  0.00  0.00    +0.000 C 
ATOM     20  C   UNL     1     -34.592  43.648  -5.525  0.00  0.00    +0.000 C 
ENDROOT
BRANCH   7  21
ATOM     21  C   UNL     1     -37.992  45.454 -14.097  0.00  0.00    +0.000 C 
ATOM     22  O   UNL     1     -39.125  45.308 -13.672  0.00  0.00    +0.000 OA
ATOM     23  C   UNL     1     -38.001  46.244 -15.364  0.00  0.00    +0.000 C 
ENDBRANCH   7  21
TORSDOF 1
ENDMDL
MODEL 9
REMARK VINA RESULT:      -5.3     26.417     27.911
REMARK  Name = Progesterone.pdbqt.pdb
REMARK  1 active torsions:
REMARK  status: ('A' for Active; 'I' for Inactive)
REMARK    1  A    between atoms: C_7  and  C_21
REMARK                            x       y       z     vdW  Elec       q    Type
REMARK                         _______ _______ _______ _____ _____    ______ ____
ROOT
ATOM      1  O   UNL     1     -27.143  66.007  -8.402  0.00  0.00    +0.000 OA
ATOM      2  C   UNL     1     -28.747  67.511 -15.735  0.00  0.00    +0.000 C 
ATOM      3  C   UNL     1     -30.096  66.961 -16.452  0.00  0.00    +0.000 C 
ATOM      4  C   UNL     1     -28.664  67.753 -14.281  0.00  0.00    +0.000 C 
ATOM      5  C   UNL     1     -29.657  67.294 -13.250  0.00  0.00    +0.000 C 
ATOM      6  C   UNL     1     -29.587  67.675 -11.755  0.00  0.00    +0.000 C 
ATOM      7  C   UNL     1     -29.570  65.947 -17.423  0.00  0.00    +0.000 C 
ATOM      8  C   UNL     1     -30.887  66.415 -15.348  0.00  0.00    +0.000 C 
ATOM      9  C   UNL     1     -30.723  66.574 -13.857  0.00  0.00    +0.000 C 
ATOM     10  C   UNL     1     -27.634  66.946 -16.436  0.00  0.00    +0.000 C 
ATOM     11  C   UNL     1     -27.518  68.345 -13.703  0.00  0.00    +0.000 C 
ATOM     12  C   UNL     1     -28.146  65.962 -17.454  0.00  0.00    +0.000 C 
ATOM     13  C   UNL     1     -28.093  68.154 -11.222  0.00  0.00    +0.000 C 
ATOM     14  C   UNL     1     -30.737  68.169 -17.174  0.00  0.00    +0.000 C 
ATOM     15  C   UNL     1     -27.206  68.555 -12.251  0.00  0.00    +0.000 C 
ATOM     16  C   UNL     1     -29.874  66.476 -10.898  0.00  0.00    +0.000 C 
ATOM     17  C   UNL     1     -30.568  68.841 -11.463  0.00  0.00    +0.000 C 
ATOM     18  C   UNL     1     -29.126  65.833  -9.709  0.00  0.00    +0.000 C 
ATOM     19  C   UNL     1     -27.585  67.533 -10.178  0.00  0.00    +0.000 C 
ATOM     20  C   UNL     1     -27.864  66.413  -9.292  0.00  0.00    +0.000 C 
ENDROOT
BRANCH   7  21
ATOM     21  C   UNL     1     -30.407  65.106 -18.244  0.00  0.00    +0.000 C 
ATOM     22  O   UNL     1     -30.827  64.006 -17.927  0.00  0.00    +0.000 OA
ATOM     23  C   UNL     1     -30.955  65.518 -19.571  0.00  0.00    +0.000 C 
ENDBRANCH   7  21
TORSDOF 1
ENDMDL
