MODEL 1
REMARK VINA RESULT:      -6.2      0.000      0.000
REMARK  Name = Quercetin.pdbqt.pdb
REMARK  6 active torsions:
REMARK  status: ('A' for Active; 'I' for Inactive)
REMARK    1  A    between atoms: C_5  and  C_12
REMARK    2  A    between atoms: C_6  and  O_22
REMARK    3  A    between atoms: C_8  and  O_24
REMARK    4  A    between atoms: C_10  and  O_26
REMARK    5  A    between atoms: C_15  and  O_18
REMARK    6  A    between atoms: C_17  and  O_20
REMARK                            x       y       z     vdW  Elec       q    Type
REMARK                         _______ _______ _______ _____ _____    ______ ____
ROOT
ATOM      1  O   UNL     1     -35.994  46.363  -7.310  0.00  0.00    +0.000 OA
ATOM      2  O   UNL     1     -33.408  44.968 -10.119  0.00  0.00    +0.000 OA
ATOM      3  C   UNL     1     -33.903  45.264  -7.861  0.00  0.00    +0.000 A 
ATOM      4  C   UNL     1     -34.821  45.762  -6.942  0.00  0.00    +0.000 A 
ATOM      5  C   UNL     1     -36.298  46.470  -8.660  0.00  0.00    +0.000 A 
ATOM      6  C   UNL     1     -35.497  46.043  -9.660  0.00  0.00    +0.000 A 
ATOM      7  C   UNL     1     -34.208  45.392  -9.289  0.00  0.00    +0.000 A 
ATOM      8  C   UNL     1     -32.721  44.662  -7.412  0.00  0.00    +0.000 A 
ATOM      9  C   UNL     1     -34.567  45.663  -5.576  0.00  0.00    +0.000 A 
ATOM     10  C   UNL     1     -33.390  45.062  -5.140  0.00  0.00    +0.000 A 
ATOM     11  C   UNL     1     -32.463  44.560  -6.048  0.00  0.00    +0.000 A 
ENDROOT
BRANCH   5  12
ATOM     12  C   UNL     1     -37.599  47.116  -8.882  0.00  0.00    +0.000 A 
ATOM     13  C   UNL     1     -38.693  46.386  -9.358  0.00  0.00    +0.000 A 
ATOM     14  C   UNL     1     -37.767  48.468  -8.555  0.00  0.00    +0.000 A 
ATOM     15  C   UNL     1     -39.921  47.013  -9.524  0.00  0.00    +0.000 A 
ATOM     16  C   UNL     1     -39.005  49.090  -8.706  0.00  0.00    +0.000 A 
ATOM     17  C   UNL     1     -40.081  48.350  -9.176  0.00  0.00    +0.000 A 
BRANCH  15  18
ATOM     18  O   UNL     1     -40.952  46.305 -10.066  0.00  0.00    +0.000 OA
ATOM     19  H   UNL     1     -41.513  46.003  -9.327  0.00  0.00    +0.000 HD
ENDBRANCH  15  18
BRANCH  17  20
ATOM     20  O   UNL     1     -41.305  48.946  -9.269  0.00  0.00    +0.000 OA
ATOM     21  H   UNL     1     -41.907  48.286  -9.660  0.00  0.00    +0.000 HD
ENDBRANCH  17  20
ENDBRANCH   5  12
BRANCH   6  22
ATOM     22  O   UNL     1     -35.763  46.176 -11.010  0.00  0.00    +0.000 OA
ATOM     23  H   UNL     1     -36.308  45.435 -11.318  0.00  0.00    +0.000 HD
ENDBRANCH   6  22
BRANCH   8  24
ATOM     24  O   UNL     1     -31.773  44.153  -8.259  0.00  0.00    +0.000 OA
ATOM     25  H   UNL     1     -31.726  44.732  -9.054  0.00  0.00    +0.000 HD
ENDBRANCH   8  24
BRANCH  10  26
ATOM     26  O   UNL     1     -33.163  44.977  -3.798  0.00  0.00    +0.000 OA
ATOM     27  H   UNL     1     -33.049  44.037  -3.569  0.00  0.00    +0.000 HD
ENDBRANCH  10  26
TORSDOF 6
ENDMDL
MODEL 2
REMARK VINA RESULT:      -6.2      7.645     11.388
REMARK  Name = Quercetin.pdbqt.pdb
REMARK  6 active torsions:
REMARK  status: ('A' for Active; 'I' for Inactive)
REMARK    1  A    between atoms: C_5  and  C_12
REMARK    2  A    between atoms: C_6  and  O_22
REMARK    3  A    between atoms: C_8  and  O_24
REMARK    4  A    between atoms: C_10  and  O_26
REMARK    5  A    between atoms: C_15  and  O_18
REMARK    6  A    between atoms: C_17  and  O_20
REMARK                            x       y       z     vdW  Elec       q    Type
REMARK                         _______ _______ _______ _____ _____    ______ ____
ROOT
ATOM      1  O   UNL     1     -32.866  46.174 -17.427  0.00  0.00    +0.000 OA
ATOM      2  O   UNL     1     -34.916  47.926 -14.385  0.00  0.00    +0.000 OA
ATOM      3  C   UNL     1     -34.378  47.904 -16.654  0.00  0.00    +0.000 A 
ATOM      4  C   UNL     1     -33.653  47.269 -17.656  0.00  0.00    +0.000 A 
ATOM      5  C   UNL     1     -32.794  45.656 -16.142  0.00  0.00    +0.000 A 
ATOM      6  C   UNL     1     -33.432  46.177 -15.071  0.00  0.00    +0.000 A 
ATOM      7  C   UNL     1     -34.292  47.375 -15.289  0.00  0.00    +0.000 A 
ATOM      8  C   UNL     1     -35.164  49.022 -16.960  0.00  0.00    +0.000 A 
ATOM      9  C   UNL     1     -33.707  47.743 -18.965  0.00  0.00    +0.000 A 
ATOM     10  C   UNL     1     -34.491  48.853 -19.260  0.00  0.00    +0.000 A 
ATOM     11  C   UNL     1     -35.221  49.499 -18.267  0.00  0.00    +0.000 A 
ENDROOT
BRANCH   5  12
ATOM     12  C   UNL     1     -31.927  44.471 -16.072  0.00  0.00    +0.000 A 
ATOM     13  C   UNL     1     -30.535  44.594 -16.123  0.00  0.00    +0.000 A 
ATOM     14  C   UNL     1     -32.498  43.205 -15.889  0.00  0.00    +0.000 A 
ATOM     15  C   UNL     1     -29.739  43.461 -16.018  0.00  0.00    +0.000 A 
ATOM     16  C   UNL     1     -31.695  42.072 -15.767  0.00  0.00    +0.000 A 
ATOM     17  C   UNL     1     -30.315  42.212 -15.815  0.00  0.00    +0.000 A 
BRANCH  15  18
ATOM     18  O   UNL     1     -28.388  43.593 -16.153  0.00  0.00    +0.000 OA
ATOM     19  H   UNL     1     -28.166  44.515 -15.925  0.00  0.00    +0.000 HD
ENDBRANCH  15  18
BRANCH  17  20
ATOM     20  O   UNL     1     -29.531  41.109 -15.639  0.00  0.00    +0.000 OA
ATOM     21  H   UNL     1     -29.615  40.856 -14.700  0.00  0.00    +0.000 HD
ENDBRANCH  17  20
ENDBRANCH   5  12
BRANCH   6  22
ATOM     22  O   UNL     1     -33.342  45.700 -13.777  0.00  0.00    +0.000 OA
ATOM     23  H   UNL     1     -32.454  45.861 -13.421  0.00  0.00    +0.000 HD
ENDBRANCH   6  22
BRANCH   8  24
ATOM     24  O   UNL     1     -35.901  49.697 -16.025  0.00  0.00    +0.000 OA
ATOM     25  H   UNL     1     -36.272  50.506 -16.449  0.00  0.00    +0.000 HD
ENDBRANCH   8  24
BRANCH  10  26
ATOM     26  O   UNL     1     -34.527  49.298 -20.549  0.00  0.00    +0.000 OA
ATOM     27  H   UNL     1     -33.948  50.079 -20.616  0.00  0.00    +0.000 HD
ENDBRANCH  10  26
TORSDOF 6
ENDMDL
MODEL 3
REMARK VINA RESULT:      -5.8      9.384     11.175
REMARK  Name = Quercetin.pdbqt.pdb
REMARK  6 active torsions:
REMARK  status: ('A' for Active; 'I' for Inactive)
REMARK    1  A    between atoms: C_5  and  C_12
REMARK    2  A    between atoms: C_6  and  O_22
REMARK    3  A    between atoms: C_8  and  O_24
REMARK    4  A    between atoms: C_10  and  O_26
REMARK    5  A    between atoms: C_15  and  O_18
REMARK    6  A    between atoms: C_17  and  O_20
REMARK                            x       y       z     vdW  Elec       q    Type
REMARK                         _______ _______ _______ _____ _____    ______ ____
ROOT
ATOM      1  O   UNL     1     -33.667  47.289 -18.690  0.00  0.00    +0.000 OA
ATOM      2  O   UNL     1     -35.078  48.582 -15.104  0.00  0.00    +0.000 OA
ATOM      3  C   UNL     1     -33.738  47.077 -16.276  0.00  0.00    +0.000 A 
ATOM      4  C   UNL     1     -33.289  46.673 -17.528  0.00  0.00    +0.000 A 
ATOM      5  C   UNL     1     -34.524  48.377 -18.624  0.00  0.00    +0.000 A 
ATOM      6  C   UNL     1     -35.048  48.870 -17.481  0.00  0.00    +0.000 A 
ATOM      7  C   UNL     1     -34.660  48.213 -16.199  0.00  0.00    +0.000 A 
ATOM      8  C   UNL     1     -33.310  46.398 -15.127  0.00  0.00    +0.000 A 
ATOM      9  C   UNL     1     -32.413  45.595 -17.643  0.00  0.00    +0.000 A 
ATOM     10  C   UNL     1     -31.994  44.929 -16.496  0.00  0.00    +0.000 A 
ATOM     11  C   UNL     1     -32.436  45.321 -15.237  0.00  0.00    +0.000 A 
ENDROOT
BRANCH   5  12
ATOM     12  C   UNL     1     -34.810  48.935 -19.954  0.00  0.00    +0.000 A 
ATOM     13  C   UNL     1     -35.413  50.189 -20.093  0.00  0.00    +0.000 A 
ATOM     14  C   UNL     1     -34.419  48.231 -21.100  0.00  0.00    +0.000 A 
ATOM     15  C   UNL     1     -35.638  50.709 -21.361  0.00  0.00    +0.000 A 
ATOM     16  C   UNL     1     -34.631  48.763 -22.371  0.00  0.00    +0.000 A 
ATOM     17  C   UNL     1     -35.227  50.011 -22.491  0.00  0.00    +0.000 A 
BRANCH  15  18
ATOM     18  O   UNL     1     -36.301  51.895 -21.477  0.00  0.00    +0.000 OA
ATOM     19  H   UNL     1     -36.382  52.266 -20.578  0.00  0.00    +0.000 HD
ENDBRANCH  15  18
BRANCH  17  20
ATOM     20  O   UNL     1     -35.382  50.554 -23.733  0.00  0.00    +0.000 OA
ATOM     21  H   UNL     1     -34.833  51.360 -23.754  0.00  0.00    +0.000 HD
ENDBRANCH  17  20
ENDBRANCH   5  12
BRANCH   6  22
ATOM     22  O   UNL     1     -35.934  49.927 -17.397  0.00  0.00    +0.000 OA
ATOM     23  H   UNL     1     -36.373  49.930 -16.532  0.00  0.00    +0.000 HD
ENDBRANCH   6  22
BRANCH   8  24
ATOM     24  O   UNL     1     -33.713  46.739 -13.864  0.00  0.00    +0.000 OA
ATOM     25  H   UNL     1     -33.494  47.688 -13.715  0.00  0.00    +0.000 HD
ENDBRANCH   8  24
BRANCH  10  26
ATOM     26  O   UNL     1     -31.137  43.876 -16.635  0.00  0.00    +0.000 OA
ATOM     27  H   UNL     1     -30.328  44.076 -16.131  0.00  0.00    +0.000 HD
ENDBRANCH  10  26
TORSDOF 6
ENDMDL
MODEL 4
REMARK VINA RESULT:      -5.8     13.268     15.366
REMARK  Name = Quercetin.pdbqt.pdb
REMARK  6 active torsions:
REMARK  status: ('A' for Active; 'I' for Inactive)
REMARK    1  A    between atoms: C_5  and  C_12
REMARK    2  A    between atoms: C_6  and  O_22
REMARK    3  A    between atoms: C_8  and  O_24
REMARK    4  A    between atoms: C_10  and  O_26
REMARK    5  A    between atoms: C_15  and  O_18
REMARK    6  A    between atoms: C_17  and  O_20
REMARK                            x       y       z     vdW  Elec       q    Type
REMARK                         _______ _______ _______ _____ _____    ______ ____
ROOT
ATOM      1  O   UNL     1     -34.363  48.405 -21.984  0.00  0.00    +0.000 OA
ATOM      2  O   UNL     1     -36.466  51.673 -20.794  0.00  0.00    +0.000 OA
ATOM      3  C   UNL     1     -35.228  49.792 -20.193  0.00  0.00    +0.000 A 
ATOM      4  C   UNL     1     -34.522  48.686 -20.655  0.00  0.00    +0.000 A 
ATOM      5  C   UNL     1     -34.914  49.266 -22.923  0.00  0.00    +0.000 A 
ATOM      6  C   UNL     1     -35.633  50.368 -22.620  0.00  0.00    +0.000 A 
ATOM      7  C   UNL     1     -35.830  50.695 -21.179  0.00  0.00    +0.000 A 
ATOM      8  C   UNL     1     -35.352  50.017 -18.817  0.00  0.00    +0.000 A 
ATOM      9  C   UNL     1     -33.938  47.802 -19.750  0.00  0.00    +0.000 A 
ATOM     10  C   UNL     1     -34.066  48.036 -18.385  0.00  0.00    +0.000 A 
ATOM     11  C   UNL     1     -34.769  49.137 -17.909  0.00  0.00    +0.000 A 
ENDROOT
BRANCH   5  12
ATOM     12  C   UNL     1     -34.632  48.834 -24.299  0.00  0.00    +0.000 A 
ATOM     13  C   UNL     1     -33.926  49.658 -25.182  0.00  0.00    +0.000 A 
ATOM     14  C   UNL     1     -35.021  47.555 -24.718  0.00  0.00    +0.000 A 
ATOM     15  C   UNL     1     -33.642  49.209 -26.465  0.00  0.00    +0.000 A 
ATOM     16  C   UNL     1     -34.719  47.101 -26.001  0.00  0.00    +0.000 A 
ATOM     17  C   UNL     1     -34.014  47.930 -26.863  0.00  0.00    +0.000 A 
BRANCH  15  18
ATOM     18  O   UNL     1     -33.025  50.059 -27.336  0.00  0.00    +0.000 OA
ATOM     19  H   UNL     1     -32.607  50.761 -26.802  0.00  0.00    +0.000 HD
ENDBRANCH  15  18
BRANCH  17  20
ATOM     20  O   UNL     1     -33.670  47.463 -28.098  0.00  0.00    +0.000 OA
ATOM     21  H   UNL     1     -34.218  47.950 -28.741  0.00  0.00    +0.000 HD
ENDBRANCH  17  20
ENDBRANCH   5  12
BRANCH   6  22
ATOM     22  O   UNL     1     -36.223  51.215 -23.538  0.00  0.00    +0.000 OA
ATOM     23  H   UNL     1     -35.979  50.954 -24.440  0.00  0.00    +0.000 HD
ENDBRANCH   6  22
BRANCH   8  24
ATOM     24  O   UNL     1     -36.033  51.082 -18.292  0.00  0.00    +0.000 OA
ATOM     25  H   UNL     1     -36.972  51.024 -18.585  0.00  0.00    +0.000 HD
ENDBRANCH   8  24
BRANCH  10  26
ATOM     26  O   UNL     1     -33.484  47.156 -17.519  0.00  0.00    +0.000 OA
ATOM     27  H   UNL     1     -33.303  46.330 -18.003  0.00  0.00    +0.000 HD
ENDBRANCH  10  26
TORSDOF 6
ENDMDL
MODEL 5
REMARK VINA RESULT:      -5.7      5.587      8.820
REMARK  Name = Quercetin.pdbqt.pdb
REMARK  6 active torsions:
REMARK  status: ('A' for Active; 'I' for Inactive)
REMARK    1  A    between atoms: C_5  and  C_12
REMARK    2  A    between atoms: C_6  and  O_22
REMARK    3  A    between atoms: C_8  and  O_24
REMARK    4  A    between atoms: C_10  and  O_26
REMARK    5  A    between atoms: C_15  and  O_18
REMARK    6  A    between atoms: C_17  and  O_20
REMARK                            x       y       z     vdW  Elec       q    Type
REMARK                         _______ _______ _______ _____ _____    ______ ____
ROOT
ATOM      1  O   UNL     1     -34.677  46.410 -14.153  0.00  0.00    +0.000 OA
ATOM      2  O   UNL     1     -32.077  45.872 -17.231  0.00  0.00    +0.000 OA
ATOM      3  C   UNL     1     -33.828  47.108 -16.314  0.00  0.00    +0.000 A 
ATOM      4  C   UNL     1     -34.696  47.244 -15.237  0.00  0.00    +0.000 A 
ATOM      5  C   UNL     1     -33.740  45.388 -14.110  0.00  0.00    +0.000 A 
ATOM      6  C   UNL     1     -32.845  45.130 -15.088  0.00  0.00    +0.000 A 
ATOM      7  C   UNL     1     -32.848  46.018 -16.285  0.00  0.00    +0.000 A 
ATOM      8  C   UNL     1     -33.905  47.999 -17.392  0.00  0.00    +0.000 A 
ATOM      9  C   UNL     1     -35.644  48.266 -15.228  0.00  0.00    +0.000 A 
ATOM     10  C   UNL     1     -35.712  49.146 -16.303  0.00  0.00    +0.000 A 
ATOM     11  C   UNL     1     -34.850  49.021 -17.387  0.00  0.00    +0.000 A 
ENDROOT
BRANCH   5  12
ATOM     12  C   UNL     1     -33.838  44.601 -12.872  0.00  0.00    +0.000 A 
ATOM     13  C   UNL     1     -33.194  45.018 -11.702  0.00  0.00    +0.000 A 
ATOM     14  C   UNL     1     -34.636  43.451 -12.843  0.00  0.00    +0.000 A 
ATOM     15  C   UNL     1     -33.334  44.275 -10.537  0.00  0.00    +0.000 A 
ATOM     16  C   UNL     1     -34.788  42.717 -11.667  0.00  0.00    +0.000 A 
ATOM     17  C   UNL     1     -34.147  43.147 -10.514  0.00  0.00    +0.000 A 
BRANCH  15  18
ATOM     18  O   UNL     1     -32.632  44.653  -9.430  0.00  0.00    +0.000 OA
ATOM     19  H   UNL     1     -32.787  45.608  -9.305  0.00  0.00    +0.000 HD
ENDBRANCH  15  18
BRANCH  17  20
ATOM     20  O   UNL     1     -34.342  42.460  -9.352  0.00  0.00    +0.000 OA
ATOM     21  H   UNL     1     -34.395  43.126  -8.641  0.00  0.00    +0.000 HD
ENDBRANCH  17  20
ENDBRANCH   5  12
BRANCH   6  22
ATOM     22  O   UNL     1     -31.931  44.093 -15.082  0.00  0.00    +0.000 OA
ATOM     23  H   UNL     1     -31.837  43.734 -14.186  0.00  0.00    +0.000 HD
ENDBRANCH   6  22
BRANCH   8  24
ATOM     24  O   UNL     1     -33.085  47.923 -18.485  0.00  0.00    +0.000 OA
ATOM     25  H   UNL     1     -32.992  46.974 -18.737  0.00  0.00    +0.000 HD
ENDBRANCH   8  24
BRANCH  10  26
ATOM     26  O   UNL     1     -36.648  50.138 -16.270  0.00  0.00    +0.000 OA
ATOM     27  H   UNL     1     -36.235  50.956 -16.601  0.00  0.00    +0.000 HD
ENDBRANCH  10  26
TORSDOF 6
ENDMDL
MODEL 6
REMARK VINA RESULT:      -5.7      8.785     10.637
REMARK  Name = Quercetin.pdbqt.pdb
REMARK  6 active torsions:
REMARK  status: ('A' for Active; 'I' for Inactive)
REMARK    1  A    between atoms: C_5  and  C_12
REMARK    2  A    between atoms: C_6  and  O_22
REMARK    3  A    between atoms: C_8  and  O_24
REMARK    4  A    between atoms: C_10  and  O_26
REMARK    5  A    between atoms: C_15  and  O_18
REMARK    6  A    between atoms: C_17  and  O_20
REMARK                            x       y       z     vdW  Elec       q    Type
REMARK                         _______ _______ _______ _____ _____    ______ ____
ROOT
ATOM      1  O   UNL     1     -32.443  45.804 -18.461  0.00  0.00    +0.000 OA
ATOM      2  O   UNL     1     -30.886  44.541 -14.925  0.00  0.00    +0.000 OA
ATOM      3  C   UNL     1     -30.789  44.506 -17.254  0.00  0.00    +0.000 A 
ATOM      4  C   UNL     1     -31.363  44.965 -18.435  0.00  0.00    +0.000 A 
ATOM      5  C   UNL     1     -32.987  46.236 -17.261  0.00  0.00    +0.000 A 
ATOM      6  C   UNL     1     -32.542  45.862 -16.041  0.00  0.00    +0.000 A 
ATOM      7  C   UNL     1     -31.371  44.941 -15.981  0.00  0.00    +0.000 A 
ATOM      8  C   UNL     1     -29.684  43.647 -17.302  0.00  0.00    +0.000 A 
ATOM      9  C   UNL     1     -30.841  44.572 -19.665  0.00  0.00    +0.000 A 
ATOM     10  C   UNL     1     -29.743  43.719 -19.702  0.00  0.00    +0.000 A 
ATOM     11  C   UNL     1     -29.159  43.252 -18.529  0.00  0.00    +0.000 A 
ENDROOT
BRANCH   5  12
ATOM     12  C   UNL     1     -34.122  47.147 -17.465  0.00  0.00    +0.000 A 
ATOM     13  C   UNL     1     -33.920  48.521 -17.636  0.00  0.00    +0.000 A 
ATOM     14  C   UNL     1     -35.421  46.629 -17.552  0.00  0.00    +0.000 A 
ATOM     15  C   UNL     1     -35.008  49.354 -17.865  0.00  0.00    +0.000 A 
ATOM     16  C   UNL     1     -36.508  47.466 -17.799  0.00  0.00    +0.000 A 
ATOM     17  C   UNL     1     -36.290  48.825 -17.971  0.00  0.00    +0.000 A 
BRANCH  15  18
ATOM     18  O   UNL     1     -34.798  50.699 -17.947  0.00  0.00    +0.000 OA
ATOM     19  H   UNL     1     -33.941  50.882 -17.517  0.00  0.00    +0.000 HD
ENDBRANCH  15  18
BRANCH  17  20
ATOM     20  O   UNL     1     -37.348  49.634 -18.268  0.00  0.00    +0.000 OA
ATOM     21  H   UNL     1     -37.860  49.736 -17.445  0.00  0.00    +0.000 HD
ENDBRANCH  17  20
ENDBRANCH   5  12
BRANCH   6  22
ATOM     22  O   UNL     1     -33.094  46.249 -14.835  0.00  0.00    +0.000 OA
ATOM     23  H   UNL     1     -32.631  47.028 -14.489  0.00  0.00    +0.000 HD
ENDBRANCH   6  22
BRANCH   8  24
ATOM     24  O   UNL     1     -29.070  43.155 -16.182  0.00  0.00    +0.000 OA
ATOM     25  H   UNL     1     -29.164  43.820 -15.461  0.00  0.00    +0.000 HD
ENDBRANCH   8  24
BRANCH  10  26
ATOM     26  O   UNL     1     -29.250  43.348 -20.919  0.00  0.00    +0.000 OA
ATOM     27  H   UNL     1     -28.278  43.325 -20.858  0.00  0.00    +0.000 HD
ENDBRANCH  10  26
TORSDOF 6
ENDMDL
MODEL 7
REMARK VINA RESULT:      -5.7     25.909     28.180
REMARK  Name = Quercetin.pdbqt.pdb
REMARK  6 active torsions:
REMARK  status: ('A' for Active; 'I' for Inactive)
REMARK    1  A    between atoms: C_5  and  C_12
REMARK    2  A    between atoms: C_6  and  O_22
REMARK    3  A    between atoms: C_8  and  O_24
REMARK    4  A    between atoms: C_10  and  O_26
REMARK    5  A    between atoms: C_15  and  O_18
REMARK    6  A    between atoms: C_17  and  O_20
REMARK                            x       y       z     vdW  Elec       q    Type
REMARK                         _______ _______ _______ _____ _____    ______ ____
ROOT
ATOM      1  O   UNL     1     -17.379  54.729 -26.078  0.00  0.00    +0.000 OA
ATOM      2  O   UNL     1     -17.289  58.390 -27.842  0.00  0.00    +0.000 OA
ATOM      3  C   UNL     1     -17.880  56.139 -27.985  0.00  0.00    +0.000 A 
ATOM      4  C   UNL     1     -17.881  54.909 -27.337  0.00  0.00    +0.000 A 
ATOM      5  C   UNL     1     -16.856  55.821 -25.401  0.00  0.00    +0.000 A 
ATOM      6  C   UNL     1     -16.778  57.070 -25.911  0.00  0.00    +0.000 A 
ATOM      7  C   UNL     1     -17.311  57.295 -27.285  0.00  0.00    +0.000 A 
ATOM      8  C   UNL     1     -18.411  56.250 -29.277  0.00  0.00    +0.000 A 
ATOM      9  C   UNL     1     -18.411  53.786 -27.970  0.00  0.00    +0.000 A 
ATOM     10  C   UNL     1     -18.937  53.907 -29.252  0.00  0.00    +0.000 A 
ATOM     11  C   UNL     1     -18.941  55.131 -29.912  0.00  0.00    +0.000 A 
ENDROOT
BRANCH   5  12
ATOM     12  C   UNL     1     -16.382  55.463 -24.057  0.00  0.00    +0.000 A 
ATOM     13  C   UNL     1     -16.629  56.296 -22.961  0.00  0.00    +0.000 A 
ATOM     14  C   UNL     1     -15.727  54.241 -23.856  0.00  0.00    +0.000 A 
ATOM     15  C   UNL     1     -16.202  55.914 -21.695  0.00  0.00    +0.000 A 
ATOM     16  C   UNL     1     -15.315  53.854 -22.582  0.00  0.00    +0.000 A 
ATOM     17  C   UNL     1     -15.572  54.690 -21.505  0.00  0.00    +0.000 A 
BRANCH  15  18
ATOM     18  O   UNL     1     -16.381  56.778 -20.655  0.00  0.00    +0.000 OA
ATOM     19  H   UNL     1     -16.759  56.263 -19.918  0.00  0.00    +0.000 HD
ENDBRANCH  15  18
BRANCH  17  20
ATOM     20  O   UNL     1     -15.218  54.283 -20.251  0.00  0.00    +0.000 OA
ATOM     21  H   UNL     1     -15.492  54.993 -19.641  0.00  0.00    +0.000 HD
ENDBRANCH  17  20
ENDBRANCH   5  12
BRANCH   6  22
ATOM     22  O   UNL     1     -16.226  58.162 -25.269  0.00  0.00    +0.000 OA
ATOM     23  H   UNL     1     -16.753  58.957 -25.446  0.00  0.00    +0.000 HD
ENDBRANCH   6  22
BRANCH   8  24
ATOM     24  O   UNL     1     -18.440  57.427 -29.974  0.00  0.00    +0.000 OA
ATOM     25  H   UNL     1     -17.851  58.072 -29.518  0.00  0.00    +0.000 HD
ENDBRANCH   8  24
BRANCH  10  26
ATOM     26  O   UNL     1     -19.449  52.793 -29.851  0.00  0.00    +0.000 OA
ATOM     27  H   UNL     1     -20.079  52.380 -29.234  0.00  0.00    +0.000 HD
ENDBRANCH  10  26
TORSDOF 6
ENDMDL
MODEL 8
REMARK VINA RESULT:      -5.7      3.654      4.964
REMARK  Name = Quercetin.pdbqt.pdb
REMARK  6 active torsions:
REMARK  status: ('A' for Active; 'I' for Inactive)
REMARK    1  A    between atoms: C_5  and  C_12
REMARK    2  A    between atoms: C_6  and  O_22
REMARK    3  A    between atoms: C_8  and  O_24
REMARK    4  A    between atoms: C_10  and  O_26
REMARK    5  A    between atoms: C_15  and  O_18
REMARK    6  A    between atoms: C_17  and  O_20
REMARK                            x       y       z     vdW  Elec       q    Type
REMARK                         _______ _______ _______ _____ _____    ______ ____
ROOT
ATOM      1  O   UNL     1     -34.335  43.613  -8.193  0.00  0.00    +0.000 OA
ATOM      2  O   UNL     1     -32.458  46.065  -5.549  0.00  0.00    +0.000 OA
ATOM      3  C   UNL     1     -33.481  44.010  -5.959  0.00  0.00    +0.000 A 
ATOM      4  C   UNL     1     -34.121  43.214  -6.902  0.00  0.00    +0.000 A 
ATOM      5  C   UNL     1     -33.881  44.862  -8.593  0.00  0.00    +0.000 A 
ATOM      6  C   UNL     1     -33.257  45.744  -7.783  0.00  0.00    +0.000 A 
ATOM      7  C   UNL     1     -33.017  45.339  -6.368  0.00  0.00    +0.000 A 
ATOM      8  C   UNL     1     -33.297  43.537  -4.653  0.00  0.00    +0.000 A 
ATOM      9  C   UNL     1     -34.579  41.946  -6.552  0.00  0.00    +0.000 A 
ATOM     10  C   UNL     1     -34.390  41.484  -5.253  0.00  0.00    +0.000 A 
ATOM     11  C   UNL     1     -33.753  42.271  -4.299  0.00  0.00    +0.000 A 
ENDROOT
BRANCH   5  12
ATOM     12  C   UNL     1     -34.169  45.125 -10.010  0.00  0.00    +0.000 A 
ATOM     13  C   UNL     1     -33.208  44.882 -10.997  0.00  0.00    +0.000 A 
ATOM     14  C   UNL     1     -35.443  45.567 -10.388  0.00  0.00    +0.000 A 
ATOM     15  C   UNL     1     -33.519  45.104 -12.332  0.00  0.00    +0.000 A 
ATOM     16  C   UNL     1     -35.758  45.773 -11.731  0.00  0.00    +0.000 A 
ATOM     17  C   UNL     1     -34.794  45.523 -12.697  0.00  0.00    +0.000 A 
BRANCH  15  18
ATOM     18  O   UNL     1     -32.543  44.940 -13.270  0.00  0.00    +0.000 OA
ATOM     19  H   UNL     1     -31.809  45.535 -13.027  0.00  0.00    +0.000 HD
ENDBRANCH  15  18
BRANCH  17  20
ATOM     20  O   UNL     1     -35.122  45.670 -14.014  0.00  0.00    +0.000 OA
ATOM     21  H   UNL     1     -35.242  46.627 -14.164  0.00  0.00    +0.000 HD
ENDBRANCH  17  20
ENDBRANCH   5  12
BRANCH   6  22
ATOM     22  O   UNL     1     -32.833  47.007  -8.151  0.00  0.00    +0.000 OA
ATOM     23  H   UNL     1     -33.529  47.461  -8.653  0.00  0.00    +0.000 HD
ENDBRANCH   6  22
BRANCH   8  24
ATOM     24  O   UNL     1     -32.679  44.267  -3.674  0.00  0.00    +0.000 OA
ATOM     25  H   UNL     1     -31.782  43.886  -3.524  0.00  0.00    +0.000 HD
ENDBRANCH   8  24
BRANCH  10  26
ATOM     26  O   UNL     1     -34.848  40.239  -4.934  0.00  0.00    +0.000 OA
ATOM     27  H   UNL     1     -34.813  39.689  -5.737  0.00  0.00    +0.000 HD
ENDBRANCH  10  26
TORSDOF 6
ENDMDL
MODEL 9
REMARK VINA RESULT:      -5.6      1.664      6.650
REMARK  Name = Quercetin.pdbqt.pdb
REMARK  6 active torsions:
REMARK  status: ('A' for Active; 'I' for Inactive)
REMARK    1  A    between atoms: C_5  and  C_12
REMARK    2  A    between atoms: C_6  and  O_22
REMARK    3  A    between atoms: C_8  and  O_24
REMARK    4  A    between atoms: C_10  and  O_26
REMARK    5  A    between atoms: C_15  and  O_18
REMARK    6  A    between atoms: C_17  and  O_20
REMARK                            x       y       z     vdW  Elec       q    Type
REMARK                         _______ _______ _______ _____ _____    ______ ____
ROOT
ATOM      1  O   UNL     1     -36.859  47.639  -7.881  0.00  0.00    +0.000 OA
ATOM      2  O   UNL     1     -37.814  46.595 -11.692  0.00  0.00    +0.000 OA
ATOM      3  C   UNL     1     -38.221  47.977  -9.859  0.00  0.00    +0.000 A 
ATOM      4  C   UNL     1     -37.856  48.290  -8.554  0.00  0.00    +0.000 A 
ATOM      5  C   UNL     1     -36.163  46.628  -8.528  0.00  0.00    +0.000 A 
ATOM      6  C   UNL     1     -36.416  46.210  -9.787  0.00  0.00    +0.000 A 
ATOM      7  C   UNL     1     -37.503  46.896 -10.542  0.00  0.00    +0.000 A 
ATOM      8  C   UNL     1     -39.253  48.686 -10.487  0.00  0.00    +0.000 A 
ATOM      9  C   UNL     1     -38.516  49.309  -7.870  0.00  0.00    +0.000 A 
ATOM     10  C   UNL     1     -39.539  50.008  -8.502  0.00  0.00    +0.000 A 
ATOM     11  C   UNL     1     -39.914  49.704  -9.807  0.00  0.00    +0.000 A 
ENDROOT
BRANCH   5  12
ATOM     12  C   UNL     1     -35.113  46.050  -7.677  0.00  0.00    +0.000 A 
ATOM     13  C   UNL     1     -35.427  45.125  -6.676  0.00  0.00    +0.000 A 
ATOM     14  C   UNL     1     -33.772  46.380  -7.910  0.00  0.00    +0.000 A 
ATOM     15  C   UNL     1     -34.411  44.566  -5.911  0.00  0.00    +0.000 A 
ATOM     16  C   UNL     1     -32.753  45.804  -7.152  0.00  0.00    +0.000 A 
ATOM     17  C   UNL     1     -33.081  44.885  -6.165  0.00  0.00    +0.000 A 
BRANCH  15  18
ATOM     18  O   UNL     1     -34.745  43.729  -4.887  0.00  0.00    +0.000 OA
ATOM     19  H   UNL     1     -34.091  43.005  -4.884  0.00  0.00    +0.000 HD
ENDBRANCH  15  18
BRANCH  17  20
ATOM     20  O   UNL     1     -32.080  44.280  -5.463  0.00  0.00    +0.000 OA
ATOM     21  H   UNL     1     -31.291  44.295  -6.036  0.00  0.00    +0.000 HD
ENDBRANCH  17  20
ENDBRANCH   5  12
BRANCH   6  22
ATOM     22  O   UNL     1     -35.761  45.179 -10.434  0.00  0.00    +0.000 OA
ATOM     23  H   UNL     1     -35.180  44.710  -9.815  0.00  0.00    +0.000 HD
ENDBRANCH   6  22
BRANCH   8  24
ATOM     24  O   UNL     1     -39.665  48.430 -11.766  0.00  0.00    +0.000 OA
ATOM     25  H   UNL     1     -40.352  49.094 -12.008  0.00  0.00    +0.000 HD
ENDBRANCH   8  24
BRANCH  10  26
ATOM     26  O   UNL     1     -40.170  51.001  -7.811  0.00  0.00    +0.000 OA
ATOM     27  H   UNL     1     -39.537  51.374  -7.171  0.00  0.00    +0.000 HD
ENDBRANCH  10  26
TORSDOF 6
ENDMDL
