MODEL 1
REMARK VINA RESULT:      -6.5      0.000      0.000
REMARK  Name = 
REMARK  11 active torsions:
REMARK  status: ('A' for Active; 'I' for Inactive)
REMARK    1  A    between atoms: O_2  and  C_16
REMARK    2  A    between atoms: O_2  and  C_18
REMARK    3  A    between atoms: O_3  and  C_12
REMARK    4  A    between atoms: O_4  and  C_13
REMARK    5  A    between atoms: O_5  and  C_14
REMARK    6  A    between atoms: O_8  and  C_24
REMARK    7  A    between atoms: O_9  and  C_29
REMARK    8  A    between atoms: O_10  and  C_30
REMARK    9  A    between atoms: O_11  and  C_32
REMARK   10  A    between atoms: C_15  and  C_17
REMARK   11  A    between atoms: C_19  and  C_23
REMARK                            x       y       z     vdW  Elec       q    Type
REMARK                         _______ _______ _______ _____ _____    ______ ____
ROOT
ATOM      1  O   UNL     1     -32.970  46.223 -17.741  0.00  0.00    +0.000 OA
ATOM      2  O   UNL     1     -34.653  48.226 -14.640  0.00  0.00    +0.000 OA
ATOM      3  C   UNL     1     -33.498  46.306 -15.385  0.00  0.00    +0.000 A 
ATOM      4  C   UNL     1     -32.870  45.756 -16.443  0.00  0.00    +0.000 A 
ATOM      5  C   UNL     1     -34.261  47.570 -15.597  0.00  0.00    +0.000 A 
ATOM      6  C   UNL     1     -34.476  47.987 -17.002  0.00  0.00    +0.000 A 
ATOM      7  C   UNL     1     -33.798  47.283 -17.997  0.00  0.00    +0.000 A 
ATOM      8  C   UNL     1     -35.309  49.054 -17.370  0.00  0.00    +0.000 A 
ATOM      9  C   UNL     1     -33.935  47.641 -19.340  0.00  0.00    +0.000 A 
ATOM     10  C   UNL     1     -35.453  49.415 -18.714  0.00  0.00    +0.000 A 
ATOM     11  C   UNL     1     -34.760  48.702 -19.687  0.00  0.00    +0.000 A 
ENDROOT
BRANCH   4  12
ATOM     12  C   UNL     1     -32.017  44.554 -16.332  0.00  0.00    +0.000 A 
ATOM     13  C   UNL     1     -30.640  44.700 -16.088  0.00  0.00    +0.000 A 
ATOM     14  C   UNL     1     -32.557  43.262 -16.458  0.00  0.00    +0.000 A 
ATOM     15  C   UNL     1     -29.832  43.572 -16.003  0.00  0.00    +0.000 A 
ATOM     16  C   UNL     1     -31.737  42.134 -16.375  0.00  0.00    +0.000 A 
ATOM     17  C   UNL     1     -30.381  42.301 -16.152  0.00  0.00    +0.000 A 
BRANCH  15  18
ATOM     18  O   UNL     1     -28.487  43.660 -15.777  0.00  0.00    +0.000 OA
ATOM     19  H   UNL     1     -28.087  44.181 -16.495  0.00  0.00    +0.000 HD
ENDBRANCH  15  18
BRANCH  17  20
ATOM     20  O   UNL     1     -29.579  41.199 -16.074  0.00  0.00    +0.000 OA
ATOM     21  H   UNL     1     -28.878  41.352 -16.740  0.00  0.00    +0.000 HD
ENDBRANCH  17  20
ENDBRANCH   4  12
BRANCH   8  22
ATOM     22  O   UNL     1     -36.012  49.748 -16.427  0.00  0.00    +0.000 OA
ATOM     23  H   UNL     1     -35.735  50.677 -16.397  0.00  0.00    +0.000 HD
ENDBRANCH   8  22
BRANCH  11  24
ATOM     24  O   UNL     1     -34.865  49.013 -21.010  0.00  0.00    +0.000 OA
ATOM     25  H   UNL     1     -34.441  49.871 -21.176  0.00  0.00    +0.000 HD
ENDBRANCH  11  24
BRANCH   3  26
ATOM     26  O   UNL     1     -33.391  45.827 -14.088  0.00  0.00    +0.000 OA
BRANCH  26  32
ATOM     27  O   UNL     1     -35.611  45.372 -13.311  0.00  0.00    +0.000 OA
ATOM     28  C   UNL     1     -33.677  44.352 -11.431  0.00  0.00    +0.000 C 
ATOM     29  C   UNL     1     -35.015  44.944 -10.976  0.00  0.00    +0.000 C 
ATOM     30  C   UNL     1     -33.783  43.781 -12.846  0.00  0.00    +0.000 C 
ATOM     31  C   UNL     1     -35.492  45.970 -12.011  0.00  0.00    +0.000 C 
ATOM     32  C   UNL     1     -34.384  44.829 -13.809  0.00  0.00    +0.000 C 
ATOM     33  C   UNL     1     -36.858  46.541 -11.648  0.00  0.00    +0.000 C 
BRANCH  28  34
ATOM     34  O   UNL     1     -33.299  43.314 -10.507  0.00  0.00    +0.000 OA
ATOM     35  H   UNL     1     -33.648  43.611  -9.641  0.00  0.00    +0.000 HD
ENDBRANCH  28  34
BRANCH  29  36
ATOM     36  O   UNL     1     -34.847  45.537  -9.685  0.00  0.00    +0.000 OA
ATOM     37  H   UNL     1     -35.161  46.458  -9.779  0.00  0.00    +0.000 HD
ENDBRANCH  29  36
BRANCH  30  38
ATOM     38  O   UNL     1     -34.591  42.587 -12.769  0.00  0.00    +0.000 OA
ATOM     39  H   UNL     1     -35.460  42.798 -13.157  0.00  0.00    +0.000 HD
ENDBRANCH  30  38
ENDBRANCH  26  32
ENDBRANCH   3  26
TORSDOF 10
ENDMDL
MODEL 2
REMARK VINA RESULT:      -6.5      1.707      5.436
REMARK  Name = 
REMARK  11 active torsions:
REMARK  status: ('A' for Active; 'I' for Inactive)
REMARK    1  A    between atoms: O_2  and  C_16
REMARK    2  A    between atoms: O_2  and  C_18
REMARK    3  A    between atoms: O_3  and  C_12
REMARK    4  A    between atoms: O_4  and  C_13
REMARK    5  A    between atoms: O_5  and  C_14
REMARK    6  A    between atoms: O_8  and  C_24
REMARK    7  A    between atoms: O_9  and  C_29
REMARK    8  A    between atoms: O_10  and  C_30
REMARK    9  A    between atoms: O_11  and  C_32
REMARK   10  A    between atoms: C_15  and  C_17
REMARK   11  A    between atoms: C_19  and  C_23
REMARK                            x       y       z     vdW  Elec       q    Type
REMARK                         _______ _______ _______ _____ _____    ______ ____
ROOT
ATOM      1  O   UNL     1     -35.130  46.950 -16.083  0.00  0.00    +0.000 OA
ATOM      2  O   UNL     1     -33.271  46.080 -19.583  0.00  0.00    +0.000 OA
ATOM      3  C   UNL     1     -33.522  45.605 -17.283  0.00  0.00    +0.000 A 
ATOM      4  C   UNL     1     -34.258  45.883 -16.189  0.00  0.00    +0.000 A 
ATOM      5  C   UNL     1     -33.740  46.431 -18.507  0.00  0.00    +0.000 A 
ATOM      6  C   UNL     1     -34.569  47.647 -18.348  0.00  0.00    +0.000 A 
ATOM      7  C   UNL     1     -35.229  47.826 -17.131  0.00  0.00    +0.000 A 
ATOM      8  C   UNL     1     -34.729  48.608 -19.356  0.00  0.00    +0.000 A 
ATOM      9  C   UNL     1     -36.047  48.938 -16.923  0.00  0.00    +0.000 A 
ATOM     10  C   UNL     1     -35.545  49.726 -19.152  0.00  0.00    +0.000 A 
ATOM     11  C   UNL     1     -36.199  49.878 -17.934  0.00  0.00    +0.000 A 
ENDROOT
BRANCH   4  12
ATOM     12  C   UNL     1     -34.186  45.078 -14.951  0.00  0.00    +0.000 A 
ATOM     13  C   UNL     1     -33.507  45.587 -13.830  0.00  0.00    +0.000 A 
ATOM     14  C   UNL     1     -34.791  43.811 -14.868  0.00  0.00    +0.000 A 
ATOM     15  C   UNL     1     -33.422  44.824 -12.671  0.00  0.00    +0.000 A 
ATOM     16  C   UNL     1     -34.697  43.050 -13.701  0.00  0.00    +0.000 A 
ATOM     17  C   UNL     1     -34.008  43.563 -12.615  0.00  0.00    +0.000 A 
BRANCH  15  18
ATOM     18  O   UNL     1     -32.765  45.270 -11.558  0.00  0.00    +0.000 OA
ATOM     19  H   UNL     1     -32.843  44.593 -10.863  0.00  0.00    +0.000 HD
ENDBRANCH  15  18
BRANCH  17  20
ATOM     20  O   UNL     1     -33.912  42.817 -11.476  0.00  0.00    +0.000 OA
ATOM     21  H   UNL     1     -34.837  42.688 -11.182  0.00  0.00    +0.000 HD
ENDBRANCH  17  20
ENDBRANCH   4  12
BRANCH   8  22
ATOM     22  O   UNL     1     -34.076  48.484 -20.549  0.00  0.00    +0.000 OA
ATOM     23  H   UNL     1     -33.244  47.996 -20.444  0.00  0.00    +0.000 HD
ENDBRANCH   8  22
BRANCH  11  24
ATOM     24  O   UNL     1     -37.005  50.948 -17.685  0.00  0.00    +0.000 OA
ATOM     25  H   UNL     1     -37.002  51.141 -16.732  0.00  0.00    +0.000 HD
ENDBRANCH  11  24
BRANCH   3  26
ATOM     26  O   UNL     1     -32.648  44.533 -17.376  0.00  0.00    +0.000 OA
BRANCH  26  32
ATOM     27  O   UNL     1     -30.461  44.969 -18.249  0.00  0.00    +0.000 OA
ATOM     28  C   UNL     1     -30.411  42.611 -16.589  0.00  0.00    +0.000 C 
ATOM     29  C   UNL     1     -29.541  42.737 -17.844  0.00  0.00    +0.000 C 
ATOM     30  C   UNL     1     -30.726  43.987 -16.001  0.00  0.00    +0.000 C 
ATOM     31  C   UNL     1     -30.223  43.682 -18.840  0.00  0.00    +0.000 C 
ATOM     32  C   UNL     1     -31.297  44.923 -17.089  0.00  0.00    +0.000 C 
ATOM     33  C   UNL     1     -29.366  43.904 -20.082  0.00  0.00    +0.000 C 
BRANCH  28  34
ATOM     34  O   UNL     1     -29.705  41.811 -15.622  0.00  0.00    +0.000 OA
ATOM     35  H   UNL     1     -29.094  42.436 -15.178  0.00  0.00    +0.000 HD
ENDBRANCH  28  34
BRANCH  29  36
ATOM     36  O   UNL     1     -29.339  41.436 -18.404  0.00  0.00    +0.000 OA
ATOM     37  H   UNL     1     -28.769  40.963 -17.766  0.00  0.00    +0.000 HD
ENDBRANCH  29  36
BRANCH  30  38
ATOM     38  O   UNL     1     -29.505  44.501 -15.428  0.00  0.00    +0.000 OA
ATOM     39  H   UNL     1     -29.187  45.213 -16.012  0.00  0.00    +0.000 HD
ENDBRANCH  30  38
ENDBRANCH  26  32
ENDBRANCH   3  26
TORSDOF 10
ENDMDL
MODEL 3
REMARK VINA RESULT:      -6.3      3.850      9.386
REMARK  Name = 
REMARK  11 active torsions:
REMARK  status: ('A' for Active; 'I' for Inactive)
REMARK    1  A    between atoms: O_2  and  C_16
REMARK    2  A    between atoms: O_2  and  C_18
REMARK    3  A    between atoms: O_3  and  C_12
REMARK    4  A    between atoms: O_4  and  C_13
REMARK    5  A    between atoms: O_5  and  C_14
REMARK    6  A    between atoms: O_8  and  C_24
REMARK    7  A    between atoms: O_9  and  C_29
REMARK    8  A    between atoms: O_10  and  C_30
REMARK    9  A    between atoms: O_11  and  C_32
REMARK   10  A    between atoms: C_15  and  C_17
REMARK   11  A    between atoms: C_19  and  C_23
REMARK                            x       y       z     vdW  Elec       q    Type
REMARK                         _______ _______ _______ _____ _____    ______ ____
ROOT
ATOM      1  O   UNL     1     -36.096  46.061  -8.057  0.00  0.00    +0.000 OA
ATOM      2  O   UNL     1     -33.127  44.756 -10.494  0.00  0.00    +0.000 OA
ATOM      3  C   UNL     1     -35.401  45.344 -10.257  0.00  0.00    +0.000 A 
ATOM      4  C   UNL     1     -36.304  45.880  -9.411  0.00  0.00    +0.000 A 
ATOM      5  C   UNL     1     -34.043  45.026  -9.728  0.00  0.00    +0.000 A 
ATOM      6  C   UNL     1     -33.871  45.093  -8.259  0.00  0.00    +0.000 A 
ATOM      7  C   UNL     1     -34.920  45.624  -7.507  0.00  0.00    +0.000 A 
ATOM      8  C   UNL     1     -32.710  44.665  -7.599  0.00  0.00    +0.000 A 
ATOM      9  C   UNL     1     -34.813  45.740  -6.120  0.00  0.00    +0.000 A 
ATOM     10  C   UNL     1     -32.598  44.776  -6.209  0.00  0.00    +0.000 A 
ATOM     11  C   UNL     1     -33.655  45.316  -5.482  0.00  0.00    +0.000 A 
ENDROOT
BRANCH   4  12
ATOM     12  C   UNL     1     -37.649  46.312  -9.846  0.00  0.00    +0.000 A 
ATOM     13  C   UNL     1     -37.984  47.677  -9.815  0.00  0.00    +0.000 A 
ATOM     14  C   UNL     1     -38.603  45.383 -10.299  0.00  0.00    +0.000 A 
ATOM     15  C   UNL     1     -39.255  48.084 -10.205  0.00  0.00    +0.000 A 
ATOM     16  C   UNL     1     -39.879  45.801 -10.685  0.00  0.00    +0.000 A 
ATOM     17  C   UNL     1     -40.193  47.149 -10.630  0.00  0.00    +0.000 A 
BRANCH  15  18
ATOM     18  O   UNL     1     -39.632  49.398 -10.184  0.00  0.00    +0.000 OA
ATOM     19  H   UNL     1     -39.631  49.705  -9.260  0.00  0.00    +0.000 HD
ENDBRANCH  15  18
BRANCH  17  20
ATOM     20  O   UNL     1     -41.442  47.556 -11.002  0.00  0.00    +0.000 OA
ATOM     21  H   UNL     1     -41.390  48.533 -11.027  0.00  0.00    +0.000 HD
ENDBRANCH  17  20
ENDBRANCH   4  12
BRANCH   8  22
ATOM     22  O   UNL     1     -31.674  44.113  -8.296  0.00  0.00    +0.000 OA
ATOM     23  H   UNL     1     -30.896  43.991  -7.730  0.00  0.00    +0.000 HD
ENDBRANCH   8  22
BRANCH  11  24
ATOM     24  O   UNL     1     -33.597  45.447  -4.128  0.00  0.00    +0.000 OA
ATOM     25  H   UNL     1     -34.447  45.783  -3.797  0.00  0.00    +0.000 HD
ENDBRANCH  11  24
BRANCH   3  26
ATOM     26  O   UNL     1     -35.623  45.167 -11.614  0.00  0.00    +0.000 OA
BRANCH  26  32
ATOM     27  O   UNL     1     -36.448  47.099 -12.763  0.00  0.00    +0.000 OA
ATOM     28  C   UNL     1     -35.263  45.262 -14.643  0.00  0.00    +0.000 C 
ATOM     29  C   UNL     1     -36.492  46.106 -15.000  0.00  0.00    +0.000 C 
ATOM     30  C   UNL     1     -34.419  45.949 -13.569  0.00  0.00    +0.000 C 
ATOM     31  C   UNL     1     -37.276  46.422 -13.721  0.00  0.00    +0.000 C 
ATOM     32  C   UNL     1     -35.299  46.347 -12.363  0.00  0.00    +0.000 C 
ATOM     33  C   UNL     1     -38.473  47.323 -14.004  0.00  0.00    +0.000 C 
BRANCH  28  34
ATOM     34  O   UNL     1     -34.480  45.069 -15.837  0.00  0.00    +0.000 OA
ATOM     35  H   UNL     1     -33.551  45.198 -15.550  0.00  0.00    +0.000 HD
ENDBRANCH  28  34
BRANCH  29  36
ATOM     36  O   UNL     1     -37.291  45.389 -15.946  0.00  0.00    +0.000 OA
ATOM     37  H   UNL     1     -38.166  45.824 -15.929  0.00  0.00    +0.000 HD
ENDBRANCH  29  36
BRANCH  30  38
ATOM     38  O   UNL     1     -33.788  47.093 -14.183  0.00  0.00    +0.000 OA
ATOM     39  H   UNL     1     -32.909  46.807 -14.495  0.00  0.00    +0.000 HD
ENDBRANCH  30  38
ENDBRANCH  26  32
ENDBRANCH   3  26
TORSDOF 10
ENDMDL
MODEL 4
REMARK VINA RESULT:      -6.2      3.970      8.064
REMARK  Name = 
REMARK  11 active torsions:
REMARK  status: ('A' for Active; 'I' for Inactive)
REMARK    1  A    between atoms: O_2  and  C_16
REMARK    2  A    between atoms: O_2  and  C_18
REMARK    3  A    between atoms: O_3  and  C_12
REMARK    4  A    between atoms: O_4  and  C_13
REMARK    5  A    between atoms: O_5  and  C_14
REMARK    6  A    between atoms: O_8  and  C_24
REMARK    7  A    between atoms: O_9  and  C_29
REMARK    8  A    between atoms: O_10  and  C_30
REMARK    9  A    between atoms: O_11  and  C_32
REMARK   10  A    between atoms: C_15  and  C_17
REMARK   11  A    between atoms: C_19  and  C_23
REMARK                            x       y       z     vdW  Elec       q    Type
REMARK                         _______ _______ _______ _____ _____    ______ ____
ROOT
ATOM      1  O   UNL     1     -37.061  47.824  -8.022  0.00  0.00    +0.000 OA
ATOM      2  O   UNL     1     -38.703  46.708 -11.561  0.00  0.00    +0.000 OA
ATOM      3  C   UNL     1     -36.930  46.471 -10.019  0.00  0.00    +0.000 A 
ATOM      4  C   UNL     1     -36.506  46.815  -8.786  0.00  0.00    +0.000 A 
ATOM      5  C   UNL     1     -38.150  47.140 -10.557  0.00  0.00    +0.000 A 
ATOM      6  C   UNL     1     -38.656  48.307  -9.798  0.00  0.00    +0.000 A 
ATOM      7  C   UNL     1     -38.078  48.571  -8.556  0.00  0.00    +0.000 A 
ATOM      8  C   UNL     1     -39.686  49.138 -10.260  0.00  0.00    +0.000 A 
ATOM      9  C   UNL     1     -38.525  49.640  -7.776  0.00  0.00    +0.000 A 
ATOM     10  C   UNL     1     -40.136  50.212  -9.485  0.00  0.00    +0.000 A 
ATOM     11  C   UNL     1     -39.550  50.451  -8.246  0.00  0.00    +0.000 A 
ENDROOT
BRANCH   4  12
ATOM     12  C   UNL     1     -35.362  46.157  -8.121  0.00  0.00    +0.000 A 
ATOM     13  C   UNL     1     -34.130  46.828  -8.034  0.00  0.00    +0.000 A 
ATOM     14  C   UNL     1     -35.483  44.871  -7.564  0.00  0.00    +0.000 A 
ATOM     15  C   UNL     1     -33.047  46.204  -7.425  0.00  0.00    +0.000 A 
ATOM     16  C   UNL     1     -34.388  44.250  -6.958  0.00  0.00    +0.000 A 
ATOM     17  C   UNL     1     -33.178  44.922  -6.899  0.00  0.00    +0.000 A 
BRANCH  15  18
ATOM     18  O   UNL     1     -31.825  46.810  -7.324  0.00  0.00    +0.000 OA
ATOM     19  H   UNL     1     -31.283  46.307  -6.691  0.00  0.00    +0.000 HD
ENDBRANCH  15  18
BRANCH  17  20
ATOM     20  O   UNL     1     -32.108  44.313  -6.311  0.00  0.00    +0.000 OA
ATOM     21  H   UNL     1     -32.022  44.746  -5.437  0.00  0.00    +0.000 HD
ENDBRANCH  17  20
ENDBRANCH   4  12
BRANCH   8  22
ATOM     22  O   UNL     1     -40.256  48.930 -11.483  0.00  0.00    +0.000 OA
ATOM     23  H   UNL     1     -40.332  47.983 -11.678  0.00  0.00    +0.000 HD
ENDBRANCH   8  22
BRANCH  11  24
ATOM     24  O   UNL     1     -39.951  51.483  -7.452  0.00  0.00    +0.000 OA
ATOM     25  H   UNL     1     -40.633  51.171  -6.834  0.00  0.00    +0.000 HD
ENDBRANCH  11  24
BRANCH   3  26
ATOM     26  O   UNL     1     -36.362  45.458 -10.777  0.00  0.00    +0.000 OA
BRANCH  26  32
ATOM     27  O   UNL     1     -35.556  46.423 -12.815  0.00  0.00    +0.000 OA
ATOM     28  C   UNL     1     -34.617  43.708 -12.568  0.00  0.00    +0.000 C 
ATOM     29  C   UNL     1     -34.988  44.317 -13.925  0.00  0.00    +0.000 C 
ATOM     30  C   UNL     1     -34.174  44.792 -11.584  0.00  0.00    +0.000 C 
ATOM     31  C   UNL     1     -36.038  45.414 -13.716  0.00  0.00    +0.000 C 
ATOM     32  C   UNL     1     -35.224  45.923 -11.517  0.00  0.00    +0.000 C 
ATOM     33  C   UNL     1     -36.394  46.109 -15.026  0.00  0.00    +0.000 C 
BRANCH  28  34
ATOM     34  O   UNL     1     -33.552  42.760 -12.769  0.00  0.00    +0.000 OA
ATOM     35  H   UNL     1     -32.731  43.261 -12.578  0.00  0.00    +0.000 HD
ENDBRANCH  28  34
BRANCH  29  36
ATOM     36  O   UNL     1     -35.472  43.280 -14.784  0.00  0.00    +0.000 OA
ATOM     37  H   UNL     1     -35.723  42.546 -14.189  0.00  0.00    +0.000 HD
ENDBRANCH  29  36
BRANCH  30  38
ATOM     38  O   UNL     1     -32.885  45.272 -12.023  0.00  0.00    +0.000 OA
ATOM     39  H   UNL     1     -33.022  46.154 -12.415  0.00  0.00    +0.000 HD
ENDBRANCH  30  38
ENDBRANCH  26  32
ENDBRANCH   3  26
TORSDOF 10
ENDMDL
MODEL 5
REMARK VINA RESULT:      -6.2     19.387     20.793
REMARK  Name = 
REMARK  11 active torsions:
REMARK  status: ('A' for Active; 'I' for Inactive)
REMARK    1  A    between atoms: O_2  and  C_16
REMARK    2  A    between atoms: O_2  and  C_18
REMARK    3  A    between atoms: O_3  and  C_12
REMARK    4  A    between atoms: O_4  and  C_13
REMARK    5  A    between atoms: O_5  and  C_14
REMARK    6  A    between atoms: O_8  and  C_24
REMARK    7  A    between atoms: O_9  and  C_29
REMARK    8  A    between atoms: O_10  and  C_30
REMARK    9  A    between atoms: O_11  and  C_32
REMARK   10  A    between atoms: C_15  and  C_17
REMARK   11  A    between atoms: C_19  and  C_23
REMARK                            x       y       z     vdW  Elec       q    Type
REMARK                         _______ _______ _______ _____ _____    ______ ____
ROOT
ATOM      1  O   UNL     1     -28.055  62.064 -26.846  0.00  0.00    +0.000 OA
ATOM      2  O   UNL     1     -31.899  61.075 -27.688  0.00  0.00    +0.000 OA
ATOM      3  C   UNL     1     -30.354  61.931 -26.119  0.00  0.00    +0.000 A 
ATOM      4  C   UNL     1     -29.078  62.331 -25.956  0.00  0.00    +0.000 A 
ATOM      5  C   UNL     1     -30.723  61.251 -27.396  0.00  0.00    +0.000 A 
ATOM      6  C   UNL     1     -29.604  60.849 -28.279  0.00  0.00    +0.000 A 
ATOM      7  C   UNL     1     -28.325  61.297 -27.949  0.00  0.00    +0.000 A 
ATOM      8  C   UNL     1     -29.774  60.060 -29.426  0.00  0.00    +0.000 A 
ATOM      9  C   UNL     1     -27.229  60.976 -28.753  0.00  0.00    +0.000 A 
ATOM     10  C   UNL     1     -28.680  59.733 -30.234  0.00  0.00    +0.000 A 
ATOM     11  C   UNL     1     -27.415  60.198 -29.888  0.00  0.00    +0.000 A 
ENDROOT
BRANCH   4  12
ATOM     12  C   UNL     1     -28.622  63.088 -24.771  0.00  0.00    +0.000 A 
ATOM     13  C   UNL     1     -28.489  62.430 -23.536  0.00  0.00    +0.000 A 
ATOM     14  C   UNL     1     -28.309  64.457 -24.855  0.00  0.00    +0.000 A 
ATOM     15  C   UNL     1     -28.078  63.143 -22.416  0.00  0.00    +0.000 A 
ATOM     16  C   UNL     1     -27.902  65.167 -23.724  0.00  0.00    +0.000 A 
ATOM     17  C   UNL     1     -27.794  64.503 -22.513  0.00  0.00    +0.000 A 
BRANCH  15  18
ATOM     18  O   UNL     1     -27.943  62.552 -21.190  0.00  0.00    +0.000 OA
ATOM     19  H   UNL     1     -28.792  62.619 -20.720  0.00  0.00    +0.000 HD
ENDBRANCH  15  18
BRANCH  17  20
ATOM     20  O   UNL     1     -27.400  65.198 -21.406  0.00  0.00    +0.000 OA
ATOM     21  H   UNL     1     -27.098  66.063 -21.749  0.00  0.00    +0.000 HD
ENDBRANCH  17  20
ENDBRANCH   4  12
BRANCH   8  22
ATOM     22  O   UNL     1     -31.005  59.578 -29.766  0.00  0.00    +0.000 OA
ATOM     23  H   UNL     1     -31.708  60.194 -29.504  0.00  0.00    +0.000 HD
ENDBRANCH   8  22
BRANCH  11  24
ATOM     24  O   UNL     1     -26.317  59.908 -30.641  0.00  0.00    +0.000 OA
ATOM     25  H   UNL     1     -26.079  58.974 -30.521  0.00  0.00    +0.000 HD
ENDBRANCH  11  24
BRANCH   3  26
ATOM     26  O   UNL     1     -31.372  62.204 -25.217  0.00  0.00    +0.000 OA
BRANCH  26  32
ATOM     27  O   UNL     1     -31.773  64.564 -25.181  0.00  0.00    +0.000 OA
ATOM     28  C   UNL     1     -33.882  63.181 -23.784  0.00  0.00    +0.000 C 
ATOM     29  C   UNL     1     -33.375  64.554 -23.330  0.00  0.00    +0.000 C 
ATOM     30  C   UNL     1     -33.667  62.986 -25.285  0.00  0.00    +0.000 C 
ATOM     31  C   UNL     1     -31.913  64.720 -23.760  0.00  0.00    +0.000 C 
ATOM     32  C   UNL     1     -32.199  63.288 -25.664  0.00  0.00    +0.000 C 
ATOM     33  C   UNL     1     -31.373  66.099 -23.399  0.00  0.00    +0.000 C 
BRANCH  28  34
ATOM     34  O   UNL     1     -35.286  63.087 -23.471  0.00  0.00    +0.000 OA
ATOM     35  H   UNL     1     -35.743  63.273 -24.318  0.00  0.00    +0.000 HD
ENDBRANCH  28  34
BRANCH  29  36
ATOM     36  O   UNL     1     -33.523  64.660 -21.911  0.00  0.00    +0.000 OA
ATOM     37  H   UNL     1     -34.440  64.379 -21.723  0.00  0.00    +0.000 HD
ENDBRANCH  29  36
BRANCH  30  38
ATOM     38  O   UNL     1     -34.595  63.854 -25.971  0.00  0.00    +0.000 OA
ATOM     39  H   UNL     1     -34.371  63.827 -26.919  0.00  0.00    +0.000 HD
ENDBRANCH  30  38
ENDBRANCH  26  32
ENDBRANCH   3  26
TORSDOF 10
ENDMDL
MODEL 6
REMARK VINA RESULT:      -6.1     17.886     19.919
REMARK  Name = 
REMARK  11 active torsions:
REMARK  status: ('A' for Active; 'I' for Inactive)
REMARK    1  A    between atoms: O_2  and  C_16
REMARK    2  A    between atoms: O_2  and  C_18
REMARK    3  A    between atoms: O_3  and  C_12
REMARK    4  A    between atoms: O_4  and  C_13
REMARK    5  A    between atoms: O_5  and  C_14
REMARK    6  A    between atoms: O_8  and  C_24
REMARK    7  A    between atoms: O_9  and  C_29
REMARK    8  A    between atoms: O_10  and  C_30
REMARK    9  A    between atoms: O_11  and  C_32
REMARK   10  A    between atoms: C_15  and  C_17
REMARK   11  A    between atoms: C_19  and  C_23
REMARK                            x       y       z     vdW  Elec       q    Type
REMARK                         _______ _______ _______ _____ _____    ______ ____
ROOT
ATOM      1  O   UNL     1     -33.377  64.361  -8.241  0.00  0.00    +0.000 OA
ATOM      2  O   UNL     1     -36.355  61.605  -8.309  0.00  0.00    +0.000 OA
ATOM      3  C   UNL     1     -34.604  62.624  -7.095  0.00  0.00    +0.000 A 
ATOM      4  C   UNL     1     -33.708  63.630  -7.115  0.00  0.00    +0.000 A 
ATOM      5  C   UNL     1     -35.379  62.346  -8.339  0.00  0.00    +0.000 A 
ATOM      6  C   UNL     1     -34.928  63.034  -9.570  0.00  0.00    +0.000 A 
ATOM      7  C   UNL     1     -33.949  64.020  -9.439  0.00  0.00    +0.000 A 
ATOM      8  C   UNL     1     -35.444  62.753 -10.843  0.00  0.00    +0.000 A 
ATOM      9  C   UNL     1     -33.497  64.726 -10.555  0.00  0.00    +0.000 A 
ATOM     10  C   UNL     1     -34.993  63.455 -11.966  0.00  0.00    +0.000 A 
ATOM     11  C   UNL     1     -34.022  64.439 -11.808  0.00  0.00    +0.000 A 
ENDROOT
BRANCH   4  12
ATOM     12  C   UNL     1     -32.947  64.048  -5.919  0.00  0.00    +0.000 A 
ATOM     13  C   UNL     1     -32.119  63.121  -5.263  0.00  0.00    +0.000 A 
ATOM     14  C   UNL     1     -33.028  65.363  -5.425  0.00  0.00    +0.000 A 
ATOM     15  C   UNL     1     -31.417  63.507  -4.127  0.00  0.00    +0.000 A 
ATOM     16  C   UNL     1     -32.323  65.740  -4.280  0.00  0.00    +0.000 A 
ATOM     17  C   UNL     1     -31.526  64.806  -3.639  0.00  0.00    +0.000 A 
BRANCH  15  18
ATOM     18  O   UNL     1     -30.606  62.640  -3.448  0.00  0.00    +0.000 OA
ATOM     19  H   UNL     1     -29.719  63.033  -3.384  0.00  0.00    +0.000 HD
ENDBRANCH  15  18
BRANCH  17  20
ATOM     20  O   UNL     1     -30.841  65.174  -2.518  0.00  0.00    +0.000 OA
ATOM     21  H   UNL     1     -31.528  65.294  -1.832  0.00  0.00    +0.000 HD
ENDBRANCH  17  20
ENDBRANCH   4  12
BRANCH   8  22
ATOM     22  O   UNL     1     -36.382  61.776 -11.016  0.00  0.00    +0.000 OA
ATOM     23  H   UNL     1     -35.972  60.896 -11.031  0.00  0.00    +0.000 HD
ENDBRANCH   8  22
BRANCH  11  24
ATOM     24  O   UNL     1     -33.548  65.151 -12.868  0.00  0.00    +0.000 OA
ATOM     25  H   UNL     1     -33.201  64.541 -13.540  0.00  0.00    +0.000 HD
ENDBRANCH  11  24
BRANCH   3  26
ATOM     26  O   UNL     1     -34.925  61.898  -5.959  0.00  0.00    +0.000 OA
BRANCH  26  32
ATOM     27  O   UNL     1     -35.496  63.235  -4.055  0.00  0.00    +0.000 OA
ATOM     28  C   UNL     1     -36.509  60.556  -3.721  0.00  0.00    +0.000 C 
ATOM     29  C   UNL     1     -35.988  61.379  -2.538  0.00  0.00    +0.000 C 
ATOM     30  C   UNL     1     -37.031  61.467  -4.834  0.00  0.00    +0.000 C 
ATOM     31  C   UNL     1     -34.944  62.382  -3.041  0.00  0.00    +0.000 C 
ATOM     32  C   UNL     1     -35.971  62.528  -5.205  0.00  0.00    +0.000 C 
ATOM     33  C   UNL     1     -34.440  63.281  -1.917  0.00  0.00    +0.000 C 
BRANCH  28  34
ATOM     34  O   UNL     1     -37.567  59.699  -3.250  0.00  0.00    +0.000 OA
ATOM     35  H   UNL     1     -37.671  59.021  -3.951  0.00  0.00    +0.000 HD
ENDBRANCH  28  34
BRANCH  29  36
ATOM     36  O   UNL     1     -35.439  60.491  -1.559  0.00  0.00    +0.000 OA
ATOM     37  H   UNL     1     -34.936  61.061  -0.944  0.00  0.00    +0.000 HD
ENDBRANCH  29  36
BRANCH  30  38
ATOM     38  O   UNL     1     -38.258  62.064  -4.363  0.00  0.00    +0.000 OA
ATOM     39  H   UNL     1     -38.869  62.109  -5.121  0.00  0.00    +0.000 HD
ENDBRANCH  30  38
ENDBRANCH  26  32
ENDBRANCH   3  26
TORSDOF 10
ENDMDL
MODEL 7
REMARK VINA RESULT:      -6.1      3.371      7.603
REMARK  Name = 
REMARK  11 active torsions:
REMARK  status: ('A' for Active; 'I' for Inactive)
REMARK    1  A    between atoms: O_2  and  C_16
REMARK    2  A    between atoms: O_2  and  C_18
REMARK    3  A    between atoms: O_3  and  C_12
REMARK    4  A    between atoms: O_4  and  C_13
REMARK    5  A    between atoms: O_5  and  C_14
REMARK    6  A    between atoms: O_8  and  C_24
REMARK    7  A    between atoms: O_9  and  C_29
REMARK    8  A    between atoms: O_10  and  C_30
REMARK    9  A    between atoms: O_11  and  C_32
REMARK   10  A    between atoms: C_15  and  C_17
REMARK   11  A    between atoms: C_19  and  C_23
REMARK                            x       y       z     vdW  Elec       q    Type
REMARK                         _______ _______ _______ _____ _____    ______ ____
ROOT
ATOM      1  O   UNL     1     -36.646  45.999 -12.117  0.00  0.00    +0.000 OA
ATOM      2  O   UNL     1     -32.879  44.775 -11.234  0.00  0.00    +0.000 OA
ATOM      3  C   UNL     1     -34.904  45.717 -10.467  0.00  0.00    +0.000 A 
ATOM      4  C   UNL     1     -36.174  46.001 -10.817  0.00  0.00    +0.000 A 
ATOM      5  C   UNL     1     -33.965  45.259 -11.531  0.00  0.00    +0.000 A 
ATOM      6  C   UNL     1     -34.433  45.389 -12.930  0.00  0.00    +0.000 A 
ATOM      7  C   UNL     1     -35.766  45.745 -13.136  0.00  0.00    +0.000 A 
ATOM      8  C   UNL     1     -33.611  45.158 -14.042  0.00  0.00    +0.000 A 
ATOM      9  C   UNL     1     -36.280  45.860 -14.429  0.00  0.00    +0.000 A 
ATOM     10  C   UNL     1     -34.118  45.275 -15.340  0.00  0.00    +0.000 A 
ATOM     11  C   UNL     1     -35.453  45.624 -15.520  0.00  0.00    +0.000 A 
ENDROOT
BRANCH   4  12
ATOM     12  C   UNL     1     -37.210  46.381  -9.834  0.00  0.00    +0.000 A 
ATOM     13  C   UNL     1     -37.134  47.629  -9.192  0.00  0.00    +0.000 A 
ATOM     14  C   UNL     1     -38.280  45.519  -9.532  0.00  0.00    +0.000 A 
ATOM     15  C   UNL     1     -38.096  47.981  -8.252  0.00  0.00    +0.000 A 
ATOM     16  C   UNL     1     -39.240  45.879  -8.584  0.00  0.00    +0.000 A 
ATOM     17  C   UNL     1     -39.136  47.106  -7.949  0.00  0.00    +0.000 A 
BRANCH  15  18
ATOM     18  O   UNL     1     -38.061  49.178  -7.593  0.00  0.00    +0.000 OA
ATOM     19  H   UNL     1     -37.979  49.002  -6.639  0.00  0.00    +0.000 HD
ENDBRANCH  15  18
BRANCH  17  20
ATOM     20  O   UNL     1     -40.072  47.456  -7.020  0.00  0.00    +0.000 OA
ATOM     21  H   UNL     1     -39.602  47.411  -6.162  0.00  0.00    +0.000 HD
ENDBRANCH  17  20
ENDBRANCH   4  12
BRANCH   8  22
ATOM     22  O   UNL     1     -32.293  44.837 -13.881  0.00  0.00    +0.000 OA
ATOM     23  H   UNL     1     -31.781  45.601 -13.574  0.00  0.00    +0.000 HD
ENDBRANCH   8  22
BRANCH  11  24
ATOM     24  O   UNL     1     -35.997  45.750 -16.762  0.00  0.00    +0.000 OA
ATOM     25  H   UNL     1     -36.951  45.572 -16.719  0.00  0.00    +0.000 HD
ENDBRANCH  11  24
BRANCH   3  26
ATOM     26  O   UNL     1     -34.443  45.725  -9.159  0.00  0.00    +0.000 OA
BRANCH  26  32
ATOM     27  O   UNL     1     -35.802  44.553  -7.572  0.00  0.00    +0.000 OA
ATOM     28  C   UNL     1     -33.111  44.811  -6.570  0.00  0.00    +0.000 C 
ATOM     29  C   UNL     1     -34.330  44.873  -5.643  0.00  0.00    +0.000 C 
ATOM     30  C   UNL     1     -33.414  43.983  -7.820  0.00  0.00    +0.000 C 
ATOM     31  C   UNL     1     -35.539  45.387  -6.432  0.00  0.00    +0.000 C 
ATOM     32  C   UNL     1     -34.712  44.481  -8.495  0.00  0.00    +0.000 C 
ATOM     33  C   UNL     1     -36.803  45.401  -5.579  0.00  0.00    +0.000 C 
BRANCH  28  34
ATOM     34  O   UNL     1     -32.015  44.222  -5.843  0.00  0.00    +0.000 OA
ATOM     35  H   UNL     1     -31.417  43.868  -6.535  0.00  0.00    +0.000 HD
ENDBRANCH  28  34
BRANCH  29  36
ATOM     36  O   UNL     1     -34.027  45.720  -4.530  0.00  0.00    +0.000 OA
ATOM     37  H   UNL     1     -33.247  46.241  -4.806  0.00  0.00    +0.000 HD
ENDBRANCH  29  36
BRANCH  30  38
ATOM     38  O   UNL     1     -33.509  42.602  -7.410  0.00  0.00    +0.000 OA
ATOM     39  H   UNL     1     -33.309  42.054  -8.191  0.00  0.00    +0.000 HD
ENDBRANCH  30  38
ENDBRANCH  26  32
ENDBRANCH   3  26
TORSDOF 10
ENDMDL
MODEL 8
REMARK VINA RESULT:      -6.1     19.185     20.732
REMARK  Name = 
REMARK  11 active torsions:
REMARK  status: ('A' for Active; 'I' for Inactive)
REMARK    1  A    between atoms: O_2  and  C_16
REMARK    2  A    between atoms: O_2  and  C_18
REMARK    3  A    between atoms: O_3  and  C_12
REMARK    4  A    between atoms: O_4  and  C_13
REMARK    5  A    between atoms: O_5  and  C_14
REMARK    6  A    between atoms: O_8  and  C_24
REMARK    7  A    between atoms: O_9  and  C_29
REMARK    8  A    between atoms: O_10  and  C_30
REMARK    9  A    between atoms: O_11  and  C_32
REMARK   10  A    between atoms: C_15  and  C_17
REMARK   11  A    between atoms: C_19  and  C_23
REMARK                            x       y       z     vdW  Elec       q    Type
REMARK                         _______ _______ _______ _____ _____    ______ ____
ROOT
ATOM      1  O   UNL     1     -30.807  60.855 -28.361  0.00  0.00    +0.000 OA
ATOM      2  O   UNL     1     -28.502  61.196 -25.038  0.00  0.00    +0.000 OA
ATOM      3  C   UNL     1     -30.595  61.576 -26.065  0.00  0.00    +0.000 A 
ATOM      4  C   UNL     1     -31.325  61.331 -27.171  0.00  0.00    +0.000 A 
ATOM      5  C   UNL     1     -29.149  61.206 -26.078  0.00  0.00    +0.000 A 
ATOM      6  C   UNL     1     -28.574  60.828 -27.389  0.00  0.00    +0.000 A 
ATOM      7  C   UNL     1     -29.454  60.664 -28.459  0.00  0.00    +0.000 A 
ATOM      8  C   UNL     1     -27.203  60.616 -27.597  0.00  0.00    +0.000 A 
ATOM      9  C   UNL     1     -28.981  60.282 -29.717  0.00  0.00    +0.000 A 
ATOM     10  C   UNL     1     -26.723  60.237 -28.855  0.00  0.00    +0.000 A 
ATOM     11  C   UNL     1     -27.621  60.072 -29.904  0.00  0.00    +0.000 A 
ENDROOT
BRANCH   4  12
ATOM     12  C   UNL     1     -32.781  61.577 -27.239  0.00  0.00    +0.000 A 
ATOM     13  C   UNL     1     -33.265  62.684 -27.958  0.00  0.00    +0.000 A 
ATOM     14  C   UNL     1     -33.696  60.719 -26.604  0.00  0.00    +0.000 A 
ATOM     15  C   UNL     1     -34.633  62.928 -28.008  0.00  0.00    +0.000 A 
ATOM     16  C   UNL     1     -35.069  60.975 -26.656  0.00  0.00    +0.000 A 
ATOM     17  C   UNL     1     -35.523  62.081 -27.355  0.00  0.00    +0.000 A 
BRANCH  15  18
ATOM     18  O   UNL     1     -35.153  63.996 -28.685  0.00  0.00    +0.000 OA
ATOM     19  H   UNL     1     -35.701  63.660 -29.416  0.00  0.00    +0.000 HD
ENDBRANCH  15  18
BRANCH  17  20
ATOM     20  O   UNL     1     -36.863  62.333 -27.401  0.00  0.00    +0.000 OA
ATOM     21  H   UNL     1     -37.214  61.703 -28.063  0.00  0.00    +0.000 HD
ENDBRANCH  17  20
ENDBRANCH   4  12
BRANCH   8  22
ATOM     22  O   UNL     1     -26.308  60.796 -26.582  0.00  0.00    +0.000 OA
ATOM     23  H   UNL     1     -26.173  59.975 -26.083  0.00  0.00    +0.000 HD
ENDBRANCH   8  22
BRANCH  11  24
ATOM     24  O   UNL     1     -27.206  59.704 -31.148  0.00  0.00    +0.000 OA
ATOM     25  H   UNL     1     -26.875  60.484 -31.624  0.00  0.00    +0.000 HD
ENDBRANCH  11  24
BRANCH   3  26
ATOM     26  O   UNL     1     -31.127  62.055 -24.877  0.00  0.00    +0.000 OA
BRANCH  26  32
ATOM     27  O   UNL     1     -29.986  64.027 -24.137  0.00  0.00    +0.000 OA
ATOM     28  C   UNL     1     -32.483  63.739 -22.723  0.00  0.00    +0.000 C 
ATOM     29  C   UNL     1     -31.231  64.311 -22.049  0.00  0.00    +0.000 C 
ATOM     30  C   UNL     1     -32.452  63.982 -24.232  0.00  0.00    +0.000 C 
ATOM     31  C   UNL     1     -29.983  63.738 -22.730  0.00  0.00    +0.000 C 
ATOM     32  C   UNL     1     -31.115  63.489 -24.832  0.00  0.00    +0.000 C 
ATOM     33  C   UNL     1     -28.703  64.328 -22.149  0.00  0.00    +0.000 C 
BRANCH  28  34
ATOM     34  O   UNL     1     -33.641  64.371 -22.145  0.00  0.00    +0.000 OA
ATOM     35  H   UNL     1     -33.367  65.299 -21.987  0.00  0.00    +0.000 HD
ENDBRANCH  28  34
BRANCH  29  36
ATOM     36  O   UNL     1     -31.264  63.991 -20.654  0.00  0.00    +0.000 OA
ATOM     37  H   UNL     1     -30.368  64.194 -20.319  0.00  0.00    +0.000 HD
ENDBRANCH  29  36
BRANCH  30  38
ATOM     38  O   UNL     1     -32.656  65.395 -24.446  0.00  0.00    +0.000 OA
ATOM     39  H   UNL     1     -31.845  65.853 -24.155  0.00  0.00    +0.000 HD
ENDBRANCH  30  38
ENDBRANCH  26  32
ENDBRANCH   3  26
TORSDOF 10
ENDMDL
MODEL 9
REMARK VINA RESULT:      -6.1      4.351     10.113
REMARK  Name = 
REMARK  11 active torsions:
REMARK  status: ('A' for Active; 'I' for Inactive)
REMARK    1  A    between atoms: O_2  and  C_16
REMARK    2  A    between atoms: O_2  and  C_18
REMARK    3  A    between atoms: O_3  and  C_12
REMARK    4  A    between atoms: O_4  and  C_13
REMARK    5  A    between atoms: O_5  and  C_14
REMARK    6  A    between atoms: O_8  and  C_24
REMARK    7  A    between atoms: O_9  and  C_29
REMARK    8  A    between atoms: O_10  and  C_30
REMARK    9  A    between atoms: O_11  and  C_32
REMARK   10  A    between atoms: C_15  and  C_17
REMARK   11  A    between atoms: C_19  and  C_23
REMARK                            x       y       z     vdW  Elec       q    Type
REMARK                         _______ _______ _______ _____ _____    ______ ____
ROOT
ATOM      1  O   UNL     1     -35.923  46.332  -6.977  0.00  0.00    +0.000 OA
ATOM      2  O   UNL     1     -33.382  45.332  -9.978  0.00  0.00    +0.000 OA
ATOM      3  C   UNL     1     -35.551  46.017  -9.343  0.00  0.00    +0.000 A 
ATOM      4  C   UNL     1     -36.298  46.437  -8.304  0.00  0.00    +0.000 A 
ATOM      5  C   UNL     1     -34.176  45.508  -9.063  0.00  0.00    +0.000 A 
ATOM      6  C   UNL     1     -33.834  45.272  -7.642  0.00  0.00    +0.000 A 
ATOM      7  C   UNL     1     -34.737  45.715  -6.676  0.00  0.00    +0.000 A 
ATOM      8  C   UNL     1     -32.650  44.644  -7.229  0.00  0.00    +0.000 A 
ATOM      9  C   UNL     1     -34.464  45.548  -5.316  0.00  0.00    +0.000 A 
ATOM     10  C   UNL     1     -32.372  44.470  -5.869  0.00  0.00    +0.000 A 
ATOM     11  C   UNL     1     -33.286  44.928  -4.925  0.00  0.00    +0.000 A 
ENDROOT
BRANCH   4  12
ATOM     12  C   UNL     1     -37.638  47.038  -8.473  0.00  0.00    +0.000 A 
ATOM     13  C   UNL     1     -38.773  46.209  -8.502  0.00  0.00    +0.000 A 
ATOM     14  C   UNL     1     -37.803  48.429  -8.598  0.00  0.00    +0.000 A 
ATOM     15  C   UNL     1     -40.032  46.770  -8.680  0.00  0.00    +0.000 A 
ATOM     16  C   UNL     1     -39.072  48.984  -8.781  0.00  0.00    +0.000 A 
ATOM     17  C   UNL     1     -40.175  48.147  -8.824  0.00  0.00    +0.000 A 
BRANCH  15  18
ATOM     18  O   UNL     1     -41.166  46.006  -8.725  0.00  0.00    +0.000 OA
ATOM     19  H   UNL     1     -41.906  46.533  -8.376  0.00  0.00    +0.000 HD
ENDBRANCH  15  18
BRANCH  17  20
ATOM     20  O   UNL     1     -41.414  48.690  -9.007  0.00  0.00    +0.000 OA
ATOM     21  H   UNL     1     -41.703  48.960  -8.112  0.00  0.00    +0.000 HD
ENDBRANCH  17  20
ENDBRANCH   4  12
BRANCH   8  22
ATOM     22  O   UNL     1     -31.755  44.169  -8.145  0.00  0.00    +0.000 OA
ATOM     23  H   UNL     1     -32.203  43.884  -8.957  0.00  0.00    +0.000 HD
ENDBRANCH   8  22
BRANCH  11  24
ATOM     24  O   UNL     1     -33.063  44.784  -3.588  0.00  0.00    +0.000 OA
ATOM     25  H   UNL     1     -32.209  45.186  -3.356  0.00  0.00    +0.000 HD
ENDBRANCH  11  24
BRANCH   3  26
ATOM     26  O   UNL     1     -35.940  46.127 -10.670  0.00  0.00    +0.000 OA
BRANCH  26  32
ATOM     27  O   UNL     1     -35.671  44.008 -11.753  0.00  0.00    +0.000 OA
ATOM     28  C   UNL     1     -37.203  45.786 -13.427  0.00  0.00    +0.000 C 
ATOM     29  C   UNL     1     -36.218  44.770 -14.014  0.00  0.00    +0.000 C 
ATOM     30  C   UNL     1     -37.740  45.311 -12.076  0.00  0.00    +0.000 C 
ATOM     31  C   UNL     1     -35.114  44.485 -12.988  0.00  0.00    +0.000 C 
ATOM     32  C   UNL     1     -36.576  44.928 -11.136  0.00  0.00    +0.000 C 
ATOM     33  C   UNL     1     -34.141  43.424 -13.488  0.00  0.00    +0.000 C 
BRANCH  28  34
ATOM     34  O   UNL     1     -38.290  45.957 -14.357  0.00  0.00    +0.000 OA
ATOM     35  H   UNL     1     -38.812  45.130 -14.286  0.00  0.00    +0.000 HD
ENDBRANCH  28  34
BRANCH  29  36
ATOM     36  O   UNL     1     -35.682  45.291 -15.234  0.00  0.00    +0.000 OA
ATOM     37  H   UNL     1     -35.508  44.510 -15.796  0.00  0.00    +0.000 HD
ENDBRANCH  29  36
BRANCH  30  38
ATOM     38  O   UNL     1     -38.624  44.198 -12.330  0.00  0.00    +0.000 OA
ATOM     39  H   UNL     1     -38.112  43.382 -12.181  0.00  0.00    +0.000 HD
ENDBRANCH  30  38
ENDBRANCH  26  32
ENDBRANCH   3  26
TORSDOF 10
ENDMDL
