MODEL 1
REMARK VINA RESULT:      -5.6      0.000      0.000
REMARK  Name = 
REMARK  14 active torsions:
REMARK  status: ('A' for Active; 'I' for Inactive)
REMARK    1  A    between atoms: O_1  and  C_24
REMARK    2  A    between atoms: O_1  and  C_36
REMARK    3  A    between atoms: O_4  and  C_30
REMARK    4  A    between atoms: O_4  and  C_37
REMARK    5  A    between atoms: O_7  and  C_33
REMARK    6  A    between atoms: O_7  and  C_38
REMARK    7  A    between atoms: N_10  and  C_23
REMARK    8  A    between atoms: C_15  and  C_26
REMARK    9  A    between atoms: C_16  and  C_24
REMARK   10  A    between atoms: C_31  and  C_34
REMARK   11  A    between atoms: C_32  and  C_35
REMARK   12  A    between atoms: C_36  and  C_39
REMARK   13  A    between atoms: C_39  and  C_40
REMARK   14  A    between atoms: C_41  and  C_42
REMARK                            x       y       z     vdW  Elec       q    Type
REMARK                         _______ _______ _______ _____ _____    ______ ____
ROOT
ATOM      1  O   UNL     1     -31.892  45.541 -14.625  0.00  0.00    +0.000 OA
ATOM      2  O   UNL     1     -33.054  40.353 -14.651  0.00  0.00    +0.000 OA
ATOM      3  O   UNL     1     -33.667  48.107 -18.090  0.00  0.00    +0.000 OA
ATOM      4  O   UNL     1     -34.077  44.718 -22.166  0.00  0.00    +0.000 OA
ATOM      5  N   UNL     1     -32.030  43.340 -18.693  0.00  0.00    +0.000 NA
ATOM      6  N   UNL     1     -29.603  43.080 -17.059  0.00  0.00    +0.000 NA
ATOM      7  C   UNL     1     -31.404  44.498 -18.004  0.00  0.00    +0.000 C 
ATOM      8  C   UNL     1     -30.661  44.057 -16.672  0.00  0.00    +0.000 C 
ATOM      9  C   UNL     1     -30.256  41.864 -17.609  0.00  0.00    +0.000 C 
ATOM     10  C   UNL     1     -31.047  42.232 -18.920  0.00  0.00    +0.000 C 
ATOM     11  C   UNL     1     -32.859  43.655 -19.890  0.00  0.00    +0.000 C 
ATOM     12  C   UNL     1     -32.448  45.601 -17.726  0.00  0.00    +0.000 C 
ATOM     13  C   UNL     1     -31.191  41.181 -16.572  0.00  0.00    +0.000 C 
ATOM     14  C   UNL     1     -31.631  43.456 -15.665  0.00  0.00    +0.000 C 
ATOM     15  C   UNL     1     -31.886  42.139 -15.639  0.00  0.00    +0.000 C 
ATOM     16  C   UNL     1     -33.379  45.082 -19.952  0.00  0.00    +0.000 C 
ATOM     17  C   UNL     1     -33.216  45.965 -18.959  0.00  0.00    +0.000 C 
ATOM     18  C   UNL     1     -28.638  42.810 -15.998  0.00  0.00    +0.000 C 
ATOM     19  C   UNL     1     -32.241  44.366 -14.669  0.00  0.00    +0.000 C 
ATOM     20  C   UNL     1     -32.838  41.559 -14.668  0.00  0.00    +0.000 C 
ATOM     21  C   UNL     1     -33.781  47.331 -19.032  0.00  0.00    +0.000 C 
ATOM     22  C   UNL     1     -34.051  45.490 -21.214  0.00  0.00    +0.000 C 
ATOM     23  C   UNL     1     -33.277  43.802 -13.743  0.00  0.00    +0.000 C 
ATOM     24  C   UNL     1     -33.532  42.483 -13.734  0.00  0.00    +0.000 C 
ATOM     25  C   UNL     1     -34.519  47.718 -20.260  0.00  0.00    +0.000 C 
ATOM     26  C   UNL     1     -34.668  46.856 -21.279  0.00  0.00    +0.000 C 
ATOM     27  C   UNL     1     -34.510  41.824 -12.806  0.00  0.00    +0.000 C 
ATOM     28  C   UNL     1     -35.067  49.115 -20.254  0.00  0.00    +0.000 C 
ENDROOT
BRANCH  23  29
ATOM     29  O   UNL     1     -33.943  44.619 -12.836  0.00  0.00    +0.000 OA
ATOM     30  C   UNL     1     -33.225  44.926 -11.644  0.00  0.00    +0.000 C 
ENDBRANCH  23  29
BRANCH  26  31
ATOM     31  O   UNL     1     -35.347  47.272 -22.419  0.00  0.00    +0.000 OA
ATOM     32  C   UNL     1     -36.718  46.882 -22.480  0.00  0.00    +0.000 C 
ENDBRANCH  26  31
BRANCH  10  34
ATOM     33  N   UNL     1     -29.311  42.666 -20.879  0.00  0.00    +0.000 NA
ATOM     34  C   UNL     1     -30.063  42.493 -20.011  0.00  0.00    +0.000 C 
ENDBRANCH  10  34
BRANCH  11  35
ATOM     35  C   UNL     1     -34.052  42.653 -19.909  0.00  0.00    +0.000 C 
BRANCH  35  36
ATOM     36  O   UNL     1     -34.455  42.370 -18.552  0.00  0.00    +0.000 OA
BRANCH  36  38
ATOM     37  O   UNL     1     -36.604  41.593 -18.397  0.00  0.00    +0.000 OA
ATOM     38  C   UNL     1     -35.782  42.491 -18.316  0.00  0.00    +0.000 C 
BRANCH  38  39
ATOM     39  C   UNL     1     -36.102  43.854 -17.802  0.00  0.00    +0.000 C 
ATOM     40  C   UNL     1     -35.587  44.101 -16.412  0.00  0.00    +0.000 C 
ATOM     41  C   UNL     1     -36.794  44.791 -18.480  0.00  0.00    +0.000 C 
ATOM     42  C   UNL     1     -37.455  44.671 -19.817  0.00  0.00    +0.000 C 
ENDBRANCH  38  39
ENDBRANCH  36  38
ENDBRANCH  35  36
ENDBRANCH  11  35
TORSDOF 7
ENDMDL
MODEL 2
REMARK VINA RESULT:      -5.3     20.684     23.628
REMARK  Name = 
REMARK  14 active torsions:
REMARK  status: ('A' for Active; 'I' for Inactive)
REMARK    1  A    between atoms: O_1  and  C_24
REMARK    2  A    between atoms: O_1  and  C_36
REMARK    3  A    between atoms: O_4  and  C_30
REMARK    4  A    between atoms: O_4  and  C_37
REMARK    5  A    between atoms: O_7  and  C_33
REMARK    6  A    between atoms: O_7  and  C_38
REMARK    7  A    between atoms: N_10  and  C_23
REMARK    8  A    between atoms: C_15  and  C_26
REMARK    9  A    between atoms: C_16  and  C_24
REMARK   10  A    between atoms: C_31  and  C_34
REMARK   11  A    between atoms: C_32  and  C_35
REMARK   12  A    between atoms: C_36  and  C_39
REMARK   13  A    between atoms: C_39  and  C_40
REMARK   14  A    between atoms: C_41  and  C_42
REMARK                            x       y       z     vdW  Elec       q    Type
REMARK                         _______ _______ _______ _____ _____    ______ ____
ROOT
ATOM      1  O   UNL     1     -17.588  57.666 -28.061  0.00  0.00    +0.000 OA
ATOM      2  O   UNL     1     -13.806  55.272 -30.931  0.00  0.00    +0.000 OA
ATOM      3  O   UNL     1     -17.280  57.260 -23.426  0.00  0.00    +0.000 OA
ATOM      4  O   UNL     1     -14.860  52.586 -22.668  0.00  0.00    +0.000 OA
ATOM      5  N   UNL     1     -16.039  53.540 -26.650  0.00  0.00    +0.000 NA
ATOM      6  N   UNL     1     -18.033  53.608 -28.806  0.00  0.00    +0.000 NA
ATOM      7  C   UNL     1     -17.232  54.425 -26.606  0.00  0.00    +0.000 C 
ATOM      8  C   UNL     1     -17.697  54.856 -28.063  0.00  0.00    +0.000 C 
ATOM      9  C   UNL     1     -16.795  52.804 -28.971  0.00  0.00    +0.000 C 
ATOM     10  C   UNL     1     -16.252  52.368 -27.559  0.00  0.00    +0.000 C 
ATOM     11  C   UNL     1     -15.443  53.173 -25.335  0.00  0.00    +0.000 C 
ATOM     12  C   UNL     1     -16.969  55.657 -25.714  0.00  0.00    +0.000 C 
ATOM     13  C   UNL     1     -15.703  53.565 -29.773  0.00  0.00    +0.000 C 
ATOM     14  C   UNL     1     -16.617  55.656 -28.778  0.00  0.00    +0.000 C 
ATOM     15  C   UNL     1     -15.693  55.056 -29.543  0.00  0.00    +0.000 C 
ATOM     16  C   UNL     1     -15.775  54.122 -24.194  0.00  0.00    +0.000 C 
ATOM     17  C   UNL     1     -16.448  55.266 -24.365  0.00  0.00    +0.000 C 
ATOM     18  C   UNL     1     -18.760  53.845 -30.050  0.00  0.00    +0.000 C 
ATOM     19  C   UNL     1     -16.657  57.130 -28.654  0.00  0.00    +0.000 C 
ATOM     20  C   UNL     1     -14.639  55.834 -30.228  0.00  0.00    +0.000 C 
ATOM     21  C   UNL     1     -16.708  56.191 -23.240  0.00  0.00    +0.000 C 
ATOM     22  C   UNL     1     -15.357  53.696 -22.833  0.00  0.00    +0.000 C 
ATOM     23  C   UNL     1     -15.538  57.919 -29.267  0.00  0.00    +0.000 C 
ATOM     24  C   UNL     1     -14.612  57.305 -30.021  0.00  0.00    +0.000 C 
ATOM     25  C   UNL     1     -16.225  55.804 -21.891  0.00  0.00    +0.000 C 
ATOM     26  C   UNL     1     -15.573  54.647 -21.694  0.00  0.00    +0.000 C 
ATOM     27  C   UNL     1     -13.490  58.019 -30.718  0.00  0.00    +0.000 C 
ATOM     28  C   UNL     1     -16.521  56.798 -20.804  0.00  0.00    +0.000 C 
ENDROOT
BRANCH  23  29
ATOM     29  O   UNL     1     -15.475  59.300 -29.120  0.00  0.00    +0.000 OA
ATOM     30  C   UNL     1     -14.919  59.761 -27.891  0.00  0.00    +0.000 C 
ENDBRANCH  23  29
BRANCH  26  31
ATOM     31  O   UNL     1     -15.160  54.317 -20.407  0.00  0.00    +0.000 OA
ATOM     32  C   UNL     1     -13.820  54.690 -20.090  0.00  0.00    +0.000 C 
ENDBRANCH  26  31
BRANCH  10  34
ATOM     33  N   UNL     1     -17.833  50.491 -26.549  0.00  0.00    +0.000 NA
ATOM     34  C   UNL     1     -17.154  51.314 -27.008  0.00  0.00    +0.000 C 
ENDBRANCH  10  34
BRANCH  11  35
ATOM     35  C   UNL     1     -13.899  53.094 -25.529  0.00  0.00    +0.000 C 
BRANCH  35  36
ATOM     36  O   UNL     1     -13.421  54.353 -26.048  0.00  0.00    +0.000 OA
BRANCH  36  38
ATOM     37  O   UNL     1     -11.153  54.645 -26.168  0.00  0.00    +0.000 OA
ATOM     38  C   UNL     1     -12.215  54.742 -25.575  0.00  0.00    +0.000 C 
BRANCH  38  39
ATOM     39  C   UNL     1     -12.364  55.441 -24.267  0.00  0.00    +0.000 C 
ATOM     40  C   UNL     1     -11.791  54.670 -23.112  0.00  0.00    +0.000 C 
ATOM     41  C   UNL     1     -12.961  56.638 -24.095  0.00  0.00    +0.000 C 
ATOM     42  C   UNL     1     -13.664  57.478 -25.113  0.00  0.00    +0.000 C 
ENDBRANCH  38  39
ENDBRANCH  36  38
ENDBRANCH  35  36
ENDBRANCH  11  35
TORSDOF 7
ENDMDL
MODEL 3
REMARK VINA RESULT:      -5.2      2.614      7.037
REMARK  Name = 
REMARK  14 active torsions:
REMARK  status: ('A' for Active; 'I' for Inactive)
REMARK    1  A    between atoms: O_1  and  C_24
REMARK    2  A    between atoms: O_1  and  C_36
REMARK    3  A    between atoms: O_4  and  C_30
REMARK    4  A    between atoms: O_4  and  C_37
REMARK    5  A    between atoms: O_7  and  C_33
REMARK    6  A    between atoms: O_7  and  C_38
REMARK    7  A    between atoms: N_10  and  C_23
REMARK    8  A    between atoms: C_15  and  C_26
REMARK    9  A    between atoms: C_16  and  C_24
REMARK   10  A    between atoms: C_31  and  C_34
REMARK   11  A    between atoms: C_32  and  C_35
REMARK   12  A    between atoms: C_36  and  C_39
REMARK   13  A    between atoms: C_39  and  C_40
REMARK   14  A    between atoms: C_41  and  C_42
REMARK                            x       y       z     vdW  Elec       q    Type
REMARK                         _______ _______ _______ _____ _____    ______ ____
ROOT
ATOM      1  O   UNL     1     -33.223  48.214 -18.583  0.00  0.00    +0.000 OA
ATOM      2  O   UNL     1     -38.280  46.615 -18.941  0.00  0.00    +0.000 OA
ATOM      3  O   UNL     1     -30.049  44.939 -17.611  0.00  0.00    +0.000 OA
ATOM      4  O   UNL     1     -32.705  41.338 -14.739  0.00  0.00    +0.000 OA
ATOM      5  N   UNL     1     -34.721  44.985 -15.626  0.00  0.00    +0.000 NA
ATOM      6  N   UNL     1     -35.351  47.794 -15.045  0.00  0.00    +0.000 NA
ATOM      7  C   UNL     1     -33.720  46.073 -15.769  0.00  0.00    +0.000 C 
ATOM      8  C   UNL     1     -34.405  47.456 -16.146  0.00  0.00    +0.000 C 
ATOM      9  C   UNL     1     -36.431  46.775 -15.014  0.00  0.00    +0.000 C 
ATOM     10  C   UNL     1     -35.819  45.363 -14.679  0.00  0.00    +0.000 C 
ATOM     11  C   UNL     1     -34.179  43.617 -15.394  0.00  0.00    +0.000 C 
ATOM     12  C   UNL     1     -32.632  45.688 -16.795  0.00  0.00    +0.000 C 
ATOM     13  C   UNL     1     -37.233  46.729 -16.344  0.00  0.00    +0.000 C 
ATOM     14  C   UNL     1     -35.119  47.376 -17.488  0.00  0.00    +0.000 C 
ATOM     15  C   UNL     1     -36.410  47.021 -17.574  0.00  0.00    +0.000 C 
ATOM     16  C   UNL     1     -32.738  43.415 -15.839  0.00  0.00    +0.000 C 
ATOM     17  C   UNL     1     -32.038  44.345 -16.498  0.00  0.00    +0.000 C 
ATOM     18  C   UNL     1     -35.833  49.172 -15.090  0.00  0.00    +0.000 C 
ATOM     19  C   UNL     1     -34.358  47.765 -18.697  0.00  0.00    +0.000 C 
ATOM     20  C   UNL     1     -37.098  46.933 -18.879  0.00  0.00    +0.000 C 
ATOM     21  C   UNL     1     -30.655  44.094 -16.962  0.00  0.00    +0.000 C 
ATOM     22  C   UNL     1     -32.101  42.128 -15.458  0.00  0.00    +0.000 C 
ATOM     23  C   UNL     1     -35.020  47.588 -20.032  0.00  0.00    +0.000 C 
ATOM     24  C   UNL     1     -36.310  47.221 -20.105  0.00  0.00    +0.000 C 
ATOM     25  C   UNL     1     -30.041  42.780 -16.649  0.00  0.00    +0.000 C 
ATOM     26  C   UNL     1     -30.717  41.845 -15.963  0.00  0.00    +0.000 C 
ATOM     27  C   UNL     1     -37.068  47.073 -21.392  0.00  0.00    +0.000 C 
ATOM     28  C   UNL     1     -28.640  42.600 -17.159  0.00  0.00    +0.000 C 
ENDROOT
BRANCH  23  29
ATOM     29  O   UNL     1     -34.333  47.862 -21.209  0.00  0.00    +0.000 OA
ATOM     30  C   UNL     1     -34.333  49.228 -21.616  0.00  0.00    +0.000 C 
ENDBRANCH  23  29
BRANCH  26  31
ATOM     31  O   UNL     1     -30.090  40.637 -15.674  0.00  0.00    +0.000 OA
ATOM     32  C   UNL     1     -30.436  39.557 -16.538  0.00  0.00    +0.000 C 
ENDBRANCH  26  31
BRANCH  10  34
ATOM     33  N   UNL     1     -35.094  45.356 -12.127  0.00  0.00    +0.000 NA
ATOM     34  C   UNL     1     -35.427  45.345 -13.239  0.00  0.00    +0.000 C 
ENDBRANCH  10  34
BRANCH  11  35
ATOM     35  C   UNL     1     -35.110  42.613 -16.136  0.00  0.00    +0.000 C 
BRANCH  35  36
ATOM     36  O   UNL     1     -35.501  43.178 -17.405  0.00  0.00    +0.000 OA
BRANCH  36  38
ATOM     37  O   UNL     1     -34.233  41.616 -18.500  0.00  0.00    +0.000 OA
ATOM     38  C   UNL     1     -34.855  42.665 -18.478  0.00  0.00    +0.000 C 
BRANCH  38  39
ATOM     39  C   UNL     1     -35.114  43.492 -19.692  0.00  0.00    +0.000 C 
ATOM     40  C   UNL     1     -36.557  43.495 -20.111  0.00  0.00    +0.000 C 
ATOM     41  C   UNL     1     -34.173  44.171 -20.378  0.00  0.00    +0.000 C 
ATOM     42  C   UNL     1     -32.694  44.190 -20.155  0.00  0.00    +0.000 C 
ENDBRANCH  38  39
ENDBRANCH  36  38
ENDBRANCH  35  36
ENDBRANCH  11  35
TORSDOF 7
ENDMDL
MODEL 4
REMARK VINA RESULT:      -5.1     18.989     21.340
REMARK  Name = 
REMARK  14 active torsions:
REMARK  status: ('A' for Active; 'I' for Inactive)
REMARK    1  A    between atoms: O_1  and  C_24
REMARK    2  A    between atoms: O_1  and  C_36
REMARK    3  A    between atoms: O_4  and  C_30
REMARK    4  A    between atoms: O_4  and  C_37
REMARK    5  A    between atoms: O_7  and  C_33
REMARK    6  A    between atoms: O_7  and  C_38
REMARK    7  A    between atoms: N_10  and  C_23
REMARK    8  A    between atoms: C_15  and  C_26
REMARK    9  A    between atoms: C_16  and  C_24
REMARK   10  A    between atoms: C_31  and  C_34
REMARK   11  A    between atoms: C_32  and  C_35
REMARK   12  A    between atoms: C_36  and  C_39
REMARK   13  A    between atoms: C_39  and  C_40
REMARK   14  A    between atoms: C_41  and  C_42
REMARK                            x       y       z     vdW  Elec       q    Type
REMARK                         _______ _______ _______ _____ _____    ______ ____
ROOT
ATOM      1  O   UNL     1     -38.922  62.636  -4.304  0.00  0.00    +0.000 OA
ATOM      2  O   UNL     1     -36.695  58.034  -5.763  0.00  0.00    +0.000 OA
ATOM      3  O   UNL     1     -40.565  65.350  -7.721  0.00  0.00    +0.000 OA
ATOM      4  O   UNL     1     -37.480  64.222 -11.902  0.00  0.00    +0.000 OA
ATOM      5  N   UNL     1     -36.343  62.564  -8.145  0.00  0.00    +0.000 NA
ATOM      6  N   UNL     1     -34.967  62.737  -5.556  0.00  0.00    +0.000 NA
ATOM      7  C   UNL     1     -36.804  63.463  -7.056  0.00  0.00    +0.000 C 
ATOM      8  C   UNL     1     -36.450  62.878  -5.622  0.00  0.00    +0.000 C 
ATOM      9  C   UNL     1     -34.539  61.722  -6.552  0.00  0.00    +0.000 C 
ATOM     10  C   UNL     1     -34.892  62.220  -8.004  0.00  0.00    +0.000 C 
ATOM     11  C   UNL     1     -36.731  62.954  -9.529  0.00  0.00    +0.000 C 
ATOM     12  C   UNL     1     -38.314  63.755  -7.186  0.00  0.00    +0.000 C 
ATOM     13  C   UNL     1     -35.170  60.329  -6.276  0.00  0.00    +0.000 C 
ATOM     14  C   UNL     1     -37.145  61.546  -5.377  0.00  0.00    +0.000 C 
ATOM     15  C   UNL     1     -36.562  60.382  -5.699  0.00  0.00    +0.000 C 
ATOM     16  C   UNL     1     -37.935  63.878  -9.622  0.00  0.00    +0.000 C 
ATOM     17  C   UNL     1     -38.674  64.227  -8.561  0.00  0.00    +0.000 C 
ATOM     18  C   UNL     1     -34.461  62.500  -4.207  0.00  0.00    +0.000 C 
ATOM     19  C   UNL     1     -38.468  61.572  -4.711  0.00  0.00    +0.000 C 
ATOM     20  C   UNL     1     -37.244  59.091  -5.471  0.00  0.00    +0.000 C 
ATOM     21  C   UNL     1     -39.870  65.086  -8.696  0.00  0.00    +0.000 C 
ATOM     22  C   UNL     1     -38.240  64.440 -10.964  0.00  0.00    +0.000 C 
ATOM     23  C   UNL     1     -39.206  60.275  -4.562  0.00  0.00    +0.000 C 
ATOM     24  C   UNL     1     -38.615  59.117  -4.899  0.00  0.00    +0.000 C 
ATOM     25  C   UNL     1     -40.223  65.587 -10.047  0.00  0.00    +0.000 C 
ATOM     26  C   UNL     1     -39.477  65.273 -11.119  0.00  0.00    +0.000 C 
ATOM     27  C   UNL     1     -39.255  57.769  -4.733  0.00  0.00    +0.000 C 
ATOM     28  C   UNL     1     -41.453  66.447 -10.103  0.00  0.00    +0.000 C 
ENDROOT
BRANCH  23  29
ATOM     29  O   UNL     1     -40.484  60.241  -4.015  0.00  0.00    +0.000 OA
ATOM     30  C   UNL     1     -40.541  60.226  -2.591  0.00  0.00    +0.000 C 
ENDBRANCH  23  29
BRANCH  26  31
ATOM     31  O   UNL     1     -39.834  65.786 -12.362  0.00  0.00    +0.000 OA
ATOM     32  C   UNL     1     -39.112  66.948 -12.765  0.00  0.00    +0.000 C 
ENDBRANCH  26  31
BRANCH  10  34
ATOM     33  N   UNL     1     -33.202  64.168  -8.627  0.00  0.00    +0.000 NA
ATOM     34  C   UNL     1     -33.956  63.324  -8.367  0.00  0.00    +0.000 C 
ENDBRANCH  10  34
BRANCH  11  35
ATOM     35  C   UNL     1     -37.004  61.643 -10.325  0.00  0.00    +0.000 C 
BRANCH  35  36
ATOM     36  O   UNL     1     -37.597  60.668  -9.442  0.00  0.00    +0.000 OA
BRANCH  36  38
ATOM     37  O   UNL     1     -38.799  59.028 -10.497  0.00  0.00    +0.000 OA
ATOM     38  C   UNL     1     -38.731  60.094  -9.907  0.00  0.00    +0.000 C 
BRANCH  38  39
ATOM     39  C   UNL     1     -39.927  60.877  -9.484  0.00  0.00    +0.000 C 
ATOM     40  C   UNL     1     -40.217  60.769  -8.013  0.00  0.00    +0.000 C 
ATOM     41  C   UNL     1     -40.704  61.606 -10.309  0.00  0.00    +0.000 C 
ATOM     42  C   UNL     1     -40.613  61.734 -11.797  0.00  0.00    +0.000 C 
ENDBRANCH  38  39
ENDBRANCH  36  38
ENDBRANCH  35  36
ENDBRANCH  11  35
TORSDOF 7
ENDMDL
MODEL 5
REMARK VINA RESULT:      -5.1     19.102     22.138
REMARK  Name = 
REMARK  14 active torsions:
REMARK  status: ('A' for Active; 'I' for Inactive)
REMARK    1  A    between atoms: O_1  and  C_24
REMARK    2  A    between atoms: O_1  and  C_36
REMARK    3  A    between atoms: O_4  and  C_30
REMARK    4  A    between atoms: O_4  and  C_37
REMARK    5  A    between atoms: O_7  and  C_33
REMARK    6  A    between atoms: O_7  and  C_38
REMARK    7  A    between atoms: N_10  and  C_23
REMARK    8  A    between atoms: C_15  and  C_26
REMARK    9  A    between atoms: C_16  and  C_24
REMARK   10  A    between atoms: C_31  and  C_34
REMARK   11  A    between atoms: C_32  and  C_35
REMARK   12  A    between atoms: C_36  and  C_39
REMARK   13  A    between atoms: C_39  and  C_40
REMARK   14  A    between atoms: C_41  and  C_42
REMARK                            x       y       z     vdW  Elec       q    Type
REMARK                         _______ _______ _______ _____ _____    ______ ____
ROOT
ATOM      1  O   UNL     1     -32.379  66.286 -26.420  0.00  0.00    +0.000 OA
ATOM      2  O   UNL     1     -34.434  61.698 -24.690  0.00  0.00    +0.000 OA
ATOM      3  O   UNL     1     -27.742  66.469 -26.882  0.00  0.00    +0.000 OA
ATOM      4  O   UNL     1     -25.916  63.072 -23.221  0.00  0.00    +0.000 OA
ATOM      5  N   UNL     1     -30.086  63.945 -23.152  0.00  0.00    +0.000 NA
ATOM      6  N   UNL     1     -32.363  65.607 -22.327  0.00  0.00    +0.000 NA
ATOM      7  C   UNL     1     -30.306  65.317 -23.680  0.00  0.00    +0.000 C 
ATOM      8  C   UNL     1     -31.849  65.689 -23.724  0.00  0.00    +0.000 C 
ATOM      9  C   UNL     1     -32.275  64.197 -21.868  0.00  0.00    +0.000 C 
ATOM     10  C   UNL     1     -30.767  63.743 -21.833  0.00  0.00    +0.000 C 
ATOM     11  C   UNL     1     -28.684  63.445 -23.182  0.00  0.00    +0.000 C 
ATOM     12  C   UNL     1     -29.649  65.484 -25.066  0.00  0.00    +0.000 C 
ATOM     13  C   UNL     1     -33.120  63.238 -22.752  0.00  0.00    +0.000 C 
ATOM     14  C   UNL     1     -32.620  64.763 -24.654  0.00  0.00    +0.000 C 
ATOM     15  C   UNL     1     -33.181  63.630 -24.207  0.00  0.00    +0.000 C 
ATOM     16  C   UNL     1     -27.775  64.144 -24.181  0.00  0.00    +0.000 C 
ATOM     17  C   UNL     1     -28.213  65.055 -25.058  0.00  0.00    +0.000 C 
ATOM     18  C   UNL     1     -33.682  66.209 -22.151  0.00  0.00    +0.000 C 
ATOM     19  C   UNL     1     -32.784  65.184 -26.064  0.00  0.00    +0.000 C 
ATOM     20  C   UNL     1     -33.918  62.726 -25.115  0.00  0.00    +0.000 C 
ATOM     21  C   UNL     1     -27.311  65.676 -26.052  0.00  0.00    +0.000 C 
ATOM     22  C   UNL     1     -26.329  63.806 -24.113  0.00  0.00    +0.000 C 
ATOM     23  C   UNL     1     -33.449  64.230 -27.011  0.00  0.00    +0.000 C 
ATOM     24  C   UNL     1     -33.997  63.093 -26.553  0.00  0.00    +0.000 C 
ATOM     25  C   UNL     1     -25.879  65.284 -26.037  0.00  0.00    +0.000 C 
ATOM     26  C   UNL     1     -25.414  64.394 -25.146  0.00  0.00    +0.000 C 
ATOM     27  C   UNL     1     -34.728  62.107 -27.416  0.00  0.00    +0.000 C 
ATOM     28  C   UNL     1     -25.030  65.952 -27.080  0.00  0.00    +0.000 C 
ENDROOT
BRANCH  23  29
ATOM     29  O   UNL     1     -33.565  64.533 -28.363  0.00  0.00    +0.000 OA
ATOM     30  C   UNL     1     -32.376  64.373 -29.132  0.00  0.00    +0.000 C 
ENDBRANCH  23  29
BRANCH  26  31
ATOM     31  O   UNL     1     -24.060  64.076 -25.156  0.00  0.00    +0.000 OA
ATOM     32  C   UNL     1     -23.263  64.805 -24.225  0.00  0.00    +0.000 C 
ENDBRANCH  26  31
BRANCH  10  34
ATOM     33  N   UNL     1     -29.606  64.958 -19.780  0.00  0.00    +0.000 NA
ATOM     34  C   UNL     1     -30.096  64.415 -20.682  0.00  0.00    +0.000 C 
ENDBRANCH  10  34
BRANCH  11  35
ATOM     35  C   UNL     1     -28.738  61.919 -23.489  0.00  0.00    +0.000 C 
BRANCH  35  36
ATOM     36  O   UNL     1     -29.870  61.647 -24.341  0.00  0.00    +0.000 OA
BRANCH  36  38
ATOM     37  O   UNL     1     -29.760  59.607 -25.377  0.00  0.00    +0.000 OA
ATOM     38  C   UNL     1     -29.614  60.819 -25.380  0.00  0.00    +0.000 C 
BRANCH  38  39
ATOM     39  C   UNL     1     -29.250  61.600 -26.597  0.00  0.00    +0.000 C 
ATOM     40  C   UNL     1     -30.436  62.226 -27.276  0.00  0.00    +0.000 C 
ATOM     41  C   UNL     1     -27.999  61.740 -27.079  0.00  0.00    +0.000 C 
ATOM     42  C   UNL     1     -26.738  61.105 -26.586  0.00  0.00    +0.000 C 
ENDBRANCH  38  39
ENDBRANCH  36  38
ENDBRANCH  35  36
ENDBRANCH  11  35
TORSDOF 7
ENDMDL
MODEL 6
REMARK VINA RESULT:      -5.0      3.684      8.083
REMARK  Name = 
REMARK  14 active torsions:
REMARK  status: ('A' for Active; 'I' for Inactive)
REMARK    1  A    between atoms: O_1  and  C_24
REMARK    2  A    between atoms: O_1  and  C_36
REMARK    3  A    between atoms: O_4  and  C_30
REMARK    4  A    between atoms: O_4  and  C_37
REMARK    5  A    between atoms: O_7  and  C_33
REMARK    6  A    between atoms: O_7  and  C_38
REMARK    7  A    between atoms: N_10  and  C_23
REMARK    8  A    between atoms: C_15  and  C_26
REMARK    9  A    between atoms: C_16  and  C_24
REMARK   10  A    between atoms: C_31  and  C_34
REMARK   11  A    between atoms: C_32  and  C_35
REMARK   12  A    between atoms: C_36  and  C_39
REMARK   13  A    between atoms: C_39  and  C_40
REMARK   14  A    between atoms: C_41  and  C_42
REMARK                            x       y       z     vdW  Elec       q    Type
REMARK                         _______ _______ _______ _____ _____    ______ ____
ROOT
ATOM      1  O   UNL     1     -32.457  46.058 -16.772  0.00  0.00    +0.000 OA
ATOM      2  O   UNL     1     -36.854  45.381 -19.684  0.00  0.00    +0.000 OA
ATOM      3  O   UNL     1     -32.799  45.152 -12.210  0.00  0.00    +0.000 OA
ATOM      4  O   UNL     1     -37.875  46.210 -11.031  0.00  0.00    +0.000 OA
ATOM      5  N   UNL     1     -36.523  47.277 -14.929  0.00  0.00    +0.000 NA
ATOM      6  N   UNL     1     -35.232  49.144 -16.792  0.00  0.00    +0.000 NA
ATOM      7  C   UNL     1     -35.070  47.581 -14.874  0.00  0.00    +0.000 C 
ATOM      8  C   UNL     1     -34.491  47.944 -16.308  0.00  0.00    +0.000 C 
ATOM      9  C   UNL     1     -36.659  48.779 -16.985  0.00  0.00    +0.000 C 
ATOM     10  C   UNL     1     -37.294  48.371 -15.602  0.00  0.00    +0.000 C 
ATOM     11  C   UNL     1     -37.145  46.804 -13.660  0.00  0.00    +0.000 C 
ATOM     12  C   UNL     1     -34.288  46.415 -14.232  0.00  0.00    +0.000 C 
ATOM     13  C   UNL     1     -36.838  47.645 -18.032  0.00  0.00    +0.000 C 
ATOM     14  C   UNL     1     -34.631  46.777 -17.276  0.00  0.00    +0.000 C 
ATOM     15  C   UNL     1     -35.719  46.634 -18.048  0.00  0.00    +0.000 C 
ATOM     16  C   UNL     1     -36.174  46.209 -12.653  0.00  0.00    +0.000 C 
ATOM     17  C   UNL     1     -34.877  46.007 -12.917  0.00  0.00    +0.000 C 
ATOM     18  C   UNL     1     -34.618  49.781 -17.953  0.00  0.00    +0.000 C 
ATOM     19  C   UNL     1     -33.495  45.834 -17.386  0.00  0.00    +0.000 C 
ATOM     20  C   UNL     1     -35.857  45.494 -18.978  0.00  0.00    +0.000 C 
ATOM     21  C   UNL     1     -33.972  45.377 -11.931  0.00  0.00    +0.000 C 
ATOM     22  C   UNL     1     -36.721  45.898 -11.307  0.00  0.00    +0.000 C 
ATOM     23  C   UNL     1     -33.666  44.625 -18.257  0.00  0.00    +0.000 C 
ATOM     24  C   UNL     1     -34.765  44.487 -19.016  0.00  0.00    +0.000 C 
ATOM     25  C   UNL     1     -34.532  44.995 -10.611  0.00  0.00    +0.000 C 
ATOM     26  C   UNL     1     -35.824  45.216 -10.317  0.00  0.00    +0.000 C 
ATOM     27  C   UNL     1     -34.997  43.341 -19.957  0.00  0.00    +0.000 C 
ATOM     28  C   UNL     1     -33.554  44.355  -9.669  0.00  0.00    +0.000 C 
ENDROOT
BRANCH  23  29
ATOM     29  O   UNL     1     -32.667  43.662 -18.343  0.00  0.00    +0.000 OA
ATOM     30  C   UNL     1     -31.581  43.980 -19.210  0.00  0.00    +0.000 C 
ENDBRANCH  23  29
BRANCH  26  31
ATOM     31  O   UNL     1     -36.298  44.862  -9.058  0.00  0.00    +0.000 OA
ATOM     32  C   UNL     1     -36.292  45.913  -8.094  0.00  0.00    +0.000 C 
ENDBRANCH  26  31
BRANCH  10  34
ATOM     33  N   UNL     1     -37.567  50.571 -14.145  0.00  0.00    +0.000 NA
ATOM     34  C   UNL     1     -37.468  49.603 -14.778  0.00  0.00    +0.000 C 
ENDBRANCH  10  34
BRANCH  11  35
ATOM     35  C   UNL     1     -38.232  45.753 -14.036  0.00  0.00    +0.000 C 
BRANCH  35  36
ATOM     36  O   UNL     1     -37.724  44.900 -15.083  0.00  0.00    +0.000 OA
BRANCH  36  38
ATOM     37  O   UNL     1     -38.798  42.879 -14.983  0.00  0.00    +0.000 OA
ATOM     38  C   UNL     1     -37.807  43.574 -14.826  0.00  0.00    +0.000 C 
BRANCH  38  39
ATOM     39  C   UNL     1     -36.472  43.027 -14.447  0.00  0.00    +0.000 C 
ATOM     40  C   UNL     1     -35.463  43.101 -15.558  0.00  0.00    +0.000 C 
ATOM     41  C   UNL     1     -36.168  42.499 -13.245  0.00  0.00    +0.000 C 
ATOM     42  C   UNL     1     -37.075  42.261 -12.079  0.00  0.00    +0.000 C 
ENDBRANCH  38  39
ENDBRANCH  36  38
ENDBRANCH  35  36
ENDBRANCH  11  35
TORSDOF 7
ENDMDL
MODEL 7
REMARK VINA RESULT:      -5.0      7.455     10.338
REMARK  Name = 
REMARK  14 active torsions:
REMARK  status: ('A' for Active; 'I' for Inactive)
REMARK    1  A    between atoms: O_1  and  C_24
REMARK    2  A    between atoms: O_1  and  C_36
REMARK    3  A    between atoms: O_4  and  C_30
REMARK    4  A    between atoms: O_4  and  C_37
REMARK    5  A    between atoms: O_7  and  C_33
REMARK    6  A    between atoms: O_7  and  C_38
REMARK    7  A    between atoms: N_10  and  C_23
REMARK    8  A    between atoms: C_15  and  C_26
REMARK    9  A    between atoms: C_16  and  C_24
REMARK   10  A    between atoms: C_31  and  C_34
REMARK   11  A    between atoms: C_32  and  C_35
REMARK   12  A    between atoms: C_36  and  C_39
REMARK   13  A    between atoms: C_39  and  C_40
REMARK   14  A    between atoms: C_41  and  C_42
REMARK                            x       y       z     vdW  Elec       q    Type
REMARK                         _______ _______ _______ _____ _____    ______ ____
ROOT
ATOM      1  O   UNL     1     -34.273  46.352  -7.437  0.00  0.00    +0.000 OA
ATOM      2  O   UNL     1     -35.502  41.248  -8.281  0.00  0.00    +0.000 OA
ATOM      3  O   UNL     1     -37.774  49.422  -7.676  0.00  0.00    +0.000 OA
ATOM      4  O   UNL     1     -41.197  47.256 -11.120  0.00  0.00    +0.000 OA
ATOM      5  N   UNL     1     -37.408  45.355 -10.692  0.00  0.00    +0.000 NA
ATOM      6  N   UNL     1     -34.565  45.080 -11.377  0.00  0.00    +0.000 NA
ATOM      7  C   UNL     1     -36.393  46.371 -10.309  0.00  0.00    +0.000 C 
ATOM      8  C   UNL     1     -34.962  45.718 -10.089  0.00  0.00    +0.000 C 
ATOM      9  C   UNL     1     -35.505  43.967 -11.668  0.00  0.00    +0.000 C 
ATOM     10  C   UNL     1     -36.959  44.538 -11.865  0.00  0.00    +0.000 C 
ATOM     11  C   UNL     1     -38.813  45.838 -10.805  0.00  0.00    +0.000 C 
ATOM     12  C   UNL     1     -36.848  47.160  -9.063  0.00  0.00    +0.000 C 
ATOM     13  C   UNL     1     -35.483  42.877 -10.561  0.00  0.00    +0.000 C 
ATOM     14  C   UNL     1     -34.981  44.707  -8.951  0.00  0.00    +0.000 C 
ATOM     15  C   UNL     1     -35.242  43.410  -9.171  0.00  0.00    +0.000 C 
ATOM     16  C   UNL     1     -39.115  47.116 -10.039  0.00  0.00    +0.000 C 
ATOM     17  C   UNL     1     -38.232  47.709  -9.226  0.00  0.00    +0.000 C 
ATOM     18  C   UNL     1     -33.156  44.701 -11.432  0.00  0.00    +0.000 C 
ATOM     19  C   UNL     1     -34.639  45.191  -7.594  0.00  0.00    +0.000 C 
ATOM     20  C   UNL     1     -35.271  42.432  -8.063  0.00  0.00    +0.000 C 
ATOM     21  C   UNL     1     -38.578  48.924  -8.456  0.00  0.00    +0.000 C 
ATOM     22  C   UNL     1     -40.447  47.732 -10.274  0.00  0.00    +0.000 C 
ATOM     23  C   UNL     1     -34.758  44.226  -6.452  0.00  0.00    +0.000 C 
ATOM     24  C   UNL     1     -35.031  42.933  -6.684  0.00  0.00    +0.000 C 
ATOM     25  C   UNL     1     -39.935  49.499  -8.630  0.00  0.00    +0.000 C 
ATOM     26  C   UNL     1     -40.825  48.936  -9.463  0.00  0.00    +0.000 C 
ATOM     27  C   UNL     1     -35.115  41.887  -5.610  0.00  0.00    +0.000 C 
ATOM     28  C   UNL     1     -40.212  50.726  -7.810  0.00  0.00    +0.000 C 
ENDROOT
BRANCH  23  29
ATOM     29  O   UNL     1     -34.525  44.639  -5.144  0.00  0.00    +0.000 OA
ATOM     30  C   UNL     1     -33.162  44.623  -4.729  0.00  0.00    +0.000 C 
ENDBRANCH  23  29
BRANCH  26  31
ATOM     31  O   UNL     1     -42.076  49.525  -9.610  0.00  0.00    +0.000 OA
ATOM     32  C   UNL     1     -42.198  50.414 -10.719  0.00  0.00    +0.000 C 
ENDBRANCH  26  31
BRANCH  10  34
ATOM     33  N   UNL     1     -37.039  45.779 -14.208  0.00  0.00    +0.000 NA
ATOM     34  C   UNL     1     -37.016  45.252 -13.174  0.00  0.00    +0.000 C 
ENDBRANCH  10  34
BRANCH  11  35
ATOM     35  C   UNL     1     -39.742  44.690 -10.309  0.00  0.00    +0.000 C 
BRANCH  35  36
ATOM     36  O   UNL     1     -39.128  44.038  -9.177  0.00  0.00    +0.000 OA
BRANCH  36  38
ATOM     37  O   UNL     1     -40.838  44.744  -7.827  0.00  0.00    +0.000 OA
ATOM     38  C   UNL     1     -39.713  44.298  -7.985  0.00  0.00    +0.000 C 
BRANCH  38  39
ATOM     39  C   UNL     1     -38.846  43.838  -6.863  0.00  0.00    +0.000 C 
ATOM     40  C   UNL     1     -38.730  42.342  -6.777  0.00  0.00    +0.000 C 
ATOM     41  C   UNL     1     -38.225  44.650  -5.985  0.00  0.00    +0.000 C 
ATOM     42  C   UNL     1     -38.318  46.139  -5.871  0.00  0.00    +0.000 C 
ENDBRANCH  38  39
ENDBRANCH  36  38
ENDBRANCH  35  36
ENDBRANCH  11  35
TORSDOF 7
ENDMDL
MODEL 8
REMARK VINA RESULT:      -5.0      8.781     13.733
REMARK  Name = 
REMARK  14 active torsions:
REMARK  status: ('A' for Active; 'I' for Inactive)
REMARK    1  A    between atoms: O_1  and  C_24
REMARK    2  A    between atoms: O_1  and  C_36
REMARK    3  A    between atoms: O_4  and  C_30
REMARK    4  A    between atoms: O_4  and  C_37
REMARK    5  A    between atoms: O_7  and  C_33
REMARK    6  A    between atoms: O_7  and  C_38
REMARK    7  A    between atoms: N_10  and  C_23
REMARK    8  A    between atoms: C_15  and  C_26
REMARK    9  A    between atoms: C_16  and  C_24
REMARK   10  A    between atoms: C_31  and  C_34
REMARK   11  A    between atoms: C_32  and  C_35
REMARK   12  A    between atoms: C_36  and  C_39
REMARK   13  A    between atoms: C_39  and  C_40
REMARK   14  A    between atoms: C_41  and  C_42
REMARK                            x       y       z     vdW  Elec       q    Type
REMARK                         _______ _______ _______ _____ _____    ______ ____
ROOT
ATOM      1  O   UNL     1     -38.222  42.035  -8.776  0.00  0.00    +0.000 OA
ATOM      2  O   UNL     1     -33.401  43.836 -10.111  0.00  0.00    +0.000 OA
ATOM      3  O   UNL     1     -39.272  42.014  -4.233  0.00  0.00    +0.000 OA
ATOM      4  O   UNL     1     -34.588  41.368  -1.799  0.00  0.00    +0.000 OA
ATOM      5  N   UNL     1     -34.644  40.972  -6.041  0.00  0.00    +0.000 NA
ATOM      6  N   UNL     1     -35.041  39.386  -8.481  0.00  0.00    +0.000 NA
ATOM      7  C   UNL     1     -35.982  40.486  -6.468  0.00  0.00    +0.000 C 
ATOM      8  C   UNL     1     -36.084  40.360  -8.048  0.00  0.00    +0.000 C 
ATOM      9  C   UNL     1     -33.703  39.956  -8.182  0.00  0.00    +0.000 C 
ATOM     10  C   UNL     1     -33.541  40.144  -6.627  0.00  0.00    +0.000 C 
ATOM     11  C   UNL     1     -34.476  41.244  -4.586  0.00  0.00    +0.000 C 
ATOM     12  C   UNL     1     -37.100  41.389  -5.904  0.00  0.00    +0.000 C 
ATOM     13  C   UNL     1     -33.455  41.295  -8.930  0.00  0.00    +0.000 C 
ATOM     14  C   UNL     1     -35.901  41.709  -8.728  0.00  0.00    +0.000 C 
ATOM     15  C   UNL     1     -34.690  42.142  -9.110  0.00  0.00    +0.000 C 
ATOM     16  C   UNL     1     -35.770  41.494  -3.827  0.00  0.00    +0.000 C 
ATOM     17  C   UNL     1     -36.964  41.585  -4.425  0.00  0.00    +0.000 C 
ATOM     18  C   UNL     1     -35.202  38.932  -9.859  0.00  0.00    +0.000 C 
ATOM     19  C   UNL     1     -37.115  42.508  -9.012  0.00  0.00    +0.000 C 
ATOM     20  C   UNL     1     -34.513  43.458  -9.759  0.00  0.00    +0.000 C 
ATOM     21  C   UNL     1     -38.196  41.881  -3.660  0.00  0.00    +0.000 C 
ATOM     22  C   UNL     1     -35.664  41.585  -2.347  0.00  0.00    +0.000 C 
ATOM     23  C   UNL     1     -36.935  43.882  -9.584  0.00  0.00    +0.000 C 
ATOM     24  C   UNL     1     -35.716  44.308  -9.952  0.00  0.00    +0.000 C 
ATOM     25  C   UNL     1     -38.083  42.048  -2.190  0.00  0.00    +0.000 C 
ATOM     26  C   UNL     1     -36.898  41.932  -1.569  0.00  0.00    +0.000 C 
ATOM     27  C   UNL     1     -35.449  45.644 -10.583  0.00  0.00    +0.000 C 
ATOM     28  C   UNL     1     -39.374  42.353  -1.487  0.00  0.00    +0.000 C 
ENDROOT
BRANCH  23  29
ATOM     29  O   UNL     1     -38.030  44.712  -9.802  0.00  0.00    +0.000 OA
ATOM     30  C   UNL     1     -38.503  45.417  -8.657  0.00  0.00    +0.000 C 
ENDBRANCH  23  29
BRANCH  26  31
ATOM     31  O   UNL     1     -36.847  42.073  -0.186  0.00  0.00    +0.000 OA
ATOM     32  C   UNL     1     -36.958  40.857   0.550  0.00  0.00    +0.000 C 
ENDBRANCH  26  31
BRANCH  10  34
ATOM     33  N   UNL     1     -33.236  37.740  -5.546  0.00  0.00    +0.000 NA
ATOM     34  C   UNL     1     -33.377  38.799  -6.000  0.00  0.00    +0.000 C 
ENDBRANCH  10  34
BRANCH  11  35
ATOM     35  C   UNL     1     -33.532  42.476  -4.448  0.00  0.00    +0.000 C 
BRANCH  35  36
ATOM     36  O   UNL     1     -33.776  43.385  -5.542  0.00  0.00    +0.000 OA
BRANCH  36  38
ATOM     37  O   UNL     1     -33.525  45.248  -4.233  0.00  0.00    +0.000 OA
ATOM     38  C   UNL     1     -34.035  44.661  -5.174  0.00  0.00    +0.000 C 
BRANCH  38  39
ATOM     39  C   UNL     1     -34.938  45.320  -6.161  0.00  0.00    +0.000 C 
ATOM     40  C   UNL     1     -36.391  45.004  -5.938  0.00  0.00    +0.000 C 
ATOM     41  C   UNL     1     -34.530  46.111  -7.172  0.00  0.00    +0.000 C 
ATOM     42  C   UNL     1     -33.131  46.439  -7.588  0.00  0.00    +0.000 C 
ENDBRANCH  38  39
ENDBRANCH  36  38
ENDBRANCH  35  36
ENDBRANCH  11  35
TORSDOF 7
ENDMDL
MODEL 9
REMARK VINA RESULT:      -5.0     18.579     21.895
REMARK  Name = 
REMARK  14 active torsions:
REMARK  status: ('A' for Active; 'I' for Inactive)
REMARK    1  A    between atoms: O_1  and  C_24
REMARK    2  A    between atoms: O_1  and  C_36
REMARK    3  A    between atoms: O_4  and  C_30
REMARK    4  A    between atoms: O_4  and  C_37
REMARK    5  A    between atoms: O_7  and  C_33
REMARK    6  A    between atoms: O_7  and  C_38
REMARK    7  A    between atoms: N_10  and  C_23
REMARK    8  A    between atoms: C_15  and  C_26
REMARK    9  A    between atoms: C_16  and  C_24
REMARK   10  A    between atoms: C_31  and  C_34
REMARK   11  A    between atoms: C_32  and  C_35
REMARK   12  A    between atoms: C_36  and  C_39
REMARK   13  A    between atoms: C_39  and  C_40
REMARK   14  A    between atoms: C_41  and  C_42
REMARK                            x       y       z     vdW  Elec       q    Type
REMARK                         _______ _______ _______ _____ _____    ______ ____
ROOT
ATOM      1  O   UNL     1     -30.351  64.197 -30.663  0.00  0.00    +0.000 OA
ATOM      2  O   UNL     1     -27.685  59.598 -30.555  0.00  0.00    +0.000 OA
ATOM      3  O   UNL     1     -31.615  65.987 -26.547  0.00  0.00    +0.000 OA
ATOM      4  O   UNL     1     -32.241  61.748 -23.399  0.00  0.00    +0.000 OA
ATOM      5  N   UNL     1     -31.591  61.010 -27.545  0.00  0.00    +0.000 NA
ATOM      6  N   UNL     1     -32.568  60.708 -30.298  0.00  0.00    +0.000 NA
ATOM      7  C   UNL     1     -32.122  62.152 -28.333  0.00  0.00    +0.000 C 
ATOM      8  C   UNL     1     -31.870  61.960 -29.889  0.00  0.00    +0.000 C 
ATOM      9  C   UNL     1     -31.925  59.557 -29.614  0.00  0.00    +0.000 C 
ATOM     10  C   UNL     1     -32.104  59.698 -28.055  0.00  0.00    +0.000 C 
ATOM     11  C   UNL     1     -31.663  61.142 -26.063  0.00  0.00    +0.000 C 
ATOM     12  C   UNL     1     -31.533  63.487 -27.829  0.00  0.00    +0.000 C 
ATOM     13  C   UNL     1     -30.423  59.418 -29.988  0.00  0.00    +0.000 C 
ATOM     14  C   UNL     1     -30.383  61.896 -30.209  0.00  0.00    +0.000 C 
ATOM     15  C   UNL     1     -29.721  60.730 -30.231  0.00  0.00    +0.000 C 
ATOM     16  C   UNL     1     -31.772  62.569 -25.551  0.00  0.00    +0.000 C 
ATOM     17  C   UNL     1     -31.689  63.642 -26.347  0.00  0.00    +0.000 C 
ATOM     18  C   UNL     1     -32.688  60.550 -31.744  0.00  0.00    +0.000 C 
ATOM     19  C   UNL     1     -29.699  63.162 -30.558  0.00  0.00    +0.000 C 
ATOM     20  C   UNL     1     -28.275  60.672 -30.530  0.00  0.00    +0.000 C 
ATOM     21  C   UNL     1     -31.746  65.018 -25.808  0.00  0.00    +0.000 C 
ATOM     22  C   UNL     1     -32.033  62.735 -24.097  0.00  0.00    +0.000 C 
ATOM     23  C   UNL     1     -28.215  63.125 -30.770  0.00  0.00    +0.000 C 
ATOM     24  C   UNL     1     -27.561  61.952 -30.779  0.00  0.00    +0.000 C 
ATOM     25  C   UNL     1     -31.931  65.188 -24.345  0.00  0.00    +0.000 C 
ATOM     26  C   UNL     1     -32.046  64.125 -23.533  0.00  0.00    +0.000 C 
ATOM     27  C   UNL     1     -26.089  61.813 -31.037  0.00  0.00    +0.000 C 
ATOM     28  C   UNL     1     -31.972  66.613 -23.874  0.00  0.00    +0.000 C 
ENDROOT
BRANCH  23  29
ATOM     29  O   UNL     1     -27.502  64.291 -31.025  0.00  0.00    +0.000 OA
ATOM     30  C   UNL     1     -27.532  64.747 -32.375  0.00  0.00    +0.000 C 
ENDBRANCH  23  29
BRANCH  26  31
ATOM     31  O   UNL     1     -32.241  64.335 -22.172  0.00  0.00    +0.000 OA
ATOM     32  C   UNL     1     -31.076  64.179 -21.364  0.00  0.00    +0.000 C 
ENDBRANCH  26  31
BRANCH  10  34
ATOM     33  N   UNL     1     -34.628  59.196 -27.411  0.00  0.00    +0.000 NA
ATOM     34  C   UNL     1     -33.530  59.417 -27.714  0.00  0.00    +0.000 C 
ENDBRANCH  10  34
BRANCH  11  35
ATOM     35  C   UNL     1     -30.394  60.459 -25.471  0.00  0.00    +0.000 C 
BRANCH  35  36
ATOM     36  O   UNL     1     -29.260  60.757 -26.312  0.00  0.00    +0.000 OA
BRANCH  36  38
ATOM     37  O   UNL     1     -28.289  61.948 -24.613  0.00  0.00    +0.000 OA
ATOM     38  C   UNL     1     -28.385  61.649 -25.792  0.00  0.00    +0.000 C 
BRANCH  38  39
ATOM     39  C   UNL     1     -27.441  62.132 -26.841  0.00  0.00    +0.000 C 
ATOM     40  C   UNL     1     -26.522  61.059 -27.352  0.00  0.00    +0.000 C 
ATOM     41  C   UNL     1     -27.379  63.398 -27.299  0.00  0.00    +0.000 C 
ATOM     42  C   UNL     1     -28.145  64.594 -26.828  0.00  0.00    +0.000 C 
ENDBRANCH  38  39
ENDBRANCH  36  38
ENDBRANCH  35  36
ENDBRANCH  11  35
TORSDOF 7
ENDMDL
