MODEL 1
REMARK VINA RESULT:      -6.2      0.000      0.000
REMARK  Name = Resveratrol.pdbqt.pdb
REMARK  5 active torsions:
REMARK  status: ('A' for Active; 'I' for Inactive)
REMARK    1  A    between atoms: C_1  and  C_11
REMARK    2  A    between atoms: C_4  and  O_7
REMARK    3  A    between atoms: C_5  and  O_9
REMARK    4  A    between atoms: C_12  and  C_13
REMARK    5  A    between atoms: C_18  and  O_19
REMARK                            x       y       z     vdW  Elec       q    Type
REMARK                         _______ _______ _______ _____ _____    ______ ____
ROOT
ATOM      1  C   UNL     1     -34.626  45.947  -7.330  0.00  0.00    +0.000 A 
ATOM      2  C   UNL     1     -33.611  45.375  -8.095  0.00  0.00    +0.000 A 
ATOM      3  C   UNL     1     -34.590  45.860  -5.938  0.00  0.00    +0.000 A 
ATOM      4  C   UNL     1     -33.531  45.199  -5.321  0.00  0.00    +0.000 A 
ATOM      5  C   UNL     1     -32.562  44.718  -7.459  0.00  0.00    +0.000 A 
ATOM      6  C   UNL     1     -32.511  44.625  -6.072  0.00  0.00    +0.000 A 
ENDROOT
BRANCH   4   7
ATOM      7  O   UNL     1     -33.468  45.100  -3.961  0.00  0.00    +0.000 OA
ATOM      8  H   UNL     1     -33.193  45.964  -3.606  0.00  0.00    +0.000 HD
ENDBRANCH   4   7
BRANCH   5   9
ATOM      9  O   UNL     1     -31.579  44.166  -8.229  0.00  0.00    +0.000 OA
ATOM     10  H   UNL     1     -31.931  44.055  -9.131  0.00  0.00    +0.000 HD
ENDBRANCH   5   9
BRANCH   1  11
ATOM     11  C   UNL     1     -35.708  46.621  -7.970  0.00  0.00    +0.000 C 
ATOM     12  C   UNL     1     -36.619  47.189  -8.508  0.00  0.00    +0.000 C 
BRANCH  12  13
ATOM     13  C   UNL     1     -37.700  47.864  -9.148  0.00  0.00    +0.000 A 
ATOM     14  C   UNL     1     -38.409  48.849  -8.459  0.00  0.00    +0.000 A 
ATOM     15  C   UNL     1     -38.047  47.538 -10.459  0.00  0.00    +0.000 A 
ATOM     16  C   UNL     1     -39.464  49.510  -9.081  0.00  0.00    +0.000 A 
ATOM     17  C   UNL     1     -39.102  48.196 -11.084  0.00  0.00    +0.000 A 
ATOM     18  C   UNL     1     -39.803  49.177 -10.390  0.00  0.00    +0.000 A 
BRANCH  18  19
ATOM     19  O   UNL     1     -40.833  49.809 -11.024  0.00  0.00    +0.000 OA
ATOM     20  H   UNL     1     -41.635  49.704 -10.482  0.00  0.00    +0.000 HD
ENDBRANCH  18  19
ENDBRANCH  12  13
ENDBRANCH   1  11
TORSDOF 5
ENDMDL
MODEL 2
REMARK VINA RESULT:      -6.2      0.036      2.325
REMARK  Name = Resveratrol.pdbqt.pdb
REMARK  5 active torsions:
REMARK  status: ('A' for Active; 'I' for Inactive)
REMARK    1  A    between atoms: C_1  and  C_11
REMARK    2  A    between atoms: C_4  and  O_7
REMARK    3  A    between atoms: C_5  and  O_9
REMARK    4  A    between atoms: C_12  and  C_13
REMARK    5  A    between atoms: C_18  and  O_19
REMARK                            x       y       z     vdW  Elec       q    Type
REMARK                         _______ _______ _______ _____ _____    ______ ____
ROOT
ATOM      1  C   UNL     1     -34.641  45.959  -7.348  0.00  0.00    +0.000 A 
ATOM      2  C   UNL     1     -34.590  45.879  -5.957  0.00  0.00    +0.000 A 
ATOM      3  C   UNL     1     -33.635  45.381  -8.121  0.00  0.00    +0.000 A 
ATOM      4  C   UNL     1     -32.581  44.724  -7.493  0.00  0.00    +0.000 A 
ATOM      5  C   UNL     1     -33.527  45.219  -5.349  0.00  0.00    +0.000 A 
ATOM      6  C   UNL     1     -32.516  44.636  -6.107  0.00  0.00    +0.000 A 
ENDROOT
BRANCH   4   7
ATOM      7  O   UNL     1     -31.583  44.148  -8.225  0.00  0.00    +0.000 OA
ATOM      8  H   UNL     1     -31.708  44.398  -9.158  0.00  0.00    +0.000 HD
ENDBRANCH   4   7
BRANCH   5   9
ATOM      9  O   UNL     1     -33.498  45.153  -3.985  0.00  0.00    +0.000 OA
ATOM     10  H   UNL     1     -34.061  44.408  -3.708  0.00  0.00    +0.000 HD
ENDBRANCH   5   9
BRANCH   1  11
ATOM     11  C   UNL     1     -35.725  46.634  -7.983  0.00  0.00    +0.000 C 
ATOM     12  C   UNL     1     -36.637  47.204  -8.519  0.00  0.00    +0.000 C 
BRANCH  12  13
ATOM     13  C   UNL     1     -37.720  47.878  -9.155  0.00  0.00    +0.000 A 
ATOM     14  C   UNL     1     -38.064  47.558 -10.468  0.00  0.00    +0.000 A 
ATOM     15  C   UNL     1     -38.433  48.857  -8.463  0.00  0.00    +0.000 A 
ATOM     16  C   UNL     1     -39.121  48.215 -11.091  0.00  0.00    +0.000 A 
ATOM     17  C   UNL     1     -39.491  49.516  -9.082  0.00  0.00    +0.000 A 
ATOM     18  C   UNL     1     -39.826  49.190 -10.392  0.00  0.00    +0.000 A 
BRANCH  18  19
ATOM     19  O   UNL     1     -40.867  49.850 -10.978  0.00  0.00    +0.000 OA
ATOM     20  H   UNL     1     -40.716  50.807 -10.880  0.00  0.00    +0.000 HD
ENDBRANCH  18  19
ENDBRANCH  12  13
ENDBRANCH   1  11
TORSDOF 5
ENDMDL
MODEL 3
REMARK VINA RESULT:      -5.3     26.497     28.399
REMARK  Name = Resveratrol.pdbqt.pdb
REMARK  5 active torsions:
REMARK  status: ('A' for Active; 'I' for Inactive)
REMARK    1  A    between atoms: C_1  and  C_11
REMARK    2  A    between atoms: C_4  and  O_7
REMARK    3  A    between atoms: C_5  and  O_9
REMARK    4  A    between atoms: C_12  and  C_13
REMARK    5  A    between atoms: C_18  and  O_19
REMARK                            x       y       z     vdW  Elec       q    Type
REMARK                         _______ _______ _______ _____ _____    ______ ____
ROOT
ATOM      1  C   UNL     1     -18.077  54.911 -28.191  0.00  0.00    +0.000 A 
ATOM      2  C   UNL     1     -18.188  56.177 -28.763  0.00  0.00    +0.000 A 
ATOM      3  C   UNL     1     -18.588  53.794 -28.852  0.00  0.00    +0.000 A 
ATOM      4  C   UNL     1     -19.208  53.956 -30.088  0.00  0.00    +0.000 A 
ATOM      5  C   UNL     1     -18.812  56.317 -29.999  0.00  0.00    +0.000 A 
ATOM      6  C   UNL     1     -19.325  55.213 -30.672  0.00  0.00    +0.000 A 
ENDROOT
BRANCH   4   7
ATOM      7  O   UNL     1     -19.717  52.881 -30.759  0.00  0.00    +0.000 OA
ATOM      8  H   UNL     1     -19.032  52.551 -31.367  0.00  0.00    +0.000 HD
ENDBRANCH   4   7
BRANCH   5   9
ATOM      9  O   UNL     1     -18.908  57.567 -30.540  0.00  0.00    +0.000 OA
ATOM     10  H   UNL     1     -19.515  58.088 -29.985  0.00  0.00    +0.000 HD
ENDBRANCH   5   9
BRANCH   1  11
ATOM     11  C   UNL     1     -17.440  54.754 -26.924  0.00  0.00    +0.000 C 
ATOM     12  C   UNL     1     -16.904  54.622 -25.857  0.00  0.00    +0.000 C 
BRANCH  12  13
ATOM     13  C   UNL     1     -16.266  54.466 -24.591  0.00  0.00    +0.000 A 
ATOM     14  C   UNL     1     -15.607  53.275 -24.287  0.00  0.00    +0.000 A 
ATOM     15  C   UNL     1     -16.304  55.504 -23.661  0.00  0.00    +0.000 A 
ATOM     16  C   UNL     1     -14.984  53.120 -23.053  0.00  0.00    +0.000 A 
ATOM     17  C   UNL     1     -15.682  55.353 -22.424  0.00  0.00    +0.000 A 
ATOM     18  C   UNL     1     -15.027  54.162 -22.130  0.00  0.00    +0.000 A 
BRANCH  18  19
ATOM     19  O   UNL     1     -14.425  54.037 -20.912  0.00  0.00    +0.000 OA
ATOM     20  H   UNL     1     -13.504  53.758 -21.054  0.00  0.00    +0.000 HD
ENDBRANCH  18  19
ENDBRANCH  12  13
ENDBRANCH   1  11
TORSDOF 5
ENDMDL
MODEL 4
REMARK VINA RESULT:      -5.2     26.632     28.496
REMARK  Name = Resveratrol.pdbqt.pdb
REMARK  5 active torsions:
REMARK  status: ('A' for Active; 'I' for Inactive)
REMARK    1  A    between atoms: C_1  and  C_11
REMARK    2  A    between atoms: C_4  and  O_7
REMARK    3  A    between atoms: C_5  and  O_9
REMARK    4  A    between atoms: C_12  and  C_13
REMARK    5  A    between atoms: C_18  and  O_19
REMARK                            x       y       z     vdW  Elec       q    Type
REMARK                         _______ _______ _______ _____ _____    ______ ____
ROOT
ATOM      1  C   UNL     1     -18.123  54.853 -28.454  0.00  0.00    +0.000 A 
ATOM      2  C   UNL     1     -18.700  53.756 -29.094  0.00  0.00    +0.000 A 
ATOM      3  C   UNL     1     -18.166  56.114 -29.048  0.00  0.00    +0.000 A 
ATOM      4  C   UNL     1     -18.790  56.268 -30.283  0.00  0.00    +0.000 A 
ATOM      5  C   UNL     1     -19.318  53.931 -30.328  0.00  0.00    +0.000 A 
ATOM      6  C   UNL     1     -19.370  55.183 -30.933  0.00  0.00    +0.000 A 
ENDROOT
BRANCH   4   7
ATOM      7  O   UNL     1     -18.848  57.490 -30.887  0.00  0.00    +0.000 OA
ATOM      8  H   UNL     1     -18.866  58.172 -30.192  0.00  0.00    +0.000 HD
ENDBRANCH   4   7
BRANCH   5   9
ATOM      9  O   UNL     1     -19.876  52.843 -30.935  0.00  0.00    +0.000 OA
ATOM     10  H   UNL     1     -20.780  53.082 -31.208  0.00  0.00    +0.000 HD
ENDBRANCH   5   9
BRANCH   1  11
ATOM     11  C   UNL     1     -17.486  54.686 -27.190  0.00  0.00    +0.000 C 
ATOM     12  C   UNL     1     -16.949  54.544 -26.124  0.00  0.00    +0.000 C 
BRANCH  12  13
ATOM     13  C   UNL     1     -16.311  54.377 -24.860  0.00  0.00    +0.000 A 
ATOM     14  C   UNL     1     -16.271  55.438 -23.956  0.00  0.00    +0.000 A 
ATOM     15  C   UNL     1     -15.729  53.153 -24.531  0.00  0.00    +0.000 A 
ATOM     16  C   UNL     1     -15.650  55.277 -22.721  0.00  0.00    +0.000 A 
ATOM     17  C   UNL     1     -15.106  52.988 -23.297  0.00  0.00    +0.000 A 
ATOM     18  C   UNL     1     -15.071  54.052 -22.401  0.00  0.00    +0.000 A 
BRANCH  18  19
ATOM     19  O   UNL     1     -14.455  53.866 -21.198  0.00  0.00    +0.000 OA
ATOM     20  H   UNL     1     -15.083  54.103 -20.494  0.00  0.00    +0.000 HD
ENDBRANCH  18  19
ENDBRANCH  12  13
ENDBRANCH   1  11
TORSDOF 5
ENDMDL
MODEL 5
REMARK VINA RESULT:      -5.1      4.039      7.527
REMARK  Name = Resveratrol.pdbqt.pdb
REMARK  5 active torsions:
REMARK  status: ('A' for Active; 'I' for Inactive)
REMARK    1  A    between atoms: C_1  and  C_11
REMARK    2  A    between atoms: C_4  and  O_7
REMARK    3  A    between atoms: C_5  and  O_9
REMARK    4  A    between atoms: C_12  and  C_13
REMARK    5  A    between atoms: C_18  and  O_19
REMARK                            x       y       z     vdW  Elec       q    Type
REMARK                         _______ _______ _______ _____ _____    ______ ____
ROOT
ATOM      1  C   UNL     1     -33.779  45.203 -12.164  0.00  0.00    +0.000 A 
ATOM      2  C   UNL     1     -34.696  46.008 -12.839  0.00  0.00    +0.000 A 
ATOM      3  C   UNL     1     -32.901  44.388 -12.878  0.00  0.00    +0.000 A 
ATOM      4  C   UNL     1     -32.947  44.387 -14.270  0.00  0.00    +0.000 A 
ATOM      5  C   UNL     1     -34.725  45.992 -14.230  0.00  0.00    +0.000 A 
ATOM      6  C   UNL     1     -33.855  45.185 -14.957  0.00  0.00    +0.000 A 
ENDROOT
BRANCH   4   7
ATOM      7  O   UNL     1     -32.099  43.600 -14.995  0.00  0.00    +0.000 OA
ATOM      8  H   UNL     1     -31.729  42.924 -14.400  0.00  0.00    +0.000 HD
ENDBRANCH   4   7
BRANCH   5   9
ATOM      9  O   UNL     1     -35.631  46.789 -14.870  0.00  0.00    +0.000 OA
ATOM     10  H   UNL     1     -35.422  46.777 -15.821  0.00  0.00    +0.000 HD
ENDBRANCH   5   9
BRANCH   1  11
ATOM     11  C   UNL     1     -33.740  45.210 -10.739  0.00  0.00    +0.000 C 
ATOM     12  C   UNL     1     -33.706  45.215  -9.538  0.00  0.00    +0.000 C 
BRANCH  12  13
ATOM     13  C   UNL     1     -33.665  45.221  -8.112  0.00  0.00    +0.000 A 
ATOM     14  C   UNL     1     -34.746  45.726  -7.389  0.00  0.00    +0.000 A 
ATOM     15  C   UNL     1     -32.546  44.724  -7.446  0.00  0.00    +0.000 A 
ATOM     16  C   UNL     1     -34.709  45.733  -5.997  0.00  0.00    +0.000 A 
ATOM     17  C   UNL     1     -32.505  44.730  -6.054  0.00  0.00    +0.000 A 
ATOM     18  C   UNL     1     -33.587  45.235  -5.341  0.00  0.00    +0.000 A 
BRANCH  18  19
ATOM     19  O   UNL     1     -33.523  45.230  -3.978  0.00  0.00    +0.000 OA
ATOM     20  H   UNL     1     -33.100  46.057  -3.689  0.00  0.00    +0.000 HD
ENDBRANCH  18  19
ENDBRANCH  12  13
ENDBRANCH   1  11
TORSDOF 5
ENDMDL
MODEL 6
REMARK VINA RESULT:      -5.0     10.194     11.660
REMARK  Name = Resveratrol.pdbqt.pdb
REMARK  5 active torsions:
REMARK  status: ('A' for Active; 'I' for Inactive)
REMARK    1  A    between atoms: C_1  and  C_11
REMARK    2  A    between atoms: C_4  and  O_7
REMARK    3  A    between atoms: C_5  and  O_9
REMARK    4  A    between atoms: C_12  and  C_13
REMARK    5  A    between atoms: C_18  and  O_19
REMARK                            x       y       z     vdW  Elec       q    Type
REMARK                         _______ _______ _______ _____ _____    ______ ____
ROOT
ATOM      1  C   UNL     1     -33.435  46.818 -17.700  0.00  0.00    +0.000 A 
ATOM      2  C   UNL     1     -33.871  47.262 -16.452  0.00  0.00    +0.000 A 
ATOM      3  C   UNL     1     -32.575  45.724 -17.794  0.00  0.00    +0.000 A 
ATOM      4  C   UNL     1     -32.158  45.079 -16.632  0.00  0.00    +0.000 A 
ATOM      5  C   UNL     1     -33.442  46.604 -15.304  0.00  0.00    +0.000 A 
ATOM      6  C   UNL     1     -32.586  45.511 -15.381  0.00  0.00    +0.000 A 
ENDROOT
BRANCH   4   7
ATOM      7  O   UNL     1     -31.318  44.005 -16.695  0.00  0.00    +0.000 OA
ATOM      8  H   UNL     1     -31.348  43.546 -15.836  0.00  0.00    +0.000 HD
ENDBRANCH   4   7
BRANCH   5   9
ATOM      9  O   UNL     1     -33.883  47.057 -14.093  0.00  0.00    +0.000 OA
ATOM     10  H   UNL     1     -33.971  48.025 -14.148  0.00  0.00    +0.000 HD
ENDBRANCH   5   9
BRANCH   1  11
ATOM     11  C   UNL     1     -33.866  47.485 -18.884  0.00  0.00    +0.000 C 
ATOM     12  C   UNL     1     -34.230  48.047 -19.882  0.00  0.00    +0.000 C 
BRANCH  12  13
ATOM     13  C   UNL     1     -34.661  48.715 -21.066  0.00  0.00    +0.000 A 
ATOM     14  C   UNL     1     -34.997  50.067 -21.018  0.00  0.00    +0.000 A 
ATOM     15  C   UNL     1     -34.746  48.013 -22.268  0.00  0.00    +0.000 A 
ATOM     16  C   UNL     1     -35.418  50.721 -22.172  0.00  0.00    +0.000 A 
ATOM     17  C   UNL     1     -35.167  48.664 -23.425  0.00  0.00    +0.000 A 
ATOM     18  C   UNL     1     -35.500  50.013 -23.368  0.00  0.00    +0.000 A 
BRANCH  18  19
ATOM     19  O   UNL     1     -35.909  50.629 -24.514  0.00  0.00    +0.000 OA
ATOM     20  H   UNL     1     -36.567  51.306 -24.279  0.00  0.00    +0.000 HD
ENDBRANCH  18  19
ENDBRANCH  12  13
ENDBRANCH   1  11
TORSDOF 5
ENDMDL
MODEL 7
REMARK VINA RESULT:      -5.0     27.425     29.234
REMARK  Name = Resveratrol.pdbqt.pdb
REMARK  5 active torsions:
REMARK  status: ('A' for Active; 'I' for Inactive)
REMARK    1  A    between atoms: C_1  and  C_11
REMARK    2  A    between atoms: C_4  and  O_7
REMARK    3  A    between atoms: C_5  and  O_9
REMARK    4  A    between atoms: C_12  and  C_13
REMARK    5  A    between atoms: C_18  and  O_19
REMARK                            x       y       z     vdW  Elec       q    Type
REMARK                         _______ _______ _______ _____ _____    ______ ____
ROOT
ATOM      1  C   UNL     1     -19.698  53.769 -30.977  0.00  0.00    +0.000 A 
ATOM      2  C   UNL     1     -20.361  52.723 -31.616  0.00  0.00    +0.000 A 
ATOM      3  C   UNL     1     -19.816  55.073 -31.457  0.00  0.00    +0.000 A 
ATOM      4  C   UNL     1     -20.603  55.320 -32.579  0.00  0.00    +0.000 A 
ATOM      5  C   UNL     1     -21.141  52.991 -32.736  0.00  0.00    +0.000 A 
ATOM      6  C   UNL     1     -21.270  54.286 -33.227  0.00  0.00    +0.000 A 
ENDROOT
BRANCH   4   7
ATOM      7  O   UNL     1     -20.737  56.586 -33.071  0.00  0.00    +0.000 OA
ATOM      8  H   UNL     1     -21.681  56.742 -33.253  0.00  0.00    +0.000 HD
ENDBRANCH   4   7
BRANCH   5   9
ATOM      9  O   UNL     1     -21.782  51.951 -33.346  0.00  0.00    +0.000 OA
ATOM     10  H   UNL     1     -21.279  51.715 -34.146  0.00  0.00    +0.000 HD
ENDBRANCH   5   9
BRANCH   1  11
ATOM     11  C   UNL     1     -18.894  53.507 -29.828  0.00  0.00    +0.000 C 
ATOM     12  C   UNL     1     -18.218  53.287 -28.860  0.00  0.00    +0.000 C 
BRANCH  12  13
ATOM     13  C   UNL     1     -17.415  53.025 -27.711  0.00  0.00    +0.000 A 
ATOM     14  C   UNL     1     -17.085  54.065 -26.842  0.00  0.00    +0.000 A 
ATOM     15  C   UNL     1     -16.962  51.730 -27.459  0.00  0.00    +0.000 A 
ATOM     16  C   UNL     1     -16.302  53.811 -25.720  0.00  0.00    +0.000 A 
ATOM     17  C   UNL     1     -16.178  51.472 -26.338  0.00  0.00    +0.000 A 
ATOM     18  C   UNL     1     -15.854  52.516 -25.477  0.00  0.00    +0.000 A 
BRANCH  18  19
ATOM     19  O   UNL     1     -15.084  52.239 -24.384  0.00  0.00    +0.000 OA
ATOM     20  H   UNL     1     -15.200  52.958 -23.740  0.00  0.00    +0.000 HD
ENDBRANCH  18  19
ENDBRANCH  12  13
ENDBRANCH   1  11
TORSDOF 5
ENDMDL
MODEL 8
REMARK VINA RESULT:      -4.9     27.307     29.151
REMARK  Name = Resveratrol.pdbqt.pdb
REMARK  5 active torsions:
REMARK  status: ('A' for Active; 'I' for Inactive)
REMARK    1  A    between atoms: C_1  and  C_11
REMARK    2  A    between atoms: C_4  and  O_7
REMARK    3  A    between atoms: C_5  and  O_9
REMARK    4  A    between atoms: C_12  and  C_13
REMARK    5  A    between atoms: C_18  and  O_19
REMARK                            x       y       z     vdW  Elec       q    Type
REMARK                         _______ _______ _______ _____ _____    ______ ____
ROOT
ATOM      1  C   UNL     1     -19.323  53.804 -30.544  0.00  0.00    +0.000 A 
ATOM      2  C   UNL     1     -19.327  55.108 -31.037  0.00  0.00    +0.000 A 
ATOM      3  C   UNL     1     -20.081  52.815 -31.170  0.00  0.00    +0.000 A 
ATOM      4  C   UNL     1     -20.841  53.141 -32.290  0.00  0.00    +0.000 A 
ATOM      5  C   UNL     1     -20.094  55.413 -32.157  0.00  0.00    +0.000 A 
ATOM      6  C   UNL     1     -20.855  54.437 -32.793  0.00  0.00    +0.000 A 
ENDROOT
BRANCH   4   7
ATOM      7  O   UNL     1     -21.592  52.193 -32.923  0.00  0.00    +0.000 OA
ATOM      8  H   UNL     1     -22.486  52.554 -33.057  0.00  0.00    +0.000 HD
ENDBRANCH   4   7
BRANCH   5   9
ATOM      9  O   UNL     1     -20.083  56.697 -32.622  0.00  0.00    +0.000 OA
ATOM     10  H   UNL     1     -20.783  56.779 -33.293  0.00  0.00    +0.000 HD
ENDBRANCH   5   9
BRANCH   1  11
ATOM     11  C   UNL     1     -18.541  53.478 -29.396  0.00  0.00    +0.000 C 
ATOM     12  C   UNL     1     -17.884  53.204 -28.429  0.00  0.00    +0.000 C 
BRANCH  12  13
ATOM     13  C   UNL     1     -17.102  52.878 -27.282  0.00  0.00    +0.000 A 
ATOM     14  C   UNL     1     -16.722  51.556 -27.053  0.00  0.00    +0.000 A 
ATOM     15  C   UNL     1     -16.720  53.881 -26.392  0.00  0.00    +0.000 A 
ATOM     16  C   UNL     1     -15.959  51.235 -25.934  0.00  0.00    +0.000 A 
ATOM     17  C   UNL     1     -15.958  53.565 -25.271  0.00  0.00    +0.000 A 
ATOM     18  C   UNL     1     -15.583  52.243 -25.051  0.00  0.00    +0.000 A 
BRANCH  18  19
ATOM     19  O   UNL     1     -14.835  51.957 -23.946  0.00  0.00    +0.000 OA
ATOM     20  H   UNL     1     -14.057  52.541 -23.945  0.00  0.00    +0.000 HD
ENDBRANCH  18  19
ENDBRANCH  12  13
ENDBRANCH   1  11
TORSDOF 5
ENDMDL
MODEL 9
REMARK VINA RESULT:      -4.9     25.219     26.367
REMARK  Name = Resveratrol.pdbqt.pdb
REMARK  5 active torsions:
REMARK  status: ('A' for Active; 'I' for Inactive)
REMARK    1  A    between atoms: C_1  and  C_11
REMARK    2  A    between atoms: C_4  and  O_7
REMARK    3  A    between atoms: C_5  and  O_9
REMARK    4  A    between atoms: C_12  and  C_13
REMARK    5  A    between atoms: C_18  and  O_19
REMARK                            x       y       z     vdW  Elec       q    Type
REMARK                         _______ _______ _______ _____ _____    ______ ____
ROOT
ATOM      1  C   UNL     1     -16.013  55.145 -22.912  0.00  0.00    +0.000 A 
ATOM      2  C   UNL     1     -15.506  53.948 -22.409  0.00  0.00    +0.000 A 
ATOM      3  C   UNL     1     -16.302  55.269 -24.271  0.00  0.00    +0.000 A 
ATOM      4  C   UNL     1     -16.082  54.187 -25.119  0.00  0.00    +0.000 A 
ATOM      5  C   UNL     1     -15.293  52.879 -23.274  0.00  0.00    +0.000 A 
ATOM      6  C   UNL     1     -15.577  52.986 -24.631  0.00  0.00    +0.000 A 
ENDROOT
BRANCH   4   7
ATOM      7  O   UNL     1     -16.356  54.280 -26.453  0.00  0.00    +0.000 OA
ATOM      8  H   UNL     1     -16.059  53.457 -26.882  0.00  0.00    +0.000 HD
ENDBRANCH   4   7
BRANCH   5   9
ATOM      9  O   UNL     1     -14.796  51.716 -22.759  0.00  0.00    +0.000 OA
ATOM     10  H   UNL     1     -14.991  51.703 -21.805  0.00  0.00    +0.000 HD
ENDBRANCH   5   9
BRANCH   1  11
ATOM     11  C   UNL     1     -16.235  56.248 -22.037  0.00  0.00    +0.000 C 
ATOM     12  C   UNL     1     -16.422  57.178 -21.299  0.00  0.00    +0.000 C 
BRANCH  12  13
ATOM     13  C   UNL     1     -16.644  58.282 -20.424  0.00  0.00    +0.000 A 
ATOM     14  C   UNL     1     -16.751  58.069 -19.050  0.00  0.00    +0.000 A 
ATOM     15  C   UNL     1     -16.755  59.571 -20.944  0.00  0.00    +0.000 A 
ATOM     16  C   UNL     1     -16.967  59.145 -18.194  0.00  0.00    +0.000 A 
ATOM     17  C   UNL     1     -16.971  60.650 -20.092  0.00  0.00    +0.000 A 
ATOM     18  C   UNL     1     -17.077  60.428 -18.722  0.00  0.00    +0.000 A 
BRANCH  18  19
ATOM     19  O   UNL     1     -17.289  61.501 -17.906  0.00  0.00    +0.000 OA
ATOM     20  H   UNL     1     -17.241  62.309 -18.446  0.00  0.00    +0.000 HD
ENDBRANCH  18  19
ENDBRANCH  12  13
ENDBRANCH   1  11
TORSDOF 5
ENDMDL
