MODEL 1
REMARK VINA RESULT:      -6.0      0.000      0.000
REMARK  Name = RetinoicAcid.pdbqt.pdb
REMARK  6 active torsions:
REMARK  status: ('A' for Active; 'I' for Inactive)
REMARK    1  A    between atoms: C_1  and  C_3
REMARK    2  A    between atoms: C_1  and  C_5
REMARK    3  A    between atoms: C_3  and  C_15
REMARK    4  A    between atoms: C_4  and  C_9
REMARK    5  A    between atoms: C_16  and  C_17
REMARK    6  A    between atoms: C_21  and  O_22
REMARK                            x       y       z     vdW  Elec       q    Type
REMARK                         _______ _______ _______ _____ _____    ______ ____
ROOT
ATOM      1  C   UNL     1     -17.378  60.463 -22.917  0.00  0.00    +0.000 C 
ATOM      2  C   UNL     1     -17.537  61.497 -23.989  0.00  0.00    +0.000 C 
ENDROOT
BRANCH   1   4
ATOM      3  C   UNL     1     -16.777  57.998 -23.564  0.00  0.00    +0.000 C 
ATOM      4  C   UNL     1     -17.054  59.128 -23.261  0.00  0.00    +0.000 C 
BRANCH   3   8
ATOM      5  C   UNL     1     -16.280  56.271 -25.446  0.00  0.00    +0.000 C 
ATOM      6  C   UNL     1     -15.932  54.833 -25.534  0.00  0.00    +0.000 C 
ATOM      7  C   UNL     1     -15.684  53.614 -24.667  0.00  0.00    +0.000 C 
ATOM      8  C   UNL     1     -16.442  56.643 -23.934  0.00  0.00    +0.000 C 
ATOM      9  C   UNL     1     -15.928  54.377 -23.383  0.00  0.00    +0.000 C 
ATOM     10  C   UNL     1     -16.262  55.699 -22.977  0.00  0.00    +0.000 C 
ATOM     11  C   UNL     1     -17.624  56.534 -26.178  0.00  0.00    +0.000 C 
ATOM     12  C   UNL     1     -15.133  57.130 -26.050  0.00  0.00    +0.000 C 
ATOM     13  C   UNL     1     -16.381  55.954 -21.499  0.00  0.00    +0.000 C 
ENDBRANCH   3   8
ENDBRANCH   1   4
BRANCH   1  14
ATOM     14  C   UNL     1     -17.586  60.780 -21.678  0.00  0.00    +0.000 C 
BRANCH  14  15
ATOM     15  C   UNL     1     -17.828  61.157 -20.211  0.00  0.00    +0.000 C 
ATOM     16  C   UNL     1     -18.018  61.449 -19.062  0.00  0.00    +0.000 C 
BRANCH  16  17
ATOM     17  C   UNL     1     -18.236  61.792 -17.706  0.00  0.00    +0.000 C 
ATOM     18  C   UNL     1     -17.319  62.762 -17.026  0.00  0.00    +0.000 C 
ATOM     19  C   UNL     1     -19.204  61.247 -17.049  0.00  0.00    +0.000 C 
ATOM     20  O   UNL     1     -21.428  61.049 -16.406  0.00  0.00    +0.000 OA
ATOM     21  C   UNL     1     -20.280  60.650 -16.339  0.00  0.00    +0.000 C 
BRANCH  21  22
ATOM     22  O   UNL     1     -19.924  59.586 -15.601  0.00  0.00    +0.000 OA
ATOM     23  H   UNL     1     -18.946  59.635 -15.566  0.00  0.00    +0.000 HD
ENDBRANCH  21  22
ENDBRANCH  16  17
ENDBRANCH  14  15
ENDBRANCH   1  14
TORSDOF 6
ENDMDL
MODEL 2
REMARK VINA RESULT:      -5.9      2.063      2.438
REMARK  Name = RetinoicAcid.pdbqt.pdb
REMARK  6 active torsions:
REMARK  status: ('A' for Active; 'I' for Inactive)
REMARK    1  A    between atoms: C_1  and  C_3
REMARK    2  A    between atoms: C_1  and  C_5
REMARK    3  A    between atoms: C_3  and  C_15
REMARK    4  A    between atoms: C_4  and  C_9
REMARK    5  A    between atoms: C_16  and  C_17
REMARK    6  A    between atoms: C_21  and  O_22
REMARK                            x       y       z     vdW  Elec       q    Type
REMARK                         _______ _______ _______ _____ _____    ______ ____
ROOT
ATOM      1  C   UNL     1     -16.769  58.646 -22.658  0.00  0.00    +0.000 C 
ATOM      2  C   UNL     1     -17.076  59.939 -23.349  0.00  0.00    +0.000 C 
ENDROOT
BRANCH   1   4
ATOM      3  C   UNL     1     -16.400  56.458 -24.050  0.00  0.00    +0.000 C 
ATOM      4  C   UNL     1     -16.570  57.466 -23.415  0.00  0.00    +0.000 C 
BRANCH   3   8
ATOM      5  C   UNL     1     -16.373  55.263 -26.361  0.00  0.00    +0.000 C 
ATOM      6  C   UNL     1     -16.101  53.900 -26.874  0.00  0.00    +0.000 C 
ATOM      7  C   UNL     1     -15.716  52.509 -26.408  0.00  0.00    +0.000 C 
ATOM      8  C   UNL     1     -16.197  55.245 -24.805  0.00  0.00    +0.000 C 
ATOM      9  C   UNL     1     -15.656  52.923 -24.954  0.00  0.00    +0.000 C 
ATOM     10  C   UNL     1     -15.851  54.097 -24.172  0.00  0.00    +0.000 C 
ATOM     11  C   UNL     1     -17.831  55.674 -26.700  0.00  0.00    +0.000 C 
ATOM     12  C   UNL     1     -15.351  56.268 -26.965  0.00  0.00    +0.000 C 
ATOM     13  C   UNL     1     -15.645  53.974 -22.687  0.00  0.00    +0.000 C 
ENDBRANCH   3   8
ENDBRANCH   1   4
BRANCH   1  14
ATOM     14  C   UNL     1     -16.733  58.597 -21.363  0.00  0.00    +0.000 C 
BRANCH  14  15
ATOM     15  C   UNL     1     -16.690  58.538 -19.831  0.00  0.00    +0.000 C 
ATOM     16  C   UNL     1     -16.654  58.491 -18.632  0.00  0.00    +0.000 C 
BRANCH  16  17
ATOM     17  C   UNL     1     -16.609  58.442 -17.218  0.00  0.00    +0.000 C 
ATOM     18  C   UNL     1     -15.450  57.786 -16.532  0.00  0.00    +0.000 C 
ATOM     19  C   UNL     1     -17.580  58.932 -16.522  0.00  0.00    +0.000 C 
ATOM     20  O   UNL     1     -18.741  60.672 -15.512  0.00  0.00    +0.000 OA
ATOM     21  C   UNL     1     -18.648  59.485 -15.767  0.00  0.00    +0.000 C 
BRANCH  21  22
ATOM     22  O   UNL     1     -19.565  58.585 -15.376  0.00  0.00    +0.000 OA
ATOM     23  H   UNL     1     -20.030  59.025 -14.634  0.00  0.00    +0.000 HD
ENDBRANCH  21  22
ENDBRANCH  16  17
ENDBRANCH  14  15
ENDBRANCH   1  14
TORSDOF 6
ENDMDL
MODEL 3
REMARK VINA RESULT:      -5.9     21.564     24.975
REMARK  Name = RetinoicAcid.pdbqt.pdb
REMARK  6 active torsions:
REMARK  status: ('A' for Active; 'I' for Inactive)
REMARK    1  A    between atoms: C_1  and  C_3
REMARK    2  A    between atoms: C_1  and  C_5
REMARK    3  A    between atoms: C_3  and  C_15
REMARK    4  A    between atoms: C_4  and  C_9
REMARK    5  A    between atoms: C_16  and  C_17
REMARK    6  A    between atoms: C_21  and  O_22
REMARK                            x       y       z     vdW  Elec       q    Type
REMARK                         _______ _______ _______ _____ _____    ______ ____
ROOT
ATOM      1  C   UNL     1     -35.850  46.053 -11.327  0.00  0.00    +0.000 C 
ATOM      2  C   UNL     1     -37.264  46.544 -11.372  0.00  0.00    +0.000 C 
ENDROOT
BRANCH   1   4
ATOM      3  C   UNL     1     -34.763  45.413  -9.031  0.00  0.00    +0.000 C 
ATOM      4  C   UNL     1     -35.259  45.702 -10.088  0.00  0.00    +0.000 C 
BRANCH   3   8
ATOM      5  C   UNL     1     -34.555  43.721  -7.066  0.00  0.00    +0.000 C 
ATOM      6  C   UNL     1     -33.804  43.625  -5.792  0.00  0.00    +0.000 C 
ATOM      7  C   UNL     1     -32.801  44.382  -4.943  0.00  0.00    +0.000 C 
ATOM      8  C   UNL     1     -34.171  45.071  -7.760  0.00  0.00    +0.000 C 
ATOM      9  C   UNL     1     -32.719  45.533  -5.921  0.00  0.00    +0.000 C 
ATOM     10  C   UNL     1     -33.282  45.910  -7.173  0.00  0.00    +0.000 C 
ATOM     11  C   UNL     1     -36.082  43.717  -6.779  0.00  0.00    +0.000 C 
ATOM     12  C   UNL     1     -34.157  42.547  -8.004  0.00  0.00    +0.000 C 
ATOM     13  C   UNL     1     -32.836  47.221  -7.759  0.00  0.00    +0.000 C 
ENDBRANCH   3   8
ENDBRANCH   1   4
BRANCH   1  14
ATOM     14  C   UNL     1     -35.150  45.995 -12.417  0.00  0.00    +0.000 C 
BRANCH  14  15
ATOM     15  C   UNL     1     -34.321  45.926 -13.705  0.00  0.00    +0.000 C 
ATOM     16  C   UNL     1     -33.671  45.870 -14.713  0.00  0.00    +0.000 C 
BRANCH  16  17
ATOM     17  C   UNL     1     -32.908  45.800 -15.903  0.00  0.00    +0.000 C 
ATOM     18  C   UNL     1     -31.654  44.981 -15.936  0.00  0.00    +0.000 C 
ATOM     19  C   UNL     1     -33.273  46.467 -16.946  0.00  0.00    +0.000 C 
ATOM     20  O   UNL     1     -34.543  46.793 -18.864  0.00  0.00    +0.000 OA
ATOM     21  C   UNL     1     -33.693  47.194 -18.092  0.00  0.00    +0.000 C 
BRANCH  21  22
ATOM     22  O   UNL     1     -33.082  48.382 -18.238  0.00  0.00    +0.000 OA
ATOM     23  H   UNL     1     -33.714  49.025 -17.854  0.00  0.00    +0.000 HD
ENDBRANCH  21  22
ENDBRANCH  16  17
ENDBRANCH  14  15
ENDBRANCH   1  14
TORSDOF 6
ENDMDL
MODEL 4
REMARK VINA RESULT:      -5.7      0.878      2.189
REMARK  Name = RetinoicAcid.pdbqt.pdb
REMARK  6 active torsions:
REMARK  status: ('A' for Active; 'I' for Inactive)
REMARK    1  A    between atoms: C_1  and  C_3
REMARK    2  A    between atoms: C_1  and  C_5
REMARK    3  A    between atoms: C_3  and  C_15
REMARK    4  A    between atoms: C_4  and  C_9
REMARK    5  A    between atoms: C_16  and  C_17
REMARK    6  A    between atoms: C_21  and  O_22
REMARK                            x       y       z     vdW  Elec       q    Type
REMARK                         _______ _______ _______ _____ _____    ______ ____
ROOT
ATOM      1  C   UNL     1     -16.858  59.993 -22.639  0.00  0.00    +0.000 C 
ATOM      2  C   UNL     1     -16.896  61.055 -23.695  0.00  0.00    +0.000 C 
ENDROOT
BRANCH   1   4
ATOM      3  C   UNL     1     -16.381  57.505 -23.303  0.00  0.00    +0.000 C 
ATOM      4  C   UNL     1     -16.605  58.646 -22.996  0.00  0.00    +0.000 C 
BRANCH   3   8
ATOM      5  C   UNL     1     -15.308  55.216 -22.684  0.00  0.00    +0.000 C 
ATOM      6  C   UNL     1     -15.175  53.878 -23.305  0.00  0.00    +0.000 C 
ATOM      7  C   UNL     1     -15.543  53.106 -24.557  0.00  0.00    +0.000 C 
ATOM      8  C   UNL     1     -16.104  56.136 -23.670  0.00  0.00    +0.000 C 
ATOM      9  C   UNL     1     -16.246  54.292 -25.180  0.00  0.00    +0.000 C 
ATOM     10  C   UNL     1     -16.536  55.648 -24.859  0.00  0.00    +0.000 C 
ATOM     11  C   UNL     1     -13.901  55.829 -22.445  0.00  0.00    +0.000 C 
ATOM     12  C   UNL     1     -16.105  55.104 -21.354  0.00  0.00    +0.000 C 
ATOM     13  C   UNL     1     -17.318  56.441 -25.870  0.00  0.00    +0.000 C 
ENDBRANCH   3   8
ENDBRANCH   1   4
BRANCH   1  14
ATOM     14  C   UNL     1     -17.103  60.300 -21.404  0.00  0.00    +0.000 C 
BRANCH  14  15
ATOM     15  C   UNL     1     -17.394  60.666 -19.943  0.00  0.00    +0.000 C 
ATOM     16  C   UNL     1     -17.622  60.950 -18.799  0.00  0.00    +0.000 C 
BRANCH  16  17
ATOM     17  C   UNL     1     -17.885  61.282 -17.449  0.00  0.00    +0.000 C 
ATOM     18  C   UNL     1     -16.967  62.215 -16.719  0.00  0.00    +0.000 C 
ATOM     19  C   UNL     1     -18.894  60.758 -16.838  0.00  0.00    +0.000 C 
ATOM     20  O   UNL     1     -21.147  60.620 -16.289  0.00  0.00    +0.000 OA
ATOM     21  C   UNL     1     -20.016  60.185 -16.181  0.00  0.00    +0.000 C 
BRANCH  21  22
ATOM     22  O   UNL     1     -19.722  59.102 -15.444  0.00  0.00    +0.000 OA
ATOM     23  H   UNL     1     -18.816  59.275 -15.114  0.00  0.00    +0.000 HD
ENDBRANCH  21  22
ENDBRANCH  16  17
ENDBRANCH  14  15
ENDBRANCH   1  14
TORSDOF 6
ENDMDL
MODEL 5
REMARK VINA RESULT:      -5.7     21.441     24.932
REMARK  Name = RetinoicAcid.pdbqt.pdb
REMARK  6 active torsions:
REMARK  status: ('A' for Active; 'I' for Inactive)
REMARK    1  A    between atoms: C_1  and  C_3
REMARK    2  A    between atoms: C_1  and  C_5
REMARK    3  A    between atoms: C_3  and  C_15
REMARK    4  A    between atoms: C_4  and  C_9
REMARK    5  A    between atoms: C_16  and  C_17
REMARK    6  A    between atoms: C_21  and  O_22
REMARK                            x       y       z     vdW  Elec       q    Type
REMARK                         _______ _______ _______ _____ _____    ______ ____
ROOT
ATOM      1  C   UNL     1     -36.224  46.371 -11.419  0.00  0.00    +0.000 C 
ATOM      2  C   UNL     1     -37.629  46.869 -11.566  0.00  0.00    +0.000 C 
ENDROOT
BRANCH   1   4
ATOM      3  C   UNL     1     -35.261  45.819  -9.047  0.00  0.00    +0.000 C 
ATOM      4  C   UNL     1     -35.709  46.071 -10.134  0.00  0.00    +0.000 C 
BRANCH   3   8
ATOM      5  C   UNL     1     -33.166  45.500  -7.537  0.00  0.00    +0.000 C 
ATOM      6  C   UNL     1     -32.891  45.176  -6.118  0.00  0.00    +0.000 C 
ATOM      7  C   UNL     1     -33.594  44.861  -4.812  0.00  0.00    +0.000 C 
ATOM      8  C   UNL     1     -34.717  45.520  -7.743  0.00  0.00    +0.000 C 
ATOM      9  C   UNL     1     -34.970  44.980  -5.430  0.00  0.00    +0.000 C 
ATOM     10  C   UNL     1     -35.546  45.266  -6.700  0.00  0.00    +0.000 C 
ATOM     11  C   UNL     1     -32.548  44.410  -8.456  0.00  0.00    +0.000 C 
ATOM     12  C   UNL     1     -32.599  46.907  -7.877  0.00  0.00    +0.000 C 
ATOM     13  C   UNL     1     -37.048  45.273  -6.787  0.00  0.00    +0.000 C 
ENDBRANCH   3   8
ENDBRANCH   1   4
BRANCH   1  14
ATOM     14  C   UNL     1     -35.464  46.262 -12.463  0.00  0.00    +0.000 C 
BRANCH  14  15
ATOM     15  C   UNL     1     -34.564  46.133 -13.698  0.00  0.00    +0.000 C 
ATOM     16  C   UNL     1     -33.861  46.032 -14.666  0.00  0.00    +0.000 C 
BRANCH  16  17
ATOM     17  C   UNL     1     -33.034  45.917 -15.809  0.00  0.00    +0.000 C 
ATOM     18  C   UNL     1     -31.779  45.102 -15.742  0.00  0.00    +0.000 C 
ATOM     19  C   UNL     1     -33.344  46.539 -16.897  0.00  0.00    +0.000 C 
ATOM     20  O   UNL     1     -34.510  46.781 -18.892  0.00  0.00    +0.000 OA
ATOM     21  C   UNL     1     -33.703  47.217 -18.092  0.00  0.00    +0.000 C 
BRANCH  21  22
ATOM     22  O   UNL     1     -33.088  48.401 -18.254  0.00  0.00    +0.000 OA
ATOM     23  H   UNL     1     -32.574  48.292 -19.081  0.00  0.00    +0.000 HD
ENDBRANCH  21  22
ENDBRANCH  16  17
ENDBRANCH  14  15
ENDBRANCH   1  14
TORSDOF 6
ENDMDL
MODEL 6
REMARK VINA RESULT:      -5.6     21.776     25.309
REMARK  Name = RetinoicAcid.pdbqt.pdb
REMARK  6 active torsions:
REMARK  status: ('A' for Active; 'I' for Inactive)
REMARK    1  A    between atoms: C_1  and  C_3
REMARK    2  A    between atoms: C_1  and  C_5
REMARK    3  A    between atoms: C_3  and  C_15
REMARK    4  A    between atoms: C_4  and  C_9
REMARK    5  A    between atoms: C_16  and  C_17
REMARK    6  A    between atoms: C_21  and  O_22
REMARK                            x       y       z     vdW  Elec       q    Type
REMARK                         _______ _______ _______ _____ _____    ______ ____
ROOT
ATOM      1  C   UNL     1     -36.371  46.381 -10.870  0.00  0.00    +0.000 C 
ATOM      2  C   UNL     1     -37.809  46.800 -10.858  0.00  0.00    +0.000 C 
ENDROOT
BRANCH   1   4
ATOM      3  C   UNL     1     -35.186  45.681  -8.642  0.00  0.00    +0.000 C 
ATOM      4  C   UNL     1     -35.730  46.008  -9.664  0.00  0.00    +0.000 C 
BRANCH   3   8
ATOM      5  C   UNL     1     -35.130  44.116  -6.564  0.00  0.00    +0.000 C 
ATOM      6  C   UNL     1     -34.262  43.915  -5.381  0.00  0.00    +0.000 C 
ATOM      7  C   UNL     1     -33.005  44.450  -4.724  0.00  0.00    +0.000 C 
ATOM      8  C   UNL     1     -34.530  45.282  -7.419  0.00  0.00    +0.000 C 
ATOM      9  C   UNL     1     -32.780  45.482  -5.807  0.00  0.00    +0.000 C 
ATOM     10  C   UNL     1     -33.398  45.909  -7.017  0.00  0.00    +0.000 C 
ATOM     11  C   UNL     1     -36.562  44.508  -6.108  0.00  0.00    +0.000 C 
ATOM     12  C   UNL     1     -35.151  42.824  -7.429  0.00  0.00    +0.000 C 
ATOM     13  C   UNL     1     -32.733  47.029  -7.768  0.00  0.00    +0.000 C 
ENDBRANCH   3   8
ENDBRANCH   1   4
BRANCH   1  14
ATOM     14  C   UNL     1     -35.700  46.405 -11.979  0.00  0.00    +0.000 C 
BRANCH  14  15
ATOM     15  C   UNL     1     -34.903  46.435 -13.290  0.00  0.00    +0.000 C 
ATOM     16  C   UNL     1     -34.282  46.458 -14.316  0.00  0.00    +0.000 C 
BRANCH  16  17
ATOM     17  C   UNL     1     -33.553  46.488 -15.529  0.00  0.00    +0.000 C 
ATOM     18  C   UNL     1     -33.914  47.481 -16.591  0.00  0.00    +0.000 C 
ATOM     19  C   UNL     1     -32.600  45.641 -15.733  0.00  0.00    +0.000 C 
ATOM     20  O   UNL     1     -30.421  44.871 -15.504  0.00  0.00    +0.000 OA
ATOM     21  C   UNL     1     -31.546  44.712 -15.940  0.00  0.00    +0.000 C 
BRANCH  21  22
ATOM     22  O   UNL     1     -31.905  43.625 -16.642  0.00  0.00    +0.000 OA
ATOM     23  H   UNL     1     -31.384  42.898 -16.242  0.00  0.00    +0.000 HD
ENDBRANCH  21  22
ENDBRANCH  16  17
ENDBRANCH  14  15
ENDBRANCH   1  14
TORSDOF 6
ENDMDL
MODEL 7
REMARK VINA RESULT:      -5.6     26.149     28.789
REMARK  Name = RetinoicAcid.pdbqt.pdb
REMARK  6 active torsions:
REMARK  status: ('A' for Active; 'I' for Inactive)
REMARK    1  A    between atoms: C_1  and  C_3
REMARK    2  A    between atoms: C_1  and  C_5
REMARK    3  A    between atoms: C_3  and  C_15
REMARK    4  A    between atoms: C_4  and  C_9
REMARK    5  A    between atoms: C_16  and  C_17
REMARK    6  A    between atoms: C_21  and  O_22
REMARK                            x       y       z     vdW  Elec       q    Type
REMARK                         _______ _______ _______ _____ _____    ______ ____
ROOT
ATOM      1  C   UNL     1     -17.918  51.967   8.209  0.00  0.00    +0.000 C 
ATOM      2  C   UNL     1     -17.260  51.682   9.525  0.00  0.00    +0.000 C 
ENDROOT
BRANCH   1   4
ATOM      3  C   UNL     1     -17.076  50.761   6.042  0.00  0.00    +0.000 C 
ATOM      4  C   UNL     1     -17.465  51.319   7.034  0.00  0.00    +0.000 C 
BRANCH   3   8
ATOM      5  C   UNL     1     -16.391  50.898   3.536  0.00  0.00    +0.000 C 
ATOM      6  C   UNL     1     -15.908  49.965   2.491  0.00  0.00    +0.000 C 
ATOM      7  C   UNL     1     -15.559  48.506   2.268  0.00  0.00    +0.000 C 
ATOM      8  C   UNL     1     -16.609  50.084   4.856  0.00  0.00    +0.000 C 
ATOM      9  C   UNL     1     -15.892  48.124   3.694  0.00  0.00    +0.000 C 
ATOM     10  C   UNL     1     -16.356  48.752   4.885  0.00  0.00    +0.000 C 
ATOM     11  C   UNL     1     -17.742  51.526   3.100  0.00  0.00    +0.000 C 
ATOM     12  C   UNL     1     -15.321  51.995   3.800  0.00  0.00    +0.000 C 
ATOM     13  C   UNL     1     -16.520  47.882   6.100  0.00  0.00    +0.000 C 
ENDBRANCH   3   8
ENDBRANCH   1   4
BRANCH   1  14
ATOM     14  C   UNL     1     -18.871  52.843   8.139  0.00  0.00    +0.000 C 
BRANCH  14  15
ATOM     15  C   UNL     1     -19.998  53.880   8.055  0.00  0.00    +0.000 C 
ATOM     16  C   UNL     1     -20.878  54.694   7.990  0.00  0.00    +0.000 C 
BRANCH  16  17
ATOM     17  C   UNL     1     -21.913  55.657   7.912  0.00  0.00    +0.000 C 
ATOM     18  C   UNL     1     -21.571  57.115   7.884  0.00  0.00    +0.000 C 
ATOM     19  C   UNL     1     -23.147  55.280   7.897  0.00  0.00    +0.000 C 
ATOM     20  O   UNL     1     -25.062  54.477   6.857  0.00  0.00    +0.000 OA
ATOM     21  C   UNL     1     -24.501  54.853   7.869  0.00  0.00    +0.000 C 
BRANCH  21  22
ATOM     22  O   UNL     1     -25.107  54.878   9.067  0.00  0.00    +0.000 OA
ATOM     23  H   UNL     1     -26.006  55.219   8.874  0.00  0.00    +0.000 HD
ENDBRANCH  21  22
ENDBRANCH  16  17
ENDBRANCH  14  15
ENDBRANCH   1  14
TORSDOF 6
ENDMDL
MODEL 8
REMARK VINA RESULT:      -5.5     15.739     17.924
REMARK  Name = RetinoicAcid.pdbqt.pdb
REMARK  6 active torsions:
REMARK  status: ('A' for Active; 'I' for Inactive)
REMARK    1  A    between atoms: C_1  and  C_3
REMARK    2  A    between atoms: C_1  and  C_5
REMARK    3  A    between atoms: C_3  and  C_15
REMARK    4  A    between atoms: C_4  and  C_9
REMARK    5  A    between atoms: C_16  and  C_17
REMARK    6  A    between atoms: C_21  and  O_22
REMARK                            x       y       z     vdW  Elec       q    Type
REMARK                         _______ _______ _______ _____ _____    ______ ____
ROOT
ATOM      1  C   UNL     1     -13.408  43.701  -9.156  0.00  0.00    +0.000 C 
ATOM      2  C   UNL     1     -12.954  42.323  -8.786  0.00  0.00    +0.000 C 
ENDROOT
BRANCH   1   4
ATOM      3  C   UNL     1     -14.115  44.221 -11.624  0.00  0.00    +0.000 C 
ATOM      4  C   UNL     1     -13.790  43.988 -10.490  0.00  0.00    +0.000 C 
BRANCH   3   8
ATOM      5  C   UNL     1     -13.593  45.384 -13.892  0.00  0.00    +0.000 C 
ATOM      6  C   UNL     1     -14.227  45.492 -15.227  0.00  0.00    +0.000 C 
ATOM      7  C   UNL     1     -15.448  45.039 -16.004  0.00  0.00    +0.000 C 
ATOM      8  C   UNL     1     -14.508  44.493 -12.986  0.00  0.00    +0.000 C 
ATOM      9  C   UNL     1     -16.008  44.264 -14.831  0.00  0.00    +0.000 C 
ATOM     10  C   UNL     1     -15.659  43.975 -13.481  0.00  0.00    +0.000 C 
ATOM     11  C   UNL     1     -13.467  46.793 -13.252  0.00  0.00    +0.000 C 
ATOM     12  C   UNL     1     -12.203  44.700 -14.021  0.00  0.00    +0.000 C 
ATOM     13  C   UNL     1     -16.601  43.099 -12.702  0.00  0.00    +0.000 C 
ENDBRANCH   3   8
ENDBRANCH   1   4
BRANCH   1  14
ATOM     14  C   UNL     1     -13.406  44.643  -8.266  0.00  0.00    +0.000 C 
BRANCH  14  15
ATOM     15  C   UNL     1     -13.406  45.758  -7.212  0.00  0.00    +0.000 C 
ATOM     16  C   UNL     1     -13.406  46.629  -6.386  0.00  0.00    +0.000 C 
BRANCH  16  17
ATOM     17  C   UNL     1     -13.402  47.653  -5.409  0.00  0.00    +0.000 C 
ATOM     18  C   UNL     1     -13.000  47.336  -4.001  0.00  0.00    +0.000 C 
ATOM     19  C   UNL     1     -13.775  48.848  -5.723  0.00  0.00    +0.000 C 
ATOM     20  O   UNL     1     -13.434  50.963  -6.621  0.00  0.00    +0.000 OA
ATOM     21  C   UNL     1     -14.176  50.162  -6.083  0.00  0.00    +0.000 C 
BRANCH  21  22
ATOM     22  O   UNL     1     -15.459  50.439  -5.799  0.00  0.00    +0.000 OA
ATOM     23  H   UNL     1     -15.685  49.817  -5.077  0.00  0.00    +0.000 HD
ENDBRANCH  21  22
ENDBRANCH  16  17
ENDBRANCH  14  15
ENDBRANCH   1  14
TORSDOF 6
ENDMDL
MODEL 9
REMARK VINA RESULT:      -5.5     24.414     26.601
REMARK  Name = RetinoicAcid.pdbqt.pdb
REMARK  6 active torsions:
REMARK  status: ('A' for Active; 'I' for Inactive)
REMARK    1  A    between atoms: C_1  and  C_3
REMARK    2  A    between atoms: C_1  and  C_5
REMARK    3  A    between atoms: C_3  and  C_15
REMARK    4  A    between atoms: C_4  and  C_9
REMARK    5  A    between atoms: C_16  and  C_17
REMARK    6  A    between atoms: C_21  and  O_22
REMARK                            x       y       z     vdW  Elec       q    Type
REMARK                         _______ _______ _______ _____ _____    ______ ____
ROOT
ATOM      1  C   UNL     1     -36.827  46.817 -10.181  0.00  0.00    +0.000 C 
ATOM      2  C   UNL     1     -36.556  46.417 -11.598  0.00  0.00    +0.000 C 
ENDROOT
BRANCH   1   4
ATOM      3  C   UNL     1     -35.376  45.825  -8.240  0.00  0.00    +0.000 C 
ATOM      4  C   UNL     1     -36.047  46.277  -9.129  0.00  0.00    +0.000 C 
BRANCH   3   8
ATOM      5  C   UNL     1     -33.008  45.252  -7.326  0.00  0.00    +0.000 C 
ATOM      6  C   UNL     1     -32.434  44.663  -6.093  0.00  0.00    +0.000 C 
ATOM      7  C   UNL     1     -32.839  44.089  -4.750  0.00  0.00    +0.000 C 
ATOM      8  C   UNL     1     -34.565  45.287  -7.173  0.00  0.00    +0.000 C 
ATOM      9  C   UNL     1     -34.314  44.304  -5.011  0.00  0.00    +0.000 C 
ATOM     10  C   UNL     1     -35.149  44.821  -6.041  0.00  0.00    +0.000 C 
ATOM     11  C   UNL     1     -32.640  44.372  -8.552  0.00  0.00    +0.000 C 
ATOM     12  C   UNL     1     -32.492  46.708  -7.506  0.00  0.00    +0.000 C 
ATOM     13  C   UNL     1     -36.632  44.821  -5.787  0.00  0.00    +0.000 C 
ENDBRANCH   3   8
ENDBRANCH   1   4
BRANCH   1  14
ATOM     14  C   UNL     1     -37.808  47.621  -9.912  0.00  0.00    +0.000 C 
BRANCH  14  15
ATOM     15  C   UNL     1     -38.969  48.571  -9.592  0.00  0.00    +0.000 C 
ATOM     16  C   UNL     1     -39.876  49.316  -9.342  0.00  0.00    +0.000 C 
BRANCH  16  17
ATOM     17  C   UNL     1     -40.945  50.198  -9.051  0.00  0.00    +0.000 C 
ATOM     18  C   UNL     1     -42.347  49.674  -8.994  0.00  0.00    +0.000 C 
ATOM     19  C   UNL     1     -40.716  51.455  -8.868  0.00  0.00    +0.000 C 
ATOM     20  O   UNL     1     -40.066  53.284  -7.591  0.00  0.00    +0.000 OA
ATOM     21  C   UNL     1     -40.449  52.833  -8.655  0.00  0.00    +0.000 C 
BRANCH  21  22
ATOM     22  O   UNL     1     -40.634  53.600  -9.742  0.00  0.00    +0.000 OA
ATOM     23  H   UNL     1     -41.608  53.655  -9.833  0.00  0.00    +0.000 HD
ENDBRANCH  21  22
ENDBRANCH  16  17
ENDBRANCH  14  15
ENDBRANCH   1  14
TORSDOF 6
ENDMDL
