MODEL 1
REMARK VINA RESULT:      -6.3      0.000      0.000
REMARK  Name = SB_202190.pdbqt.pdb
REMARK  4 active torsions:
REMARK  status: ('A' for Active; 'I' for Inactive)
REMARK    1  A    between atoms: C_4  and  C_7
REMARK    2  A    between atoms: C_5  and  C_19
REMARK    3  A    between atoms: C_6  and  C_8
REMARK    4  A    between atoms: C_15  and  O_26
REMARK                            x       y       z     vdW  Elec       q    Type
REMARK                         _______ _______ _______ _____ _____    ______ ____
ROOT
ATOM      1  N   UNL     1     -36.790  46.917 -10.046  0.00  0.00    +0.000 N 
ATOM      2  N   UNL     1     -36.584  47.234  -7.880  0.00  0.00    +0.000 NA
ATOM      3  C   UNL     1     -35.778  46.062  -9.657  0.00  0.00    +0.000 A 
ATOM      4  C   UNL     1     -35.653  46.308  -8.297  0.00  0.00    +0.000 A 
ATOM      5  C   UNL     1     -37.263  47.596  -8.949  0.00  0.00    +0.000 A 
ATOM      6  H   UNL     1     -37.158  47.006 -10.982  0.00  0.00    +0.000 HD
ENDROOT
BRANCH   4   7
ATOM      7  C   UNL     1     -34.700  45.735  -7.370  0.00  0.00    +0.000 A 
ATOM      8  C   UNL     1     -33.386  46.200  -7.297  0.00  0.00    +0.000 A 
ATOM      9  C   UNL     1     -32.496  45.668  -6.368  0.00  0.00    +0.000 A 
ATOM     10  C   UNL     1     -32.934  44.677  -5.498  0.00  0.00    +0.000 A 
ATOM     11  F   UNL     1     -32.080  44.160  -4.605  0.00  0.00    +0.000 F 
ATOM     12  C   UNL     1     -34.244  44.212  -5.541  0.00  0.00    +0.000 A 
ATOM     13  C   UNL     1     -35.126  44.750  -6.474  0.00  0.00    +0.000 A 
ENDBRANCH   4   7
BRANCH   3  15
ATOM     14  N   UNL     1     -33.898  43.424 -12.433  0.00  0.00    +0.000 NA
ATOM     15  C   UNL     1     -35.131  45.147 -10.593  0.00  0.00    +0.000 A 
ATOM     16  C   UNL     1     -35.835  44.080 -11.148  0.00  0.00    +0.000 A 
ATOM     17  C   UNL     1     -33.806  45.349 -10.978  0.00  0.00    +0.000 A 
ATOM     18  C   UNL     1     -35.181  43.256 -12.049  0.00  0.00    +0.000 A 
ATOM     19  C   UNL     1     -33.241  44.467 -11.885  0.00  0.00    +0.000 A 
ENDBRANCH   3  15
BRANCH   5  20
ATOM     20  C   UNL     1     -38.353  48.564  -8.993  0.00  0.00    +0.000 A 
ATOM     21  C   UNL     1     -38.546  49.440  -7.921  0.00  0.00    +0.000 A 
ATOM     22  C   UNL     1     -39.216  48.637 -10.090  0.00  0.00    +0.000 A 
ATOM     23  C   UNL     1     -39.580  50.373  -7.941  0.00  0.00    +0.000 A 
ATOM     24  C   UNL     1     -40.254  49.566 -10.119  0.00  0.00    +0.000 A 
ATOM     25  C   UNL     1     -40.427  50.427  -9.043  0.00  0.00    +0.000 A 
BRANCH  25  26
ATOM     26  O   UNL     1     -41.449  51.330  -9.093  0.00  0.00    +0.000 OA
ATOM     27  H   UNL     1     -41.103  52.161  -9.464  0.00  0.00    +0.000 HD
ENDBRANCH  25  26
ENDBRANCH   5  20
TORSDOF 4
ENDMDL
MODEL 2
REMARK VINA RESULT:      -6.2      3.132      6.134
REMARK  Name = SB_202190.pdbqt.pdb
REMARK  4 active torsions:
REMARK  status: ('A' for Active; 'I' for Inactive)
REMARK    1  A    between atoms: C_4  and  C_7
REMARK    2  A    between atoms: C_5  and  C_19
REMARK    3  A    between atoms: C_6  and  C_8
REMARK    4  A    between atoms: C_15  and  O_26
REMARK                            x       y       z     vdW  Elec       q    Type
REMARK                         _______ _______ _______ _____ _____    ______ ____
ROOT
ATOM      1  N   UNL     1     -35.548  46.008 -10.643  0.00  0.00    +0.000 N 
ATOM      2  N   UNL     1     -33.664  45.040 -10.055  0.00  0.00    +0.000 NA
ATOM      3  C   UNL     1     -35.575  45.990  -9.262  0.00  0.00    +0.000 A 
ATOM      4  C   UNL     1     -34.391  45.348  -8.926  0.00  0.00    +0.000 A 
ATOM      5  C   UNL     1     -34.377  45.442 -11.086  0.00  0.00    +0.000 A 
ATOM      6  H   UNL     1     -36.258  46.408 -11.240  0.00  0.00    +0.000 HD
ENDROOT
BRANCH   4   7
ATOM      7  C   UNL     1     -33.910  44.995  -7.607  0.00  0.00    +0.000 A 
ATOM      8  C   UNL     1     -34.132  43.726  -7.068  0.00  0.00    +0.000 A 
ATOM      9  C   UNL     1     -33.623  43.388  -5.817  0.00  0.00    +0.000 A 
ATOM     10  C   UNL     1     -32.875  44.325  -5.113  0.00  0.00    +0.000 A 
ATOM     11  F   UNL     1     -32.388  44.005  -3.907  0.00  0.00    +0.000 F 
ATOM     12  C   UNL     1     -32.627  45.587  -5.639  0.00  0.00    +0.000 A 
ATOM     13  C   UNL     1     -33.141  45.915  -6.891  0.00  0.00    +0.000 A 
ENDBRANCH   4   7
BRANCH   3  15
ATOM     14  N   UNL     1     -38.786  47.729  -7.058  0.00  0.00    +0.000 NA
ATOM     15  C   UNL     1     -36.661  46.595  -8.497  0.00  0.00    +0.000 A 
ATOM     16  C   UNL     1     -37.165  47.847  -8.844  0.00  0.00    +0.000 A 
ATOM     17  C   UNL     1     -37.240  45.911  -7.429  0.00  0.00    +0.000 A 
ATOM     18  C   UNL     1     -38.212  48.366  -8.100  0.00  0.00    +0.000 A 
ATOM     19  C   UNL     1     -38.283  46.517  -6.746  0.00  0.00    +0.000 A 
ENDBRANCH   3  15
BRANCH   5  20
ATOM     20  C   UNL     1     -34.008  45.320 -12.492  0.00  0.00    +0.000 A 
ATOM     21  C   UNL     1     -34.515  46.231 -13.424  0.00  0.00    +0.000 A 
ATOM     22  C   UNL     1     -33.151  44.308 -12.934  0.00  0.00    +0.000 A 
ATOM     23  C   UNL     1     -34.177  46.135 -14.771  0.00  0.00    +0.000 A 
ATOM     24  C   UNL     1     -32.807  44.203 -14.279  0.00  0.00    +0.000 A 
ATOM     25  C   UNL     1     -33.323  45.119 -15.188  0.00  0.00    +0.000 A 
BRANCH  25  26
ATOM     26  O   UNL     1     -32.972  44.998 -16.501  0.00  0.00    +0.000 OA
ATOM     27  H   UNL     1     -32.005  45.089 -16.567  0.00  0.00    +0.000 HD
ENDBRANCH  25  26
ENDBRANCH   5  20
TORSDOF 4
ENDMDL
MODEL 3
REMARK VINA RESULT:      -6.2      6.356      9.147
REMARK  Name = SB_202190.pdbqt.pdb
REMARK  4 active torsions:
REMARK  status: ('A' for Active; 'I' for Inactive)
REMARK    1  A    between atoms: C_4  and  C_7
REMARK    2  A    between atoms: C_5  and  C_19
REMARK    3  A    between atoms: C_6  and  C_8
REMARK    4  A    between atoms: C_15  and  O_26
REMARK                            x       y       z     vdW  Elec       q    Type
REMARK                         _______ _______ _______ _____ _____    ______ ____
ROOT
ATOM      1  N   UNL     1     -33.907  46.020 -15.528  0.00  0.00    +0.000 N 
ATOM      2  N   UNL     1     -32.314  45.599 -16.984  0.00  0.00    +0.000 NA
ATOM      3  C   UNL     1     -33.192  44.974 -14.979  0.00  0.00    +0.000 A 
ATOM      4  C   UNL     1     -32.218  44.715 -15.932  0.00  0.00    +0.000 A 
ATOM      5  C   UNL     1     -33.341  46.381 -16.728  0.00  0.00    +0.000 A 
ATOM      6  H   UNL     1     -34.699  46.480 -15.102  0.00  0.00    +0.000 HD
ENDROOT
BRANCH   4   7
ATOM      7  C   UNL     1     -31.211  43.674 -15.918  0.00  0.00    +0.000 A 
ATOM      8  C   UNL     1     -31.562  42.323 -15.926  0.00  0.00    +0.000 A 
ATOM      9  C   UNL     1     -30.580  41.335 -15.959  0.00  0.00    +0.000 A 
ATOM     10  C   UNL     1     -29.242  41.710 -16.002  0.00  0.00    +0.000 A 
ATOM     11  F   UNL     1     -28.295  40.763 -16.030  0.00  0.00    +0.000 F 
ATOM     12  C   UNL     1     -28.871  43.049 -16.014  0.00  0.00    +0.000 A 
ATOM     13  C   UNL     1     -29.861  44.029 -15.980  0.00  0.00    +0.000 A 
ENDBRANCH   4   7
BRANCH   3  15
ATOM     14  N   UNL     1     -34.159  43.396 -11.135  0.00  0.00    +0.000 NA
ATOM     15  C   UNL     1     -33.507  44.424 -13.663  0.00  0.00    +0.000 A 
ATOM     16  C   UNL     1     -32.995  45.008 -12.506  0.00  0.00    +0.000 A 
ATOM     17  C   UNL     1     -34.359  43.327 -13.541  0.00  0.00    +0.000 A 
ATOM     18  C   UNL     1     -33.344  44.461 -11.282  0.00  0.00    +0.000 A 
ATOM     19  C   UNL     1     -34.645  42.853 -12.271  0.00  0.00    +0.000 A 
ENDBRANCH   3  15
BRANCH   5  20
ATOM     20  C   UNL     1     -33.828  47.471 -17.567  0.00  0.00    +0.000 A 
ATOM     21  C   UNL     1     -33.962  47.278 -18.945  0.00  0.00    +0.000 A 
ATOM     22  C   UNL     1     -34.168  48.712 -17.022  0.00  0.00    +0.000 A 
ATOM     23  C   UNL     1     -34.425  48.303 -19.766  0.00  0.00    +0.000 A 
ATOM     24  C   UNL     1     -34.631  49.744 -17.834  0.00  0.00    +0.000 A 
ATOM     25  C   UNL     1     -34.757  49.530 -19.201  0.00  0.00    +0.000 A 
BRANCH  25  26
ATOM     26  O   UNL     1     -35.213  50.554 -19.979  0.00  0.00    +0.000 OA
ATOM     27  H   UNL     1     -36.086  50.825 -19.644  0.00  0.00    +0.000 HD
ENDBRANCH  25  26
ENDBRANCH   5  20
TORSDOF 4
ENDMDL
MODEL 4
REMARK VINA RESULT:      -5.9     27.101     29.122
REMARK  Name = SB_202190.pdbqt.pdb
REMARK  4 active torsions:
REMARK  status: ('A' for Active; 'I' for Inactive)
REMARK    1  A    between atoms: C_4  and  C_7
REMARK    2  A    between atoms: C_5  and  C_19
REMARK    3  A    between atoms: C_6  and  C_8
REMARK    4  A    between atoms: C_15  and  O_26
REMARK                            x       y       z     vdW  Elec       q    Type
REMARK                         _______ _______ _______ _____ _____    ______ ____
ROOT
ATOM      1  N   UNL     1     -22.136  51.951 -34.269  0.00  0.00    +0.000 N 
ATOM      2  N   UNL     1     -22.584  53.094 -32.445  0.00  0.00    +0.000 NA
ATOM      3  C   UNL     1     -20.902  52.282 -33.746  0.00  0.00    +0.000 A 
ATOM      4  C   UNL     1     -21.219  53.026 -32.618  0.00  0.00    +0.000 A 
ATOM      5  C   UNL     1     -23.126  52.442 -33.452  0.00  0.00    +0.000 A 
ATOM      6  H   UNL     1     -22.294  51.400 -35.100  0.00  0.00    +0.000 HD
ENDROOT
BRANCH   4   7
ATOM      7  C   UNL     1     -20.314  53.687 -31.701  0.00  0.00    +0.000 A 
ATOM      8  C   UNL     1     -20.074  55.060 -31.781  0.00  0.00    +0.000 A 
ATOM      9  C   UNL     1     -19.236  55.688 -30.863  0.00  0.00    +0.000 A 
ATOM     10  C   UNL     1     -18.652  54.935 -29.851  0.00  0.00    +0.000 A 
ATOM     11  F   UNL     1     -17.842  55.534 -28.968  0.00  0.00    +0.000 F 
ATOM     12  C   UNL     1     -18.893  53.570 -29.742  0.00  0.00    +0.000 A 
ATOM     13  C   UNL     1     -19.731  52.951 -30.666  0.00  0.00    +0.000 A 
ENDBRANCH   4   7
BRANCH   3  15
ATOM     14  N   UNL     1     -17.268  50.983 -35.565  0.00  0.00    +0.000 NA
ATOM     15  C   UNL     1     -19.653  51.828 -34.352  0.00  0.00    +0.000 A 
ATOM     16  C   UNL     1     -19.556  50.559 -34.917  0.00  0.00    +0.000 A 
ATOM     17  C   UNL     1     -18.547  52.676 -34.412  0.00  0.00    +0.000 A 
ATOM     18  C   UNL     1     -18.356  50.186 -35.501  0.00  0.00    +0.000 A 
ATOM     19  C   UNL     1     -17.391  52.208 -35.016  0.00  0.00    +0.000 A 
ENDBRANCH   3  15
BRANCH   5  20
ATOM     20  C   UNL     1     -24.553  52.254 -33.692  0.00  0.00    +0.000 A 
ATOM     21  C   UNL     1     -25.235  51.224 -33.038  0.00  0.00    +0.000 A 
ATOM     22  C   UNL     1     -25.259  53.085 -34.565  0.00  0.00    +0.000 A 
ATOM     23  C   UNL     1     -26.597  51.025 -33.250  0.00  0.00    +0.000 A 
ATOM     24  C   UNL     1     -26.621  52.894 -34.785  0.00  0.00    +0.000 A 
ATOM     25  C   UNL     1     -27.280  51.865 -34.124  0.00  0.00    +0.000 A 
BRANCH  25  26
ATOM     26  O   UNL     1     -28.614  51.696 -34.353  0.00  0.00    +0.000 OA
ATOM     27  H   UNL     1     -29.059  51.587 -33.495  0.00  0.00    +0.000 HD
ENDBRANCH  25  26
ENDBRANCH   5  20
TORSDOF 4
ENDMDL
MODEL 5
REMARK VINA RESULT:      -5.9     20.482     23.257
REMARK  Name = SB_202190.pdbqt.pdb
REMARK  4 active torsions:
REMARK  status: ('A' for Active; 'I' for Inactive)
REMARK    1  A    between atoms: C_4  and  C_7
REMARK    2  A    between atoms: C_5  and  C_19
REMARK    3  A    between atoms: C_6  and  C_8
REMARK    4  A    between atoms: C_15  and  O_26
REMARK                            x       y       z     vdW  Elec       q    Type
REMARK                         _______ _______ _______ _____ _____    ______ ____
ROOT
ATOM      1  N   UNL     1     -13.514  46.894  -2.250  0.00  0.00    +0.000 N 
ATOM      2  N   UNL     1     -14.806  45.998  -3.786  0.00  0.00    +0.000 NA
ATOM      3  C   UNL     1     -13.989  45.730  -1.679  0.00  0.00    +0.000 A 
ATOM      4  C   UNL     1     -14.821  45.207  -2.659  0.00  0.00    +0.000 A 
ATOM      5  C   UNL     1     -14.014  47.016  -3.524  0.00  0.00    +0.000 A 
ATOM      6  H   UNL     1     -12.868  47.540  -1.819  0.00  0.00    +0.000 HD
ENDROOT
BRANCH   4   7
ATOM      7  C   UNL     1     -15.640  44.015  -2.591  0.00  0.00    +0.000 A 
ATOM      8  C   UNL     1     -17.034  44.087  -2.635  0.00  0.00    +0.000 A 
ATOM      9  C   UNL     1     -17.805  42.928  -2.615  0.00  0.00    +0.000 A 
ATOM     10  C   UNL     1     -17.171  41.692  -2.567  0.00  0.00    +0.000 A 
ATOM     11  F   UNL     1     -17.909  40.574  -2.543  0.00  0.00    +0.000 F 
ATOM     12  C   UNL     1     -15.785  41.596  -2.541  0.00  0.00    +0.000 A 
ATOM     13  C   UNL     1     -15.022  42.762  -2.560  0.00  0.00    +0.000 A 
ENDBRANCH   4   7
BRANCH   3  15
ATOM     14  N   UNL     1     -12.772  44.380   2.181  0.00  0.00    +0.000 NA
ATOM     15  C   UNL     1     -13.567  45.286  -0.353  0.00  0.00    +0.000 A 
ATOM     16  C   UNL     1     -14.420  45.403   0.742  0.00  0.00    +0.000 A 
ATOM     17  C   UNL     1     -12.316  44.698  -0.169  0.00  0.00    +0.000 A 
ATOM     18  C   UNL     1     -13.981  44.945   1.973  0.00  0.00    +0.000 A 
ATOM     19  C   UNL     1     -11.969  44.273   1.103  0.00  0.00    +0.000 A 
ENDBRANCH   3  15
BRANCH   5  20
ATOM     20  C   UNL     1     -13.696  48.118  -4.426  0.00  0.00    +0.000 A 
ATOM     21  C   UNL     1     -14.666  48.587  -5.316  0.00  0.00    +0.000 A 
ATOM     22  C   UNL     1     -12.436  48.721  -4.420  0.00  0.00    +0.000 A 
ATOM     23  C   UNL     1     -14.386  49.638  -6.186  0.00  0.00    +0.000 A 
ATOM     24  C   UNL     1     -12.145  49.773  -5.286  0.00  0.00    +0.000 A 
ATOM     25  C   UNL     1     -13.124  50.223  -6.162  0.00  0.00    +0.000 A 
BRANCH  25  26
ATOM     26  O   UNL     1     -12.819  51.255  -7.002  0.00  0.00    +0.000 OA
ATOM     27  H   UNL     1     -13.209  52.069  -6.638  0.00  0.00    +0.000 HD
ENDBRANCH  25  26
ENDBRANCH   5  20
TORSDOF 4
ENDMDL
MODEL 6
REMARK VINA RESULT:      -5.9     26.327     28.867
REMARK  Name = SB_202190.pdbqt.pdb
REMARK  4 active torsions:
REMARK  status: ('A' for Active; 'I' for Inactive)
REMARK    1  A    between atoms: C_4  and  C_7
REMARK    2  A    between atoms: C_5  and  C_19
REMARK    3  A    between atoms: C_6  and  C_8
REMARK    4  A    between atoms: C_15  and  O_26
REMARK                            x       y       z     vdW  Elec       q    Type
REMARK                         _______ _______ _______ _____ _____    ______ ____
ROOT
ATOM      1  N   UNL     1     -16.863  57.009 -26.470  0.00  0.00    +0.000 N 
ATOM      2  N   UNL     1     -17.245  54.869 -26.795  0.00  0.00    +0.000 NA
ATOM      3  C   UNL     1     -17.293  56.922 -27.779  0.00  0.00    +0.000 A 
ATOM      4  C   UNL     1     -17.495  55.561 -27.960  0.00  0.00    +0.000 A 
ATOM      5  C   UNL     1     -16.861  55.757 -25.903  0.00  0.00    +0.000 A 
ATOM      6  H   UNL     1     -16.623  57.862 -25.985  0.00  0.00    +0.000 HD
ENDROOT
BRANCH   4   7
ATOM      7  C   UNL     1     -17.896  54.872 -29.169  0.00  0.00    +0.000 A 
ATOM      8  C   UNL     1     -17.249  55.101 -30.385  0.00  0.00    +0.000 A 
ATOM      9  C   UNL     1     -17.618  54.396 -31.528  0.00  0.00    +0.000 A 
ATOM     10  C   UNL     1     -18.628  53.445 -31.443  0.00  0.00    +0.000 A 
ATOM     11  F   UNL     1     -18.988  52.767 -32.541  0.00  0.00    +0.000 F 
ATOM     12  C   UNL     1     -19.272  53.188 -30.238  0.00  0.00    +0.000 A 
ATOM     13  C   UNL     1     -18.897  53.899 -29.101  0.00  0.00    +0.000 A 
ENDBRANCH   4   7
BRANCH   3  15
ATOM     14  N   UNL     1     -17.827  60.338 -30.276  0.00  0.00    +0.000 NA
ATOM     15  C   UNL     1     -17.476  58.102 -28.618  0.00  0.00    +0.000 A 
ATOM     16  C   UNL     1     -16.387  58.885 -28.994  0.00  0.00    +0.000 A 
ATOM     17  C   UNL     1     -18.743  58.444 -29.091  0.00  0.00    +0.000 A 
ATOM     18  C   UNL     1     -16.612  59.981 -29.811  0.00  0.00    +0.000 A 
ATOM     19  C   UNL     1     -18.864  59.561 -29.902  0.00  0.00    +0.000 A 
ENDBRANCH   3  15
BRANCH   5  20
ATOM     20  C   UNL     1     -16.486  55.485 -24.520  0.00  0.00    +0.000 A 
ATOM     21  C   UNL     1     -15.913  54.255 -24.185  0.00  0.00    +0.000 A 
ATOM     22  C   UNL     1     -16.685  56.434 -23.513  0.00  0.00    +0.000 A 
ATOM     23  C   UNL     1     -15.547  53.973 -22.872  0.00  0.00    +0.000 A 
ATOM     24  C   UNL     1     -16.323  56.162 -22.196  0.00  0.00    +0.000 A 
ATOM     25  C   UNL     1     -15.755  54.932 -21.886  0.00  0.00    +0.000 A 
BRANCH  25  26
ATOM     26  O   UNL     1     -15.406  54.686 -20.590  0.00  0.00    +0.000 OA
ATOM     27  H   UNL     1     -14.705  54.011 -20.587  0.00  0.00    +0.000 HD
ENDBRANCH  25  26
ENDBRANCH   5  20
TORSDOF 4
ENDMDL
MODEL 7
REMARK VINA RESULT:      -5.8      8.006     11.830
REMARK  Name = SB_202190.pdbqt.pdb
REMARK  4 active torsions:
REMARK  status: ('A' for Active; 'I' for Inactive)
REMARK    1  A    between atoms: C_4  and  C_7
REMARK    2  A    between atoms: C_5  and  C_19
REMARK    3  A    between atoms: C_6  and  C_8
REMARK    4  A    between atoms: C_15  and  O_26
REMARK                            x       y       z     vdW  Elec       q    Type
REMARK                         _______ _______ _______ _____ _____    ______ ____
ROOT
ATOM      1  N   UNL     1     -32.895  45.102 -16.038  0.00  0.00    +0.000 N 
ATOM      2  N   UNL     1     -32.272  45.892 -17.993  0.00  0.00    +0.000 NA
ATOM      3  C   UNL     1     -33.799  46.108 -16.318  0.00  0.00    +0.000 A 
ATOM      4  C   UNL     1     -33.361  46.603 -17.538  0.00  0.00    +0.000 A 
ATOM      5  C   UNL     1     -31.999  44.989 -17.074  0.00  0.00    +0.000 A 
ATOM      6  H   UNL     1     -32.907  44.511 -15.219  0.00  0.00    +0.000 HD
ENDROOT
BRANCH   4   7
ATOM      7  C   UNL     1     -33.898  47.714 -18.295  0.00  0.00    +0.000 A 
ATOM      8  C   UNL     1     -34.254  47.575 -19.638  0.00  0.00    +0.000 A 
ATOM      9  C   UNL     1     -34.812  48.642 -20.337  0.00  0.00    +0.000 A 
ATOM     10  C   UNL     1     -35.028  49.847 -19.679  0.00  0.00    +0.000 A 
ATOM     11  F   UNL     1     -35.560  50.878 -20.350  0.00  0.00    +0.000 F 
ATOM     12  C   UNL     1     -34.698  50.002 -18.338  0.00  0.00    +0.000 A 
ATOM     13  C   UNL     1     -34.140  48.929 -17.647  0.00  0.00    +0.000 A 
ENDBRANCH   4   7
BRANCH   3  15
ATOM     14  N   UNL     1     -37.086  47.046 -13.766  0.00  0.00    +0.000 NA
ATOM     15  C   UNL     1     -34.922  46.411 -15.436  0.00  0.00    +0.000 A 
ATOM     16  C   UNL     1     -34.706  46.868 -14.138  0.00  0.00    +0.000 A 
ATOM     17  C   UNL     1     -36.234  46.286 -15.894  0.00  0.00    +0.000 A 
ATOM     18  C   UNL     1     -35.807  47.165 -13.351  0.00  0.00    +0.000 A 
ATOM     19  C   UNL     1     -37.267  46.606 -15.028  0.00  0.00    +0.000 A 
ENDBRANCH   3  15
BRANCH   5  20
ATOM     20  C   UNL     1     -30.921  44.008 -17.120  0.00  0.00    +0.000 A 
ATOM     21  C   UNL     1     -30.708  43.159 -16.030  0.00  0.00    +0.000 A 
ATOM     22  C   UNL     1     -30.090  43.894 -18.238  0.00  0.00    +0.000 A 
ATOM     23  C   UNL     1     -29.685  42.214 -16.052  0.00  0.00    +0.000 A 
ATOM     24  C   UNL     1     -29.064  42.953 -18.270  0.00  0.00    +0.000 A 
ATOM     25  C   UNL     1     -28.870  42.119 -17.175  0.00  0.00    +0.000 A 
BRANCH  25  26
ATOM     26  O   UNL     1     -27.860  41.204 -17.227  0.00  0.00    +0.000 OA
ATOM     27  H   UNL     1     -27.212  41.426 -16.536  0.00  0.00    +0.000 HD
ENDBRANCH  25  26
ENDBRANCH   5  20
TORSDOF 4
ENDMDL
MODEL 8
REMARK VINA RESULT:      -5.8      5.405      8.277
REMARK  Name = SB_202190.pdbqt.pdb
REMARK  4 active torsions:
REMARK  status: ('A' for Active; 'I' for Inactive)
REMARK    1  A    between atoms: C_4  and  C_7
REMARK    2  A    between atoms: C_5  and  C_19
REMARK    3  A    between atoms: C_6  and  C_8
REMARK    4  A    between atoms: C_15  and  O_26
REMARK                            x       y       z     vdW  Elec       q    Type
REMARK                         _______ _______ _______ _____ _____    ______ ____
ROOT
ATOM      1  N   UNL     1     -33.969  46.191 -13.861  0.00  0.00    +0.000 N 
ATOM      2  N   UNL     1     -32.889  44.334 -13.391  0.00  0.00    +0.000 NA
ATOM      3  C   UNL     1     -33.347  45.834 -15.041  0.00  0.00    +0.000 A 
ATOM      4  C   UNL     1     -32.653  44.681 -14.703  0.00  0.00    +0.000 A 
ATOM      5  C   UNL     1     -33.685  45.257 -12.893  0.00  0.00    +0.000 A 
ATOM      6  H   UNL     1     -34.572  46.990 -13.733  0.00  0.00    +0.000 HD
ENDROOT
BRANCH   4   7
ATOM      7  C   UNL     1     -31.769  43.894 -15.538  0.00  0.00    +0.000 A 
ATOM      8  C   UNL     1     -32.193  42.697 -16.119  0.00  0.00    +0.000 A 
ATOM      9  C   UNL     1     -31.345  41.977 -16.957  0.00  0.00    +0.000 A 
ATOM     10  C   UNL     1     -30.073  42.471 -17.223  0.00  0.00    +0.000 A 
ATOM     11  F   UNL     1     -29.253  41.778 -18.025  0.00  0.00    +0.000 F 
ATOM     12  C   UNL     1     -29.638  43.669 -16.670  0.00  0.00    +0.000 A 
ATOM     13  C   UNL     1     -30.493  44.382 -15.833  0.00  0.00    +0.000 A 
ENDBRANCH   4   7
BRANCH   3  15
ATOM     14  N   UNL     1     -33.932  48.040 -18.646  0.00  0.00    +0.000 NA
ATOM     15  C   UNL     1     -33.528  46.592 -16.276  0.00  0.00    +0.000 A 
ATOM     16  C   UNL     1     -33.345  45.987 -17.517  0.00  0.00    +0.000 A 
ATOM     17  C   UNL     1     -33.927  47.928 -16.233  0.00  0.00    +0.000 A 
ATOM     18  C   UNL     1     -33.553  46.744 -18.658  0.00  0.00    +0.000 A 
ATOM     19  C   UNL     1     -34.107  48.600 -17.431  0.00  0.00    +0.000 A 
ENDBRANCH   3  15
BRANCH   5  20
ATOM     20  C   UNL     1     -34.201  45.309 -11.530  0.00  0.00    +0.000 A 
ATOM     21  C   UNL     1     -33.386  44.917 -10.464  0.00  0.00    +0.000 A 
ATOM     22  C   UNL     1     -35.501  45.745 -11.262  0.00  0.00    +0.000 A 
ATOM     23  C   UNL     1     -33.857  44.958  -9.154  0.00  0.00    +0.000 A 
ATOM     24  C   UNL     1     -35.982  45.790  -9.955  0.00  0.00    +0.000 A 
ATOM     25  C   UNL     1     -35.155  45.396  -8.911  0.00  0.00    +0.000 A 
BRANCH  25  26
ATOM     26  O   UNL     1     -35.646  45.448  -7.639  0.00  0.00    +0.000 OA
ATOM     27  H   UNL     1     -36.199  46.244  -7.559  0.00  0.00    +0.000 HD
ENDBRANCH  25  26
ENDBRANCH   5  20
TORSDOF 4
ENDMDL
MODEL 9
REMARK VINA RESULT:      -5.7      4.693      7.230
REMARK  Name = SB_202190.pdbqt.pdb
REMARK  4 active torsions:
REMARK  status: ('A' for Active; 'I' for Inactive)
REMARK    1  A    between atoms: C_4  and  C_7
REMARK    2  A    between atoms: C_5  and  C_19
REMARK    3  A    between atoms: C_6  and  C_8
REMARK    4  A    between atoms: C_15  and  O_26
REMARK                            x       y       z     vdW  Elec       q    Type
REMARK                         _______ _______ _______ _____ _____    ______ ____
ROOT
ATOM      1  N   UNL     1     -34.913  45.728 -11.017  0.00  0.00    +0.000 N 
ATOM      2  N   UNL     1     -33.120  44.469 -11.203  0.00  0.00    +0.000 NA
ATOM      3  C   UNL     1     -34.838  45.413 -12.359  0.00  0.00    +0.000 A 
ATOM      4  C   UNL     1     -33.685  44.647 -12.447  0.00  0.00    +0.000 A 
ATOM      5  C   UNL     1     -33.872  45.130 -10.348  0.00  0.00    +0.000 A 
ATOM      6  H   UNL     1     -35.639  46.278 -10.581  0.00  0.00    +0.000 HD
ENDROOT
BRANCH   4   7
ATOM      7  C   UNL     1     -33.074  44.085 -13.633  0.00  0.00    +0.000 A 
ATOM      8  C   UNL     1     -32.205  44.835 -14.428  0.00  0.00    +0.000 A 
ATOM      9  C   UNL     1     -31.591  44.264 -15.540  0.00  0.00    +0.000 A 
ATOM     10  C   UNL     1     -31.839  42.931 -15.843  0.00  0.00    +0.000 A 
ATOM     11  F   UNL     1     -31.254  42.379 -16.915  0.00  0.00    +0.000 F 
ATOM     12  C   UNL     1     -32.686  42.161 -15.055  0.00  0.00    +0.000 A 
ATOM     13  C   UNL     1     -33.296  42.741 -13.945  0.00  0.00    +0.000 A 
ENDBRANCH   4   7
BRANCH   3  15
ATOM     14  N   UNL     1     -37.780  46.638 -15.196  0.00  0.00    +0.000 NA
ATOM     15  C   UNL     1     -35.856  45.840 -13.315  0.00  0.00    +0.000 A 
ATOM     16  C   UNL     1     -35.877  47.147 -13.799  0.00  0.00    +0.000 A 
ATOM     17  C   UNL     1     -36.802  44.933 -13.793  0.00  0.00    +0.000 A 
ATOM     18  C   UNL     1     -36.849  47.493 -14.723  0.00  0.00    +0.000 A 
ATOM     19  C   UNL     1     -37.734  45.379 -14.716  0.00  0.00    +0.000 A 
ENDBRANCH   3  15
BRANCH   5  20
ATOM     20  C   UNL     1     -33.659  45.231  -8.908  0.00  0.00    +0.000 A 
ATOM     21  C   UNL     1     -34.480  46.063  -8.142  0.00  0.00    +0.000 A 
ATOM     22  C   UNL     1     -32.646  44.509  -8.271  0.00  0.00    +0.000 A 
ATOM     23  C   UNL     1     -34.296  46.175  -6.766  0.00  0.00    +0.000 A 
ATOM     24  C   UNL     1     -32.453  44.614  -6.896  0.00  0.00    +0.000 A 
ATOM     25  C   UNL     1     -33.281  45.447  -6.154  0.00  0.00    +0.000 A 
BRANCH  25  26
ATOM     26  O   UNL     1     -33.076  45.535  -4.808  0.00  0.00    +0.000 OA
ATOM     27  H   UNL     1     -32.563  46.343  -4.631  0.00  0.00    +0.000 HD
ENDBRANCH  25  26
ENDBRANCH   5  20
TORSDOF 4
ENDMDL
