MODEL 1
REMARK VINA RESULT:      -6.8      0.000      0.000
REMARK  Name = Simvastatin.pdbqt.pdb
REMARK  7 active torsions:
REMARK  status: ('A' for Active; 'I' for Inactive)
REMARK    1  A    between atoms: C_2  and  C_13
REMARK    2  A    between atoms: C_3  and  O_24
REMARK    3  A    between atoms: C_14  and  C_15
REMARK    4  A    between atoms: C_20  and  O_22
REMARK    5  A    between atoms: O_24  and  C_25
REMARK    6  A    between atoms: C_25  and  C_27
REMARK    7  A    between atoms: C_27  and  C_30
REMARK                            x       y       z     vdW  Elec       q    Type
REMARK                         _______ _______ _______ _____ _____    ______ ____
ROOT
ATOM      1  C   UNL     1     -34.291  45.539  -7.355  0.00  0.00    +0.000 A 
ATOM      2  C   UNL     1     -35.133  45.810  -8.583  0.00  0.00    +0.000 A 
ATOM      3  C   UNL     1     -34.675  45.885  -5.941  0.00  0.00    +0.000 A 
ATOM      4  C   UNL     1     -34.783  45.164  -9.877  0.00  0.00    +0.000 A 
ATOM      5  C   UNL     1     -32.968  44.774  -7.574  0.00  0.00    +0.000 A 
ATOM      6  C   UNL     1     -33.708  45.401  -4.994  0.00  0.00    +0.000 A 
ATOM      7  C   UNL     1     -32.502  44.640  -5.108  0.00  0.00    +0.000 A 
ATOM      8  C   UNL     1     -32.316  44.422  -6.506  0.00  0.00    +0.000 A 
ATOM      9  C   UNL     1     -33.578  44.409  -9.795  0.00  0.00    +0.000 A 
ATOM     10  C   UNL     1     -32.830  44.238  -8.874  0.00  0.00    +0.000 A 
ATOM     11  C   UNL     1     -35.524  45.300 -11.172  0.00  0.00    +0.000 C 
ATOM     12  C   UNL     1     -32.216  43.546  -4.129  0.00  0.00    +0.000 C 
ENDROOT
BRANCH   2  13
ATOM     13  C   UNL     1     -36.113  46.844  -8.538  0.00  0.00    +0.000 C 
ATOM     14  C   UNL     1     -37.213  47.913  -8.527  0.00  0.00    +0.000 C 
BRANCH  14  15
ATOM     15  C   UNL     1     -38.271  48.853  -8.529  0.00  0.00    +0.000 C 
ATOM     16  O   UNL     1     -38.391  49.735  -7.393  0.00  0.00    +0.000 OA
ATOM     17  C   UNL     1     -39.447  50.648  -7.313  0.00  0.00    +0.000 C 
ATOM     18  O   UNL     1     -39.612  51.423  -6.383  0.00  0.00    +0.000 OA
ATOM     19  C   UNL     1     -40.352  50.599  -8.434  0.00  0.00    +0.000 C 
ATOM     20  C   UNL     1     -40.403  49.815  -9.606  0.00  0.00    +0.000 C 
ATOM     21  C   UNL     1     -39.278  48.964  -9.525  0.00  0.00    +0.000 C 
BRANCH  20  22
ATOM     22  O   UNL     1     -41.591  49.423 -10.149  0.00  0.00    +0.000 OA
ATOM     23  H   UNL     1     -41.533  49.282 -11.114  0.00  0.00    +0.000 HD
ENDBRANCH  20  22
ENDBRANCH  14  15
ENDBRANCH   2  13
BRANCH   3  24
ATOM     24  O   UNL     1     -36.031  45.728  -5.640  0.00  0.00    +0.000 OA
BRANCH  24  25
ATOM     25  C   UNL     1     -36.404  44.399  -5.558  0.00  0.00    +0.000 C 
ATOM     26  O   UNL     1     -35.660  43.507  -5.144  0.00  0.00    +0.000 OA
BRANCH  25  27
ATOM     27  C   UNL     1     -37.869  44.195  -6.080  0.00  0.00    +0.000 C 
ATOM     28  C   UNL     1     -38.557  43.037  -5.263  0.00  0.00    +0.000 C 
ATOM     29  C   UNL     1     -37.876  43.805  -7.613  0.00  0.00    +0.000 C 
BRANCH  27  30
ATOM     30  C   UNL     1     -38.588  45.486  -5.892  0.00  0.00    +0.000 C 
ATOM     31  C   UNL     1     -39.342  46.826  -5.648  0.00  0.00    +0.000 C 
ENDBRANCH  27  30
ENDBRANCH  25  27
ENDBRANCH  24  25
ENDBRANCH   3  24
TORSDOF 7
ENDMDL
MODEL 2
REMARK VINA RESULT:      -6.4     22.767     24.276
REMARK  Name = Simvastatin.pdbqt.pdb
REMARK  7 active torsions:
REMARK  status: ('A' for Active; 'I' for Inactive)
REMARK    1  A    between atoms: C_2  and  C_13
REMARK    2  A    between atoms: C_3  and  O_24
REMARK    3  A    between atoms: C_14  and  C_15
REMARK    4  A    between atoms: C_20  and  O_22
REMARK    5  A    between atoms: O_24  and  C_25
REMARK    6  A    between atoms: C_25  and  C_27
REMARK    7  A    between atoms: C_27  and  C_30
REMARK                            x       y       z     vdW  Elec       q    Type
REMARK                         _______ _______ _______ _____ _____    ______ ____
ROOT
ATOM      1  C   UNL     1     -16.811  50.560   4.992  0.00  0.00    +0.000 A 
ATOM      2  C   UNL     1     -17.174  50.850   6.433  0.00  0.00    +0.000 A 
ATOM      3  C   UNL     1     -16.679  51.591   3.902  0.00  0.00    +0.000 A 
ATOM      4  C   UNL     1     -16.986  49.799   7.469  0.00  0.00    +0.000 A 
ATOM      5  C   UNL     1     -16.471  49.095   4.642  0.00  0.00    +0.000 A 
ATOM      6  C   UNL     1     -16.217  51.007   2.672  0.00  0.00    +0.000 A 
ATOM      7  C   UNL     1     -15.827  49.686   2.285  0.00  0.00    +0.000 A 
ATOM      8  C   UNL     1     -16.027  48.872   3.441  0.00  0.00    +0.000 A 
ATOM      9  C   UNL     1     -16.550  48.563   6.911  0.00  0.00    +0.000 A 
ATOM     10  C   UNL     1     -16.336  48.258   5.771  0.00  0.00    +0.000 A 
ATOM     11  C   UNL     1     -17.265  49.931   8.935  0.00  0.00    +0.000 C 
ATOM     12  C   UNL     1     -14.622  49.488   1.422  0.00  0.00    +0.000 C 
ENDROOT
BRANCH   2  13
ATOM     13  C   UNL     1     -17.893  52.043   6.740  0.00  0.00    +0.000 C 
ATOM     14  C   UNL     1     -18.727  53.287   7.071  0.00  0.00    +0.000 C 
BRANCH  14  15
ATOM     15  C   UNL     1     -19.544  54.395   7.396  0.00  0.00    +0.000 C 
ATOM     16  O   UNL     1     -20.959  54.164   7.558  0.00  0.00    +0.000 OA
ATOM     17  C   UNL     1     -21.825  55.229   7.826  0.00  0.00    +0.000 C 
ATOM     18  O   UNL     1     -23.031  55.109   7.975  0.00  0.00    +0.000 OA
ATOM     19  C   UNL     1     -21.171  56.512   7.909  0.00  0.00    +0.000 C 
ATOM     20  C   UNL     1     -19.829  56.926   7.771  0.00  0.00    +0.000 C 
ATOM     21  C   UNL     1     -19.106  55.741   7.510  0.00  0.00    +0.000 C 
BRANCH  20  22
ATOM     22  O   UNL     1     -19.510  58.129   7.211  0.00  0.00    +0.000 OA
ATOM     23  H   UNL     1     -19.155  58.763   7.863  0.00  0.00    +0.000 HD
ENDBRANCH  20  22
ENDBRANCH  14  15
ENDBRANCH   2  13
BRANCH   3  24
ATOM     24  O   UNL     1     -16.125  52.810   4.303  0.00  0.00    +0.000 OA
BRANCH  24  25
ATOM     25  C   UNL     1     -16.854  53.895   3.851  0.00  0.00    +0.000 C 
ATOM     26  O   UNL     1     -18.039  53.829   3.517  0.00  0.00    +0.000 OA
BRANCH  25  27
ATOM     27  C   UNL     1     -15.965  55.187   3.805  0.00  0.00    +0.000 C 
ATOM     28  C   UNL     1     -15.246  55.276   2.407  0.00  0.00    +0.000 C 
ATOM     29  C   UNL     1     -14.864  55.159   4.940  0.00  0.00    +0.000 C 
BRANCH  27  30
ATOM     30  C   UNL     1     -16.869  56.352   4.019  0.00  0.00    +0.000 C 
ATOM     31  C   UNL     1     -17.776  57.600   4.231  0.00  0.00    +0.000 C 
ENDBRANCH  27  30
ENDBRANCH  25  27
ENDBRANCH  24  25
ENDBRANCH   3  24
TORSDOF 7
ENDMDL
MODEL 3
REMARK VINA RESULT:      -6.3      8.237     12.417
REMARK  Name = Simvastatin.pdbqt.pdb
REMARK  7 active torsions:
REMARK  status: ('A' for Active; 'I' for Inactive)
REMARK    1  A    between atoms: C_2  and  C_13
REMARK    2  A    between atoms: C_3  and  O_24
REMARK    3  A    between atoms: C_14  and  C_15
REMARK    4  A    between atoms: C_20  and  O_22
REMARK    5  A    between atoms: O_24  and  C_25
REMARK    6  A    between atoms: C_25  and  C_27
REMARK    7  A    between atoms: C_27  and  C_30
REMARK                            x       y       z     vdW  Elec       q    Type
REMARK                         _______ _______ _______ _____ _____    ______ ____
ROOT
ATOM      1  C   UNL     1     -35.221  47.273 -15.078  0.00  0.00    +0.000 A 
ATOM      2  C   UNL     1     -34.560  46.061 -14.455  0.00  0.00    +0.000 A 
ATOM      3  C   UNL     1     -35.079  47.702 -16.514  0.00  0.00    +0.000 A 
ATOM      4  C   UNL     1     -35.006  45.580 -13.120  0.00  0.00    +0.000 A 
ATOM      5  C   UNL     1     -36.179  48.081 -14.177  0.00  0.00    +0.000 A 
ATOM      6  C   UNL     1     -35.917  48.830 -16.817  0.00  0.00    +0.000 A 
ATOM      7  C   UNL     1     -36.868  49.591 -16.066  0.00  0.00    +0.000 A 
ATOM      8  C   UNL     1     -36.849  49.037 -14.750  0.00  0.00    +0.000 A 
ATOM      9  C   UNL     1     -35.988  46.433 -12.539  0.00  0.00    +0.000 A 
ATOM     10  C   UNL     1     -36.476  47.449 -12.950  0.00  0.00    +0.000 A 
ATOM     11  C   UNL     1     -34.483  44.387 -12.381  0.00  0.00    +0.000 C 
ATOM     12  C   UNL     1     -38.161  49.997 -16.696  0.00  0.00    +0.000 C 
ENDROOT
BRANCH   2  13
ATOM     13  C   UNL     1     -33.379  45.532 -15.053  0.00  0.00    +0.000 C 
ATOM     14  C   UNL     1     -32.150  44.931 -15.747  0.00  0.00    +0.000 C 
BRANCH  14  15
ATOM     15  C   UNL     1     -31.052  44.369 -16.440  0.00  0.00    +0.000 C 
ATOM     16  O   UNL     1     -30.636  45.002 -17.669  0.00  0.00    +0.000 OA
ATOM     17  C   UNL     1     -29.592  44.463 -18.426  0.00  0.00    +0.000 C 
ATOM     18  O   UNL     1     -29.187  44.943 -19.473  0.00  0.00    +0.000 OA
ATOM     19  C   UNL     1     -29.020  43.262 -17.867  0.00  0.00    +0.000 C 
ATOM     20  C   UNL     1     -29.296  42.506 -16.708  0.00  0.00    +0.000 C 
ATOM     21  C   UNL     1     -30.357  43.187 -16.072  0.00  0.00    +0.000 C 
BRANCH  20  22
ATOM     22  O   UNL     1     -29.175  41.147 -16.701  0.00  0.00    +0.000 OA
ATOM     23  H   UNL     1     -29.744  40.717 -17.367  0.00  0.00    +0.000 HD
ENDBRANCH  20  22
ENDBRANCH  14  15
ENDBRANCH   2  13
BRANCH   3  24
ATOM     24  O   UNL     1     -35.017  46.657 -17.441  0.00  0.00    +0.000 OA
BRANCH  24  25
ATOM     25  C   UNL     1     -34.103  46.899 -18.450  0.00  0.00    +0.000 C 
ATOM     26  O   UNL     1     -32.947  47.274 -18.246  0.00  0.00    +0.000 OA
BRANCH  25  27
ATOM     27  C   UNL     1     -34.747  46.654 -19.860  0.00  0.00    +0.000 C 
ATOM     28  C   UNL     1     -36.267  46.285 -19.683  0.00  0.00    +0.000 C 
ATOM     29  C   UNL     1     -34.022  45.469 -20.616  0.00  0.00    +0.000 C 
BRANCH  27  30
ATOM     30  C   UNL     1     -34.587  47.913 -20.642  0.00  0.00    +0.000 C 
ATOM     31  C   UNL     1     -34.380  49.209 -21.479  0.00  0.00    +0.000 C 
ENDBRANCH  27  30
ENDBRANCH  25  27
ENDBRANCH  24  25
ENDBRANCH   3  24
TORSDOF 7
ENDMDL
MODEL 4
REMARK VINA RESULT:      -6.3     26.326     28.889
REMARK  Name = Simvastatin.pdbqt.pdb
REMARK  7 active torsions:
REMARK  status: ('A' for Active; 'I' for Inactive)
REMARK    1  A    between atoms: C_2  and  C_13
REMARK    2  A    between atoms: C_3  and  O_24
REMARK    3  A    between atoms: C_14  and  C_15
REMARK    4  A    between atoms: C_20  and  O_22
REMARK    5  A    between atoms: O_24  and  C_25
REMARK    6  A    between atoms: C_25  and  C_27
REMARK    7  A    between atoms: C_27  and  C_30
REMARK                            x       y       z     vdW  Elec       q    Type
REMARK                         _______ _______ _______ _____ _____    ______ ____
ROOT
ATOM      1  C   UNL     1     -17.080  54.207 -26.549  0.00  0.00    +0.000 A 
ATOM      2  C   UNL     1     -16.266  53.361 -25.593  0.00  0.00    +0.000 A 
ATOM      3  C   UNL     1     -17.187  55.709 -26.509  0.00  0.00    +0.000 A 
ATOM      4  C   UNL     1     -16.006  51.931 -25.910  0.00  0.00    +0.000 A 
ATOM      5  C   UNL     1     -17.790  53.465 -27.702  0.00  0.00    +0.000 A 
ATOM      6  C   UNL     1     -17.950  56.216 -27.618  0.00  0.00    +0.000 A 
ATOM      7  C   UNL     1     -18.583  55.609 -28.748  0.00  0.00    +0.000 A 
ATOM      8  C   UNL     1     -18.373  54.205 -28.598  0.00  0.00    +0.000 A 
ATOM      9  C   UNL     1     -16.676  51.509 -27.093  0.00  0.00    +0.000 A 
ATOM     10  C   UNL     1     -17.402  52.114 -27.832  0.00  0.00    +0.000 A 
ATOM     11  C   UNL     1     -15.199  50.968 -25.093  0.00  0.00    +0.000 C 
ATOM     12  C   UNL     1     -18.473  56.249 -30.095  0.00  0.00    +0.000 C 
ENDROOT
BRANCH   2  13
ATOM     13  C   UNL     1     -15.947  53.882 -24.305  0.00  0.00    +0.000 C 
ATOM     14  C   UNL     1     -15.663  54.483 -22.923  0.00  0.00    +0.000 C 
BRANCH  14  15
ATOM     15  C   UNL     1     -15.464  55.056 -21.644  0.00  0.00    +0.000 C 
ATOM     16  O   UNL     1     -14.998  54.194 -20.585  0.00  0.00    +0.000 OA
ATOM     17  C   UNL     1     -14.833  54.689 -19.288  0.00  0.00    +0.000 C 
ATOM     18  O   UNL     1     -14.443  54.019 -18.344  0.00  0.00    +0.000 OA
ATOM     19  C   UNL     1     -15.173  56.083 -19.144  0.00  0.00    +0.000 C 
ATOM     20  C   UNL     1     -15.645  57.064 -20.043  0.00  0.00    +0.000 C 
ATOM     21  C   UNL     1     -15.749  56.400 -21.286  0.00  0.00    +0.000 C 
BRANCH  20  22
ATOM     22  O   UNL     1     -16.519  58.032 -19.643  0.00  0.00    +0.000 OA
ATOM     23  H   UNL     1     -17.349  58.022 -20.158  0.00  0.00    +0.000 HD
ENDBRANCH  20  22
ENDBRANCH  14  15
ENDBRANCH   2  13
BRANCH   3  24
ATOM     24  O   UNL     1     -16.012  56.377 -26.155  0.00  0.00    +0.000 OA
BRANCH  24  25
ATOM     25  C   UNL     1     -16.206  57.275 -25.121  0.00  0.00    +0.000 C 
ATOM     26  O   UNL     1     -17.225  57.306 -24.428  0.00  0.00    +0.000 OA
BRANCH  25  27
ATOM     27  C   UNL     1     -14.977  58.239 -24.977  0.00  0.00    +0.000 C 
ATOM     28  C   UNL     1     -15.365  59.444 -24.042  0.00  0.00    +0.000 C 
ATOM     29  C   UNL     1     -14.538  58.812 -26.385  0.00  0.00    +0.000 C 
BRANCH  27  30
ATOM     30  C   UNL     1     -13.859  57.445 -24.394  0.00  0.00    +0.000 C 
ATOM     31  C   UNL     1     -12.722  56.595 -23.754  0.00  0.00    +0.000 C 
ENDBRANCH  27  30
ENDBRANCH  25  27
ENDBRANCH  24  25
ENDBRANCH   3  24
TORSDOF 7
ENDMDL
MODEL 5
REMARK VINA RESULT:      -6.3      4.941      9.333
REMARK  Name = Simvastatin.pdbqt.pdb
REMARK  7 active torsions:
REMARK  status: ('A' for Active; 'I' for Inactive)
REMARK    1  A    between atoms: C_2  and  C_13
REMARK    2  A    between atoms: C_3  and  O_24
REMARK    3  A    between atoms: C_14  and  C_15
REMARK    4  A    between atoms: C_20  and  O_22
REMARK    5  A    between atoms: O_24  and  C_25
REMARK    6  A    between atoms: C_25  and  C_27
REMARK    7  A    between atoms: C_27  and  C_30
REMARK                            x       y       z     vdW  Elec       q    Type
REMARK                         _______ _______ _______ _____ _____    ______ ____
ROOT
ATOM      1  C   UNL     1     -35.470  47.427 -14.430  0.00  0.00    +0.000 A 
ATOM      2  C   UNL     1     -36.413  47.187 -13.271  0.00  0.00    +0.000 A 
ATOM      3  C   UNL     1     -34.327  46.529 -14.824  0.00  0.00    +0.000 A 
ATOM      4  C   UNL     1     -37.668  47.978 -13.163  0.00  0.00    +0.000 A 
ATOM      5  C   UNL     1     -35.763  48.651 -15.323  0.00  0.00    +0.000 A 
ATOM      6  C   UNL     1     -33.690  46.978 -16.033  0.00  0.00    +0.000 A 
ATOM      7  C   UNL     1     -33.935  48.055 -16.943  0.00  0.00    +0.000 A 
ATOM      8  C   UNL     1     -35.038  48.777 -16.395  0.00  0.00    +0.000 A 
ATOM      9  C   UNL     1     -37.768  48.974 -14.177  0.00  0.00    +0.000 A 
ATOM     10  C   UNL     1     -37.009  49.262 -15.060  0.00  0.00    +0.000 A 
ATOM     11  C   UNL     1     -38.719  47.846 -12.103  0.00  0.00    +0.000 C 
ATOM     12  C   UNL     1     -33.844  47.819 -18.416  0.00  0.00    +0.000 C 
ENDROOT
BRANCH   2  13
ATOM     13  C   UNL     1     -35.984  46.368 -12.186  0.00  0.00    +0.000 C 
ATOM     14  C   UNL     1     -35.457  45.485 -11.048  0.00  0.00    +0.000 C 
BRANCH  14  15
ATOM     15  C   UNL     1     -34.910  44.689 -10.014  0.00  0.00    +0.000 C 
ATOM     16  O   UNL     1     -35.826  44.044  -9.104  0.00  0.00    +0.000 OA
ATOM     17  C   UNL     1     -35.345  43.288  -8.031  0.00  0.00    +0.000 C 
ATOM     18  O   UNL     1     -36.059  42.715  -7.222  0.00  0.00    +0.000 OA
ATOM     19  C   UNL     1     -33.906  43.241  -7.943  0.00  0.00    +0.000 C 
ATOM     20  C   UNL     1     -32.869  43.805  -8.717  0.00  0.00    +0.000 C 
ATOM     21  C   UNL     1     -33.526  44.520  -9.743  0.00  0.00    +0.000 C 
BRANCH  20  22
ATOM     22  O   UNL     1     -31.705  44.228  -8.145  0.00  0.00    +0.000 OA
ATOM     23  H   UNL     1     -31.491  45.153  -8.374  0.00  0.00    +0.000 HD
ENDBRANCH  20  22
ENDBRANCH  14  15
ENDBRANCH   2  13
BRANCH   3  24
ATOM     24  O   UNL     1     -34.569  45.161 -14.674  0.00  0.00    +0.000 OA
BRANCH  24  25
ATOM     25  C   UNL     1     -33.446  44.467 -14.262  0.00  0.00    +0.000 C 
ATOM     26  O   UNL     1     -32.831  44.721 -13.224  0.00  0.00    +0.000 OA
BRANCH  25  27
ATOM     27  C   UNL     1     -33.064  43.352 -15.297  0.00  0.00    +0.000 C 
ATOM     28  C   UNL     1     -34.166  43.283 -16.421  0.00  0.00    +0.000 C 
ATOM     29  C   UNL     1     -32.968  41.937 -14.596  0.00  0.00    +0.000 C 
BRANCH  27  30
ATOM     30  C   UNL     1     -31.737  43.714 -15.868  0.00  0.00    +0.000 C 
ATOM     31  C   UNL     1     -30.344  44.127 -16.430  0.00  0.00    +0.000 C 
ENDBRANCH  27  30
ENDBRANCH  25  27
ENDBRANCH  24  25
ENDBRANCH   3  24
TORSDOF 7
ENDMDL
MODEL 6
REMARK VINA RESULT:      -6.3     26.452     28.914
REMARK  Name = Simvastatin.pdbqt.pdb
REMARK  7 active torsions:
REMARK  status: ('A' for Active; 'I' for Inactive)
REMARK    1  A    between atoms: C_2  and  C_13
REMARK    2  A    between atoms: C_3  and  O_24
REMARK    3  A    between atoms: C_14  and  C_15
REMARK    4  A    between atoms: C_20  and  O_22
REMARK    5  A    between atoms: O_24  and  C_25
REMARK    6  A    between atoms: C_25  and  C_27
REMARK    7  A    between atoms: C_27  and  C_30
REMARK                            x       y       z     vdW  Elec       q    Type
REMARK                         _______ _______ _______ _____ _____    ______ ____
ROOT
ATOM      1  C   UNL     1     -17.014  54.163 -26.452  0.00  0.00    +0.000 A 
ATOM      2  C   UNL     1     -16.160  53.427 -25.442  0.00  0.00    +0.000 A 
ATOM      3  C   UNL     1     -17.283  55.645 -26.452  0.00  0.00    +0.000 A 
ATOM      4  C   UNL     1     -15.733  52.028 -25.713  0.00  0.00    +0.000 A 
ATOM      5  C   UNL     1     -17.585  53.328 -27.618  0.00  0.00    +0.000 A 
ATOM      6  C   UNL     1     -18.043  56.047 -27.605  0.00  0.00    +0.000 A 
ATOM      7  C   UNL     1     -18.553  55.354 -28.748  0.00  0.00    +0.000 A 
ATOM      8  C   UNL     1     -18.202  53.984 -28.556  0.00  0.00    +0.000 A 
ATOM      9  C   UNL     1     -16.298  51.515 -26.916  0.00  0.00    +0.000 A 
ATOM     10  C   UNL     1     -17.049  52.024 -27.700  0.00  0.00    +0.000 A 
ATOM     11  C   UNL     1     -14.867  51.174 -24.839  0.00  0.00    +0.000 C 
ATOM     12  C   UNL     1     -18.450  55.977 -30.103  0.00  0.00    +0.000 C 
ENDROOT
BRANCH   2  13
ATOM     13  C   UNL     1     -15.959  54.003 -24.153  0.00  0.00    +0.000 C 
ATOM     14  C   UNL     1     -15.680  54.585 -22.762  0.00  0.00    +0.000 C 
BRANCH  14  15
ATOM     15  C   UNL     1     -15.360  55.107 -21.486  0.00  0.00    +0.000 C 
ATOM     16  O   UNL     1     -14.914  54.182 -20.472  0.00  0.00    +0.000 OA
ATOM     17  C   UNL     1     -14.635  54.630 -19.177  0.00  0.00    +0.000 C 
ATOM     18  O   UNL     1     -14.254  53.906 -18.270  0.00  0.00    +0.000 OA
ATOM     19  C   UNL     1     -14.842  56.044 -18.987  0.00  0.00    +0.000 C 
ATOM     20  C   UNL     1     -15.276  57.084 -19.838  0.00  0.00    +0.000 C 
ATOM     21  C   UNL     1     -15.505  56.462 -21.086  0.00  0.00    +0.000 C 
BRANCH  20  22
ATOM     22  O   UNL     1     -16.038  58.114 -19.371  0.00  0.00    +0.000 OA
ATOM     23  H   UNL     1     -16.666  57.831 -18.679  0.00  0.00    +0.000 HD
ENDBRANCH  20  22
ENDBRANCH  14  15
ENDBRANCH   2  13
BRANCH   3  24
ATOM     24  O   UNL     1     -16.204  56.443 -26.061  0.00  0.00    +0.000 OA
BRANCH  24  25
ATOM     25  C   UNL     1     -16.573  57.428 -25.164  0.00  0.00    +0.000 C 
ATOM     26  O   UNL     1     -17.333  57.233 -24.213  0.00  0.00    +0.000 OA
BRANCH  25  27
ATOM     27  C   UNL     1     -15.917  58.803 -25.540  0.00  0.00    +0.000 C 
ATOM     28  C   UNL     1     -14.369  58.603 -25.748  0.00  0.00    +0.000 C 
ATOM     29  C   UNL     1     -16.140  59.869 -24.393  0.00  0.00    +0.000 C 
BRANCH  27  30
ATOM     30  C   UNL     1     -16.571  59.276 -26.792  0.00  0.00    +0.000 C 
ATOM     31  C   UNL     1     -17.265  59.725 -28.112  0.00  0.00    +0.000 C 
ENDBRANCH  27  30
ENDBRANCH  25  27
ENDBRANCH  24  25
ENDBRANCH   3  24
TORSDOF 7
ENDMDL
MODEL 7
REMARK VINA RESULT:      -6.1     26.777     29.313
REMARK  Name = Simvastatin.pdbqt.pdb
REMARK  7 active torsions:
REMARK  status: ('A' for Active; 'I' for Inactive)
REMARK    1  A    between atoms: C_2  and  C_13
REMARK    2  A    between atoms: C_3  and  O_24
REMARK    3  A    between atoms: C_14  and  C_15
REMARK    4  A    between atoms: C_20  and  O_22
REMARK    5  A    between atoms: O_24  and  C_25
REMARK    6  A    between atoms: C_25  and  C_27
REMARK    7  A    between atoms: C_27  and  C_30
REMARK                            x       y       z     vdW  Elec       q    Type
REMARK                         _______ _______ _______ _____ _____    ______ ____
ROOT
ATOM      1  C   UNL     1     -17.074  53.784 -26.561  0.00  0.00    +0.000 A 
ATOM      2  C   UNL     1     -16.227  53.785 -25.306  0.00  0.00    +0.000 A 
ATOM      3  C   UNL     1     -17.692  55.001 -27.197  0.00  0.00    +0.000 A 
ATOM      4  C   UNL     1     -15.438  52.577 -24.946  0.00  0.00    +0.000 A 
ATOM      5  C   UNL     1     -17.246  52.430 -27.283  0.00  0.00    +0.000 A 
ATOM      6  C   UNL     1     -18.347  54.679 -28.436  0.00  0.00    +0.000 A 
ATOM      7  C   UNL     1     -18.497  53.476 -29.196  0.00  0.00    +0.000 A 
ATOM      8  C   UNL     1     -17.856  52.456 -28.430  0.00  0.00    +0.000 A 
ATOM      9  C   UNL     1     -15.676  51.490 -25.837  0.00  0.00    +0.000 A 
ATOM     10  C   UNL     1     -16.403  51.411 -26.788  0.00  0.00    +0.000 A 
ATOM     11  C   UNL     1     -14.530  52.423 -23.764  0.00  0.00    +0.000 C 
ATOM     12  C   UNL     1     -18.348  53.511 -30.683  0.00  0.00    +0.000 C 
ENDROOT
BRANCH   2  13
ATOM     13  C   UNL     1     -16.366  54.856 -24.376  0.00  0.00    +0.000 C 
ATOM     14  C   UNL     1     -16.469  56.047 -23.416  0.00  0.00    +0.000 C 
BRANCH  14  15
ATOM     15  C   UNL     1     -16.540  57.185 -22.576  0.00  0.00    +0.000 C 
ATOM     16  O   UNL     1     -16.372  56.985 -21.157  0.00  0.00    +0.000 OA
ATOM     17  C   UNL     1     -16.485  58.062 -20.272  0.00  0.00    +0.000 C 
ATOM     18  O   UNL     1     -16.356  57.968 -19.060  0.00  0.00    +0.000 OA
ATOM     19  C   UNL     1     -16.781  59.320 -20.911  0.00  0.00    +0.000 C 
ATOM     20  C   UNL     1     -16.987  59.700 -22.255  0.00  0.00    +0.000 C 
ATOM     21  C   UNL     1     -16.834  58.508 -22.998  0.00  0.00    +0.000 C 
BRANCH  20  22
ATOM     22  O   UNL     1     -17.881  60.674 -22.589  0.00  0.00    +0.000 OA
ATOM     23  H   UNL     1     -17.452  61.538 -22.743  0.00  0.00    +0.000 HD
ENDBRANCH  20  22
ENDBRANCH  14  15
ENDBRANCH   2  13
BRANCH   3  24
ATOM     24  O   UNL     1     -16.910  56.159 -27.144  0.00  0.00    +0.000 OA
BRANCH  24  25
ATOM     25  C   UNL     1     -16.403  56.511 -28.382  0.00  0.00    +0.000 C 
ATOM     26  O   UNL     1     -17.090  56.983 -29.290  0.00  0.00    +0.000 OA
BRANCH  25  27
ATOM     27  C   UNL     1     -14.867  56.207 -28.465  0.00  0.00    +0.000 C 
ATOM     28  C   UNL     1     -14.239  56.290 -27.023  0.00  0.00    +0.000 C 
ATOM     29  C   UNL     1     -14.132  57.254 -29.397  0.00  0.00    +0.000 C 
BRANCH  27  30
ATOM     30  C   UNL     1     -14.717  54.840 -29.039  0.00  0.00    +0.000 C 
ATOM     31  C   UNL     1     -14.518  53.408 -29.615  0.00  0.00    +0.000 C 
ENDBRANCH  27  30
ENDBRANCH  25  27
ENDBRANCH  24  25
ENDBRANCH   3  24
TORSDOF 7
ENDMDL
MODEL 8
REMARK VINA RESULT:      -6.1      4.330      8.423
REMARK  Name = Simvastatin.pdbqt.pdb
REMARK  7 active torsions:
REMARK  status: ('A' for Active; 'I' for Inactive)
REMARK    1  A    between atoms: C_2  and  C_13
REMARK    2  A    between atoms: C_3  and  O_24
REMARK    3  A    between atoms: C_14  and  C_15
REMARK    4  A    between atoms: C_20  and  O_22
REMARK    5  A    between atoms: O_24  and  C_25
REMARK    6  A    between atoms: C_25  and  C_27
REMARK    7  A    between atoms: C_27  and  C_30
REMARK                            x       y       z     vdW  Elec       q    Type
REMARK                         _______ _______ _______ _____ _____    ______ ____
ROOT
ATOM      1  C   UNL     1     -35.885  47.280 -13.739  0.00  0.00    +0.000 A 
ATOM      2  C   UNL     1     -36.823  46.939 -12.602  0.00  0.00    +0.000 A 
ATOM      3  C   UNL     1     -34.488  46.743 -13.910  0.00  0.00    +0.000 A 
ATOM      4  C   UNL     1     -38.264  47.296 -12.698  0.00  0.00    +0.000 A 
ATOM      5  C   UNL     1     -36.445  48.193 -14.852  0.00  0.00    +0.000 A 
ATOM      6  C   UNL     1     -33.900  47.175 -15.148  0.00  0.00    +0.000 A 
ATOM      7  C   UNL     1     -34.367  47.962 -16.248  0.00  0.00    +0.000 A 
ATOM      8  C   UNL     1     -35.687  48.372 -15.893  0.00  0.00    +0.000 A 
ATOM      9  C   UNL     1     -38.558  48.037 -13.879  0.00  0.00    +0.000 A 
ATOM     10  C   UNL     1     -37.838  48.409 -14.762  0.00  0.00    +0.000 A 
ATOM     11  C   UNL     1     -39.326  47.005 -11.682  0.00  0.00    +0.000 C 
ATOM     12  C   UNL     1     -34.059  47.540 -17.649  0.00  0.00    +0.000 C 
ENDROOT
BRANCH   2  13
ATOM     13  C   UNL     1     -36.278  46.478 -11.367  0.00  0.00    +0.000 C 
ATOM     14  C   UNL     1     -35.625  45.986 -10.070  0.00  0.00    +0.000 C 
BRANCH  14  15
ATOM     15  C   UNL     1     -34.966  45.556  -8.893  0.00  0.00    +0.000 C 
ATOM     16  O   UNL     1     -35.499  45.993  -7.625  0.00  0.00    +0.000 OA
ATOM     17  C   UNL     1     -34.861  45.645  -6.430  0.00  0.00    +0.000 C 
ATOM     18  O   UNL     1     -35.254  45.978  -5.323  0.00  0.00    +0.000 OA
ATOM     19  C   UNL     1     -33.671  44.850  -6.610  0.00  0.00    +0.000 C 
ATOM     20  C   UNL     1     -33.004  44.346  -7.747  0.00  0.00    +0.000 C 
ATOM     21  C   UNL     1     -33.776  44.783  -8.846  0.00  0.00    +0.000 C 
BRANCH  20  22
ATOM     22  O   UNL     1     -31.644  44.247  -7.787  0.00  0.00    +0.000 OA
ATOM     23  H   UNL     1     -31.205  44.870  -7.177  0.00  0.00    +0.000 HD
ENDBRANCH  20  22
ENDBRANCH  14  15
ENDBRANCH   2  13
BRANCH   3  24
ATOM     24  O   UNL     1     -34.316  45.409 -13.527  0.00  0.00    +0.000 OA
BRANCH  24  25
ATOM     25  C   UNL     1     -34.078  44.576 -14.605  0.00  0.00    +0.000 C 
ATOM     26  O   UNL     1     -32.998  44.521 -15.197  0.00  0.00    +0.000 OA
BRANCH  25  27
ATOM     27  C   UNL     1     -35.360  43.749 -14.968  0.00  0.00    +0.000 C 
ATOM     28  C   UNL     1     -34.934  42.418 -15.695  0.00  0.00    +0.000 C 
ATOM     29  C   UNL     1     -36.311  44.569 -15.930  0.00  0.00    +0.000 C 
BRANCH  27  30
ATOM     30  C   UNL     1     -36.074  43.459 -13.693  0.00  0.00    +0.000 C 
ATOM     31  C   UNL     1     -36.782  43.130 -12.345  0.00  0.00    +0.000 C 
ENDBRANCH  27  30
ENDBRANCH  25  27
ENDBRANCH  24  25
ENDBRANCH   3  24
TORSDOF 7
ENDMDL
MODEL 9
REMARK VINA RESULT:      -6.1      2.995      7.668
REMARK  Name = Simvastatin.pdbqt.pdb
REMARK  7 active torsions:
REMARK  status: ('A' for Active; 'I' for Inactive)
REMARK    1  A    between atoms: C_2  and  C_13
REMARK    2  A    between atoms: C_3  and  O_24
REMARK    3  A    between atoms: C_14  and  C_15
REMARK    4  A    between atoms: C_20  and  O_22
REMARK    5  A    between atoms: O_24  and  C_25
REMARK    6  A    between atoms: C_25  and  C_27
REMARK    7  A    between atoms: C_27  and  C_30
REMARK                            x       y       z     vdW  Elec       q    Type
REMARK                         _______ _______ _______ _____ _____    ______ ____
ROOT
ATOM      1  C   UNL     1     -38.270  47.810 -11.490  0.00  0.00    +0.000 A 
ATOM      2  C   UNL     1     -38.210  47.919  -9.982  0.00  0.00    +0.000 A 
ATOM      3  C   UNL     1     -37.602  46.742 -12.315  0.00  0.00    +0.000 A 
ATOM      4  C   UNL     1     -39.142  48.834  -9.269  0.00  0.00    +0.000 A 
ATOM      5  C   UNL     1     -39.157  48.838 -12.227  0.00  0.00    +0.000 A 
ATOM      6  C   UNL     1     -37.940  46.856 -13.708  0.00  0.00    +0.000 A 
ATOM      7  C   UNL     1     -38.792  47.731 -14.454  0.00  0.00    +0.000 A 
ATOM      8  C   UNL     1     -39.317  48.658 -13.504  0.00  0.00    +0.000 A 
ATOM      9  C   UNL     1     -39.946  49.594 -10.167  0.00  0.00    +0.000 A 
ATOM     10  C   UNL     1     -39.968  49.610 -11.366  0.00  0.00    +0.000 A 
ATOM     11  C   UNL     1     -39.234  49.037  -7.787  0.00  0.00    +0.000 C 
ATOM     12  C   UNL     1     -39.668  47.176 -15.532  0.00  0.00    +0.000 C 
ENDROOT
BRANCH   2  13
ATOM     13  C   UNL     1     -37.123  47.314  -9.285  0.00  0.00    +0.000 C 
ATOM     14  C   UNL     1     -36.002  46.621  -8.501  0.00  0.00    +0.000 C 
BRANCH  14  15
ATOM     15  C   UNL     1     -35.009  45.933  -7.765  0.00  0.00    +0.000 C 
ATOM     16  O   UNL     1     -34.987  46.111  -6.333  0.00  0.00    +0.000 OA
ATOM     17  C   UNL     1     -33.997  45.500  -5.557  0.00  0.00    +0.000 C 
ATOM     18  O   UNL     1     -33.916  45.606  -4.343  0.00  0.00    +0.000 OA
ATOM     19  C   UNL     1     -33.051  44.723  -6.319  0.00  0.00    +0.000 C 
ATOM     20  C   UNL     1     -32.907  44.447  -7.696  0.00  0.00    +0.000 C 
ATOM     21  C   UNL     1     -33.976  45.129  -8.317  0.00  0.00    +0.000 C 
BRANCH  20  22
ATOM     22  O   UNL     1     -31.677  44.314  -8.270  0.00  0.00    +0.000 OA
ATOM     23  H   UNL     1     -31.728  44.008  -9.196  0.00  0.00    +0.000 HD
ENDBRANCH  20  22
ENDBRANCH  14  15
ENDBRANCH   2  13
BRANCH   3  24
ATOM     24  O   UNL     1     -37.595  45.468 -11.739  0.00  0.00    +0.000 OA
BRANCH  24  25
ATOM     25  C   UNL     1     -36.327  44.916 -11.693  0.00  0.00    +0.000 C 
ATOM     26  O   UNL     1     -35.302  45.542 -11.969  0.00  0.00    +0.000 OA
BRANCH  25  27
ATOM     27  C   UNL     1     -36.388  43.406 -11.272  0.00  0.00    +0.000 C 
ATOM     28  C   UNL     1     -34.924  42.835 -11.164  0.00  0.00    +0.000 C 
ATOM     29  C   UNL     1     -37.187  42.552 -12.337  0.00  0.00    +0.000 C 
BRANCH  27  30
ATOM     30  C   UNL     1     -37.088  43.343  -9.958  0.00  0.00    +0.000 C 
ATOM     31  C   UNL     1     -37.839  43.320  -8.594  0.00  0.00    +0.000 C 
ENDBRANCH  27  30
ENDBRANCH  25  27
ENDBRANCH  24  25
ENDBRANCH   3  24
TORSDOF 7
ENDMDL
