MODEL 1
REMARK VINA RESULT:      -7.6      0.000      0.000
REMARK  Name = Staurosporine.pdbqt.pdb
REMARK  2 active torsions:
REMARK  status: ('A' for Active; 'I' for Inactive)
REMARK    1  A    between atoms: C_3  and  O_11
REMARK    2  A    between atoms: C_5  and  N_8
REMARK                            x       y       z     vdW  Elec       q    Type
REMARK                         _______ _______ _______ _____ _____    ______ ____
ROOT
ATOM      1  O   UNL     1     -14.870  47.191   7.476  0.00  0.00    +0.000 OA
ATOM      2  C   UNL     1     -15.259  46.228   6.459  0.00  0.00    +0.000 C 
ATOM      3  C   UNL     1     -16.368  45.245   6.884  0.00  0.00    +0.000 C 
ATOM      4  C   UNL     1     -15.948  47.840   8.058  0.00  0.00    +0.000 C 
ATOM      5  C   UNL     1     -17.262  45.628   7.974  0.00  0.00    +0.000 C 
ATOM      6  C   UNL     1     -16.916  46.900   8.468  0.00  0.00    +0.000 C 
ATOM      7  C   UNL     1     -13.957  45.383   6.250  0.00  0.00    +0.000 C 
ATOM      8  N   UNL     1     -15.617  46.992   5.242  0.00  0.00    +0.000 N 
ATOM      9  C   UNL     1     -16.048  48.284   5.072  0.00  0.00    +0.000 A 
ATOM     10  C   UNL     1     -16.391  49.210   6.062  0.00  0.00    +0.000 A 
ATOM     11  C   UNL     1     -16.255  48.762   3.771  0.00  0.00    +0.000 A 
ATOM     12  N   UNL     1     -16.395  48.968   7.402  0.00  0.00    +0.000 N 
ATOM     13  C   UNL     1     -16.908  50.425   5.588  0.00  0.00    +0.000 A 
ATOM     14  C   UNL     1     -17.067  50.117   7.864  0.00  0.00    +0.000 A 
ATOM     15  C   UNL     1     -17.352  51.031   6.784  0.00  0.00    +0.000 A 
ATOM     16  C   UNL     1     -17.424  50.434   9.185  0.00  0.00    +0.000 A 
ATOM     17  C   UNL     1     -18.008  52.239   7.097  0.00  0.00    +0.000 A 
ATOM     18  C   UNL     1     -18.354  52.535   8.414  0.00  0.00    +0.000 A 
ATOM     19  C   UNL     1     -18.067  51.645   9.438  0.00  0.00    +0.000 A 
ATOM     20  C   UNL     1     -17.110  50.918   4.284  0.00  0.00    +0.000 A 
ATOM     21  C   UNL     1     -16.733  49.985   3.280  0.00  0.00    +0.000 A 
ATOM     22  C   UNL     1     -17.641  52.120   3.684  0.00  0.00    +0.000 C 
ATOM     23  C   UNL     1     -17.037  50.620   1.969  0.00  0.00    +0.000 C 
ATOM     24  N   UNL     1     -17.545  51.821   2.318  0.00  0.00    +0.000 N 
ATOM     25  H   UNL     1     -17.848  52.498   1.632  0.00  0.00    +0.000 HD
ATOM     26  O   UNL     1     -18.081  53.169   4.131  0.00  0.00    +0.000 OA
ATOM     27  C   UNL     1     -15.948  47.639   2.986  0.00  0.00    +0.000 A 
ATOM     28  C   UNL     1     -15.580  46.571   3.884  0.00  0.00    +0.000 A 
ATOM     29  C   UNL     1     -15.957  47.380   1.600  0.00  0.00    +0.000 A 
ATOM     30  C   UNL     1     -15.238  45.311   3.362  0.00  0.00    +0.000 A 
ATOM     31  C   UNL     1     -15.259  45.104   1.983  0.00  0.00    +0.000 A 
ATOM     32  C   UNL     1     -15.612  46.122   1.113  0.00  0.00    +0.000 A 
ENDROOT
BRANCH   5  33
ATOM     33  N   UNL     1     -18.442  44.917   8.325  0.00  0.00    +0.000 N 
ATOM     34  C   UNL     1     -19.009  45.266   9.609  0.00  0.00    +0.000 C 
ATOM     35  H   UNL     1     -18.427  43.920   8.101  0.00  0.00    +0.000 HD
ENDBRANCH   5  33
BRANCH   3  36
ATOM     36  O   UNL     1     -16.786  44.359   5.915  0.00  0.00    +0.000 OA
ATOM     37  C   UNL     1     -16.339  43.055   6.171  0.00  0.00    +0.000 C 
ENDBRANCH   3  36
TORSDOF 2
ENDMDL
MODEL 2
REMARK VINA RESULT:      -7.6      1.572      2.452
REMARK  Name = Staurosporine.pdbqt.pdb
REMARK  2 active torsions:
REMARK  status: ('A' for Active; 'I' for Inactive)
REMARK    1  A    between atoms: C_3  and  O_11
REMARK    2  A    between atoms: C_5  and  N_8
REMARK                            x       y       z     vdW  Elec       q    Type
REMARK                         _______ _______ _______ _____ _____    ______ ____
ROOT
ATOM      1  O   UNL     1     -15.151  47.495   7.681  0.00  0.00    +0.000 OA
ATOM      2  C   UNL     1     -15.600  47.116   6.352  0.00  0.00    +0.000 C 
ATOM      3  C   UNL     1     -16.616  45.957   6.315  0.00  0.00    +0.000 C 
ATOM      4  C   UNL     1     -16.190  47.684   8.578  0.00  0.00    +0.000 C 
ATOM      5  C   UNL     1     -17.411  45.685   7.510  0.00  0.00    +0.000 C 
ATOM      6  C   UNL     1     -17.070  46.582   8.539  0.00  0.00    +0.000 C 
ATOM      7  C   UNL     1     -14.291  46.595   5.667  0.00  0.00    +0.000 C 
ATOM      8  N   UNL     1     -16.112  48.339   5.693  0.00  0.00    +0.000 N 
ATOM      9  C   UNL     1     -16.614  49.508   6.208  0.00  0.00    +0.000 A 
ATOM     10  C   UNL     1     -16.893  49.805   7.546  0.00  0.00    +0.000 A 
ATOM     11  C   UNL     1     -16.972  50.536   5.327  0.00  0.00    +0.000 A 
ATOM     12  N   UNL     1     -16.750  48.944   8.592  0.00  0.00    +0.000 N 
ATOM     13  C   UNL     1     -17.507  51.046   7.765  0.00  0.00    +0.000 A 
ATOM     14  C   UNL     1     -17.420  49.662   9.602  0.00  0.00    +0.000 A 
ATOM     15  C   UNL     1     -17.852  50.956   9.132  0.00  0.00    +0.000 A 
ATOM     16  C   UNL     1     -17.654  49.267  10.930  0.00  0.00    +0.000 A 
ATOM     17  C   UNL     1     -18.524  51.798  10.040  0.00  0.00    +0.000 A 
ATOM     18  C   UNL     1     -18.746  51.389  11.353  0.00  0.00    +0.000 A 
ATOM     19  C   UNL     1     -18.319  50.142  11.787  0.00  0.00    +0.000 A 
ATOM     20  C   UNL     1     -17.862  52.090   6.888  0.00  0.00    +0.000 A 
ATOM     21  C   UNL     1     -17.549  51.797   5.531  0.00  0.00    +0.000 A 
ATOM     22  C   UNL     1     -18.503  53.381   6.992  0.00  0.00    +0.000 C 
ATOM     23  C   UNL     1     -18.012  52.958   4.725  0.00  0.00    +0.000 C 
ATOM     24  N   UNL     1     -18.534  53.791   5.652  0.00  0.00    +0.000 N 
ATOM     25  H   UNL     1     -18.933  54.686   5.409  0.00  0.00    +0.000 HD
ATOM     26  O   UNL     1     -18.939  54.039   7.924  0.00  0.00    +0.000 OA
ATOM     27  C   UNL     1     -16.699  49.966   4.073  0.00  0.00    +0.000 A 
ATOM     28  C   UNL     1     -16.196  48.633   4.304  0.00  0.00    +0.000 A 
ATOM     29  C   UNL     1     -16.838  50.411   2.742  0.00  0.00    +0.000 A 
ATOM     30  C   UNL     1     -15.856  47.819   3.210  0.00  0.00    +0.000 A 
ATOM     31  C   UNL     1     -16.008  48.305   1.911  0.00  0.00    +0.000 A 
ATOM     32  C   UNL     1     -16.491  49.582   1.678  0.00  0.00    +0.000 A 
ENDROOT
BRANCH   5  33
ATOM     33  N   UNL     1     -18.517  44.793   7.547  0.00  0.00    +0.000 N 
ATOM     34  C   UNL     1     -18.238  43.492   8.115  0.00  0.00    +0.000 C 
ATOM     35  H   UNL     1     -19.101  44.795   6.707  0.00  0.00    +0.000 HD
ENDBRANCH   5  33
BRANCH   3  36
ATOM     36  O   UNL     1     -17.093  45.619   5.066  0.00  0.00    +0.000 OA
ATOM     37  C   UNL     1     -16.642  44.354   4.660  0.00  0.00    +0.000 C 
ENDBRANCH   3  36
TORSDOF 2
ENDMDL
MODEL 3
REMARK VINA RESULT:      -7.5      2.512      5.806
REMARK  Name = Staurosporine.pdbqt.pdb
REMARK  2 active torsions:
REMARK  status: ('A' for Active; 'I' for Inactive)
REMARK    1  A    between atoms: C_3  and  O_11
REMARK    2  A    between atoms: C_5  and  N_8
REMARK                            x       y       z     vdW  Elec       q    Type
REMARK                         _______ _______ _______ _____ _____    ______ ____
ROOT
ATOM      1  O   UNL     1     -17.042  50.297   2.010  0.00  0.00    +0.000 OA
ATOM      2  C   UNL     1     -16.174  49.205   2.422  0.00  0.00    +0.000 C 
ATOM      3  C   UNL     1     -14.701  49.346   1.989  0.00  0.00    +0.000 C 
ATOM      4  C   UNL     1     -16.528  51.548   2.308  0.00  0.00    +0.000 C 
ATOM      5  C   UNL     1     -14.184  50.680   1.691  0.00  0.00    +0.000 C 
ATOM      6  C   UNL     1     -15.194  51.645   1.857  0.00  0.00    +0.000 C 
ATOM      7  C   UNL     1     -16.759  47.973   1.651  0.00  0.00    +0.000 C 
ATOM      8  N   UNL     1     -16.321  49.054   3.888  0.00  0.00    +0.000 N 
ATOM      9  C   UNL     1     -16.706  49.942   4.860  0.00  0.00    +0.000 A 
ATOM     10  C   UNL     1     -16.953  51.312   4.721  0.00  0.00    +0.000 A 
ATOM     11  C   UNL     1     -16.814  49.492   6.183  0.00  0.00    +0.000 A 
ATOM     12  N   UNL     1     -16.808  52.027   3.571  0.00  0.00    +0.000 N 
ATOM     13  C   UNL     1     -17.225  51.993   5.916  0.00  0.00    +0.000 A 
ATOM     14  C   UNL     1     -16.912  53.339   4.075  0.00  0.00    +0.000 A 
ATOM     15  C   UNL     1     -17.205  53.338   5.489  0.00  0.00    +0.000 A 
ATOM     16  C   UNL     1     -16.798  54.546   3.367  0.00  0.00    +0.000 A 
ATOM     17  C   UNL     1     -17.357  54.583   6.131  0.00  0.00    +0.000 A 
ATOM     18  C   UNL     1     -17.240  55.770   5.411  0.00  0.00    +0.000 A 
ATOM     19  C   UNL     1     -16.963  55.749   4.052  0.00  0.00    +0.000 A 
ATOM     20  C   UNL     1     -17.345  51.548   7.248  0.00  0.00    +0.000 A 
ATOM     21  C   UNL     1     -17.123  50.149   7.381  0.00  0.00    +0.000 A 
ATOM     22  C   UNL     1     -17.598  52.145   8.538  0.00  0.00    +0.000 C 
ATOM     23  C   UNL     1     -17.240  49.833   8.830  0.00  0.00    +0.000 C 
ATOM     24  N   UNL     1     -17.509  51.034   9.388  0.00  0.00    +0.000 N 
ATOM     25  H   UNL     1     -17.650  51.147  10.382  0.00  0.00    +0.000 HD
ATOM     26  O   UNL     1     -17.837  53.283   8.915  0.00  0.00    +0.000 OA
ATOM     27  C   UNL     1     -16.425  48.147   6.074  0.00  0.00    +0.000 A 
ATOM     28  C   UNL     1     -16.113  47.897   4.687  0.00  0.00    +0.000 A 
ATOM     29  C   UNL     1     -16.273  47.093   6.999  0.00  0.00    +0.000 A 
ATOM     30  C   UNL     1     -15.674  46.621   4.293  0.00  0.00    +0.000 A 
ATOM     31  C   UNL     1     -15.542  45.609   5.245  0.00  0.00    +0.000 A 
ATOM     32  C   UNL     1     -15.838  45.839   6.578  0.00  0.00    +0.000 A 
ENDROOT
BRANCH   5  33
ATOM     33  N   UNL     1     -12.809  50.974   1.485  0.00  0.00    +0.000 N 
ATOM     34  C   UNL     1     -12.544  52.039   0.542  0.00  0.00    +0.000 C 
ATOM     35  H   UNL     1     -12.199  50.157   1.416  0.00  0.00    +0.000 HD
ENDBRANCH   5  33
BRANCH   3  36
ATOM     36  O   UNL     1     -13.854  48.346   2.416  0.00  0.00    +0.000 OA
ATOM     37  C   UNL     1     -13.327  47.614   1.342  0.00  0.00    +0.000 C 
ENDBRANCH   3  36
TORSDOF 2
ENDMDL
MODEL 4
REMARK VINA RESULT:      -7.4     26.192     29.476
REMARK  Name = Staurosporine.pdbqt.pdb
REMARK  2 active torsions:
REMARK  status: ('A' for Active; 'I' for Inactive)
REMARK    1  A    between atoms: C_3  and  O_11
REMARK    2  A    between atoms: C_5  and  N_8
REMARK                            x       y       z     vdW  Elec       q    Type
REMARK                         _______ _______ _______ _____ _____    ______ ____
ROOT
ATOM      1  O   UNL     1     -33.790  48.773 -18.151  0.00  0.00    +0.000 OA
ATOM      2  C   UNL     1     -35.230  48.952 -18.058  0.00  0.00    +0.000 C 
ATOM      3  C   UNL     1     -36.046  48.239 -19.155  0.00  0.00    +0.000 C 
ATOM      4  C   UNL     1     -33.411  47.449 -18.307  0.00  0.00    +0.000 C 
ATOM      5  C   UNL     1     -35.447  47.096 -19.841  0.00  0.00    +0.000 C 
ATOM      6  C   UNL     1     -34.153  46.851 -19.347  0.00  0.00    +0.000 C 
ATOM      7  C   UNL     1     -35.414  50.491 -18.282  0.00  0.00    +0.000 C 
ATOM      8  N   UNL     1     -35.637  48.544 -16.694  0.00  0.00    +0.000 N 
ATOM      9  C   UNL     1     -35.056  47.694 -15.787  0.00  0.00    +0.000 A 
ATOM     10  C   UNL     1     -33.945  46.867 -15.976  0.00  0.00    +0.000 A 
ATOM     11  C   UNL     1     -35.648  47.545 -14.525  0.00  0.00    +0.000 A 
ATOM     12  N   UNL     1     -33.254  46.728 -17.141  0.00  0.00    +0.000 N 
ATOM     13  C   UNL     1     -33.643  46.019 -14.900  0.00  0.00    +0.000 A 
ATOM     14  C   UNL     1     -32.460  45.606 -16.832  0.00  0.00    +0.000 A 
ATOM     15  C   UNL     1     -32.652  45.186 -15.464  0.00  0.00    +0.000 A 
ATOM     16  C   UNL     1     -31.547  44.940 -17.666  0.00  0.00    +0.000 A 
ATOM     17  C   UNL     1     -31.907  44.082 -15.003  0.00  0.00    +0.000 A 
ATOM     18  C   UNL     1     -31.007  43.433 -15.846  0.00  0.00    +0.000 A 
ATOM     19  C   UNL     1     -30.834  43.856 -17.155  0.00  0.00    +0.000 A 
ATOM     20  C   UNL     1     -34.224  45.870 -13.626  0.00  0.00    +0.000 A 
ATOM     21  C   UNL     1     -35.336  46.734 -13.426  0.00  0.00    +0.000 A 
ATOM     22  C   UNL     1     -34.016  45.036 -12.465  0.00  0.00    +0.000 C 
ATOM     23  C   UNL     1     -35.868  46.440 -12.068  0.00  0.00    +0.000 C 
ATOM     24  N   UNL     1     -35.047  45.466 -11.618  0.00  0.00    +0.000 N 
ATOM     25  H   UNL     1     -35.153  45.052 -10.703  0.00  0.00    +0.000 HD
ATOM     26  O   UNL     1     -33.207  44.166 -12.179  0.00  0.00    +0.000 OA
ATOM     27  C   UNL     1     -36.774  48.379 -14.621  0.00  0.00    +0.000 A 
ATOM     28  C   UNL     1     -36.768  48.964 -15.941  0.00  0.00    +0.000 A 
ATOM     29  C   UNL     1     -37.832  48.702 -13.747  0.00  0.00    +0.000 A 
ATOM     30  C   UNL     1     -37.803  49.837 -16.319  0.00  0.00    +0.000 A 
ATOM     31  C   UNL     1     -38.827  50.128 -15.418  0.00  0.00    +0.000 A 
ATOM     32  C   UNL     1     -38.843  49.572 -14.150  0.00  0.00    +0.000 A 
ENDROOT
BRANCH   5  33
ATOM     33  N   UNL     1     -36.158  46.229 -20.714  0.00  0.00    +0.000 N 
ATOM     34  C   UNL     1     -35.995  46.509 -22.124  0.00  0.00    +0.000 C 
ATOM     35  H   UNL     1     -37.108  45.997 -20.414  0.00  0.00    +0.000 HD
ENDBRANCH   5  33
BRANCH   3  36
ATOM     36  O   UNL     1     -37.415  48.354 -19.051  0.00  0.00    +0.000 OA
ATOM     37  C   UNL     1     -37.963  49.066 -20.129  0.00  0.00    +0.000 C 
ENDBRANCH   3  36
TORSDOF 2
ENDMDL
MODEL 5
REMARK VINA RESULT:      -7.3     24.776     27.480
REMARK  Name = Staurosporine.pdbqt.pdb
REMARK  2 active torsions:
REMARK  status: ('A' for Active; 'I' for Inactive)
REMARK    1  A    between atoms: C_3  and  O_11
REMARK    2  A    between atoms: C_5  and  N_8
REMARK                            x       y       z     vdW  Elec       q    Type
REMARK                         _______ _______ _______ _____ _____    ______ ____
ROOT
ATOM      1  O   UNL     1     -35.874  43.702 -12.896  0.00  0.00    +0.000 OA
ATOM      2  C   UNL     1     -36.362  44.819 -12.103  0.00  0.00    +0.000 C 
ATOM      3  C   UNL     1     -35.531  45.134 -10.843  0.00  0.00    +0.000 C 
ATOM      4  C   UNL     1     -34.518  43.777 -13.171  0.00  0.00    +0.000 C 
ATOM      5  C   UNL     1     -34.137  44.700 -10.798  0.00  0.00    +0.000 C 
ATOM      6  C   UNL     1     -33.795  44.024 -11.985  0.00  0.00    +0.000 C 
ATOM      7  C   UNL     1     -37.764  44.322 -11.610  0.00  0.00    +0.000 C 
ATOM      8  N   UNL     1     -36.482  45.984 -13.008  0.00  0.00    +0.000 N 
ATOM      9  C   UNL     1     -35.850  46.290 -14.187  0.00  0.00    +0.000 A 
ATOM     10  C   UNL     1     -34.796  45.602 -14.798  0.00  0.00    +0.000 A 
ATOM     11  C   UNL     1     -36.217  47.458 -14.868  0.00  0.00    +0.000 A 
ATOM     12  N   UNL     1     -34.171  44.504 -14.290  0.00  0.00    +0.000 N 
ATOM     13  C   UNL     1     -34.274  46.212 -15.948  0.00  0.00    +0.000 A 
ATOM     14  C   UNL     1     -33.060  44.425 -15.153  0.00  0.00    +0.000 A 
ATOM     15  C   UNL     1     -33.125  45.428 -16.189  0.00  0.00    +0.000 A 
ATOM     16  C   UNL     1     -31.999  43.505 -15.110  0.00  0.00    +0.000 A 
ATOM     17  C   UNL     1     -32.087  45.460 -17.142  0.00  0.00    +0.000 A 
ATOM     18  C   UNL     1     -31.043  44.539 -17.083  0.00  0.00    +0.000 A 
ATOM     19  C   UNL     1     -31.001  43.580 -16.081  0.00  0.00    +0.000 A 
ATOM     20  C   UNL     1     -34.642  47.379 -16.645  0.00  0.00    +0.000 A 
ATOM     21  C   UNL     1     -35.734  48.060 -16.038  0.00  0.00    +0.000 A 
ATOM     22  C   UNL     1     -34.178  48.103 -17.806  0.00  0.00    +0.000 C 
ATOM     23  C   UNL     1     -35.982  49.281 -16.850  0.00  0.00    +0.000 C 
ATOM     24  N   UNL     1     -35.046  49.203 -17.821  0.00  0.00    +0.000 N 
ATOM     25  H   UNL     1     -34.961  49.901 -18.546  0.00  0.00    +0.000 HD
ATOM     26  O   UNL     1     -33.291  47.914 -18.625  0.00  0.00    +0.000 OA
ATOM     27  C   UNL     1     -37.193  48.006 -14.020  0.00  0.00    +0.000 A 
ATOM     28  C   UNL     1     -37.333  47.117 -12.891  0.00  0.00    +0.000 A 
ATOM     29  C   UNL     1     -37.975  49.178 -14.055  0.00  0.00    +0.000 A 
ATOM     30  C   UNL     1     -38.241  47.435 -11.866  0.00  0.00    +0.000 A 
ATOM     31  C   UNL     1     -38.995  48.606 -11.946  0.00  0.00    +0.000 A 
ATOM     32  C   UNL     1     -38.868  49.465 -13.024  0.00  0.00    +0.000 A 
ENDROOT
BRANCH   5  33
ATOM     33  N   UNL     1     -33.208  45.101  -9.799  0.00  0.00    +0.000 N 
ATOM     34  C   UNL     1     -32.861  44.077  -8.838  0.00  0.00    +0.000 C 
ATOM     35  H   UNL     1     -33.363  46.036  -9.417  0.00  0.00    +0.000 HD
ENDBRANCH   5  33
BRANCH   3  36
ATOM     36  O   UNL     1     -35.949  46.222 -10.107  0.00  0.00    +0.000 OA
ATOM     37  C   UNL     1     -36.323  45.860  -8.805  0.00  0.00    +0.000 C 
ENDBRANCH   3  36
TORSDOF 2
ENDMDL
MODEL 6
REMARK VINA RESULT:      -7.3     31.851     35.296
REMARK  Name = Staurosporine.pdbqt.pdb
REMARK  2 active torsions:
REMARK  status: ('A' for Active; 'I' for Inactive)
REMARK    1  A    between atoms: C_3  and  O_11
REMARK    2  A    between atoms: C_5  and  N_8
REMARK                            x       y       z     vdW  Elec       q    Type
REMARK                         _______ _______ _______ _____ _____    ______ ____
ROOT
ATOM      1  O   UNL     1     -38.863  51.305 -22.235  0.00  0.00    +0.000 OA
ATOM      2  C   UNL     1     -38.433  51.316 -20.846  0.00  0.00    +0.000 C 
ATOM      3  C   UNL     1     -37.004  50.792 -20.603  0.00  0.00    +0.000 C 
ATOM      4  C   UNL     1     -37.943  51.878 -23.098  0.00  0.00    +0.000 C 
ATOM      5  C   UNL     1     -36.052  50.816 -21.712  0.00  0.00    +0.000 C 
ATOM      6  C   UNL     1     -36.660  51.338 -22.868  0.00  0.00    +0.000 C 
ATOM      7  C   UNL     1     -39.412  50.304 -20.160  0.00  0.00    +0.000 C 
ATOM      8  N   UNL     1     -38.624  52.694 -20.336  0.00  0.00    +0.000 N 
ATOM      9  C   UNL     1     -38.675  53.904 -20.981  0.00  0.00    +0.000 A 
ATOM     10  C   UNL     1     -38.426  54.166 -22.332  0.00  0.00    +0.000 A 
ATOM     11  C   UNL     1     -38.934  55.059 -20.231  0.00  0.00    +0.000 A 
ATOM     12  N   UNL     1     -38.038  53.245 -23.257  0.00  0.00    +0.000 N 
ATOM     13  C   UNL     1     -38.443  55.523 -22.688  0.00  0.00    +0.000 A 
ATOM     14  C   UNL     1     -37.677  54.093 -24.322  0.00  0.00    +0.000 A 
ATOM     15  C   UNL     1     -37.953  55.476 -24.012  0.00  0.00    +0.000 A 
ATOM     16  C   UNL     1     -37.147  53.730 -25.571  0.00  0.00    +0.000 A 
ATOM     17  C   UNL     1     -37.659  56.443 -24.993  0.00  0.00    +0.000 A 
ATOM     18  C   UNL     1     -37.133  56.064 -26.226  0.00  0.00    +0.000 A 
ATOM     19  C   UNL     1     -36.880  54.729 -26.507  0.00  0.00    +0.000 A 
ATOM     20  C   UNL     1     -38.712  56.689 -21.945  0.00  0.00    +0.000 A 
ATOM     21  C   UNL     1     -38.994  56.416 -20.578  0.00  0.00    +0.000 A 
ATOM     22  C   UNL     1     -38.741  58.112 -22.193  0.00  0.00    +0.000 C 
ATOM     23  C   UNL     1     -39.215  57.729 -19.915  0.00  0.00    +0.000 C 
ATOM     24  N   UNL     1     -39.048  58.615 -20.921  0.00  0.00    +0.000 N 
ATOM     25  H   UNL     1     -39.141  59.611 -20.783  0.00  0.00    +0.000 HD
ATOM     26  O   UNL     1     -38.566  58.805 -23.184  0.00  0.00    +0.000 OA
ATOM     27  C   UNL     1     -39.041  54.552 -18.926  0.00  0.00    +0.000 A 
ATOM     28  C   UNL     1     -38.836  53.125 -18.998  0.00  0.00    +0.000 A 
ATOM     29  C   UNL     1     -39.268  55.137 -17.663  0.00  0.00    +0.000 A 
ATOM     30  C   UNL     1     -38.871  52.358 -17.821  0.00  0.00    +0.000 A 
ATOM     31  C   UNL     1     -39.102  52.981 -16.594  0.00  0.00    +0.000 A 
ATOM     32  C   UNL     1     -39.300  54.350 -16.514  0.00  0.00    +0.000 A 
ENDROOT
BRANCH   5  33
ATOM     33  N   UNL     1     -34.661  50.560 -21.574  0.00  0.00    +0.000 N 
ATOM     34  C   UNL     1     -34.272  49.177 -21.742  0.00  0.00    +0.000 C 
ATOM     35  H   UNL     1     -34.204  51.061 -20.808  0.00  0.00    +0.000 HD
ENDBRANCH   5  33
BRANCH   3  36
ATOM     36  O   UNL     1     -36.561  50.844 -19.299  0.00  0.00    +0.000 OA
ATOM     37  C   UNL     1     -36.426  49.565 -18.741  0.00  0.00    +0.000 C 
ENDBRANCH   3  36
TORSDOF 2
ENDMDL
MODEL 7
REMARK VINA RESULT:      -7.1     26.355     29.356
REMARK  Name = Staurosporine.pdbqt.pdb
REMARK  2 active torsions:
REMARK  status: ('A' for Active; 'I' for Inactive)
REMARK    1  A    between atoms: C_3  and  O_11
REMARK    2  A    between atoms: C_5  and  N_8
REMARK                            x       y       z     vdW  Elec       q    Type
REMARK                         _______ _______ _______ _____ _____    ______ ____
ROOT
ATOM      1  O   UNL     1     -33.996  43.447 -18.405  0.00  0.00    +0.000 OA
ATOM      2  C   UNL     1     -33.212  43.516 -17.183  0.00  0.00    +0.000 C 
ATOM      3  C   UNL     1     -31.692  43.662 -17.394  0.00  0.00    +0.000 C 
ATOM      4  C   UNL     1     -33.688  44.449 -19.312  0.00  0.00    +0.000 C 
ATOM      5  C   UNL     1     -31.210  44.212 -18.658  0.00  0.00    +0.000 C 
ATOM      6  C   UNL     1     -32.292  44.517 -19.504  0.00  0.00    +0.000 C 
ATOM      7  C   UNL     1     -33.449  42.114 -16.527  0.00  0.00    +0.000 C 
ATOM      8  N   UNL     1     -33.776  44.609 -16.358  0.00  0.00    +0.000 N 
ATOM      9  C   UNL     1     -34.498  45.726 -16.698  0.00  0.00    +0.000 A 
ATOM     10  C   UNL     1     -34.793  46.199 -17.980  0.00  0.00    +0.000 A 
ATOM     11  C   UNL     1     -34.960  46.568 -15.677  0.00  0.00    +0.000 A 
ATOM     12  N   UNL     1     -34.366  45.638 -19.146  0.00  0.00    +0.000 N 
ATOM     13  C   UNL     1     -35.457  47.433 -18.022  0.00  0.00    +0.000 A 
ATOM     14  C   UNL     1     -34.713  46.656 -20.057  0.00  0.00    +0.000 A 
ATOM     15  C   UNL     1     -35.412  47.735 -19.401  0.00  0.00    +0.000 A 
ATOM     16  C   UNL     1     -34.483  46.688 -21.442  0.00  0.00    +0.000 A 
ATOM     17  C   UNL     1     -35.839  48.821 -20.190  0.00  0.00    +0.000 A 
ATOM     18  C   UNL     1     -35.602  48.834 -21.563  0.00  0.00    +0.000 A 
ATOM     19  C   UNL     1     -34.933  47.785 -22.176  0.00  0.00    +0.000 A 
ATOM     20  C   UNL     1     -35.935  48.281 -17.003  0.00  0.00    +0.000 A 
ATOM     21  C   UNL     1     -35.659  47.782 -15.700  0.00  0.00    +0.000 A 
ATOM     22  C   UNL     1     -36.604  49.559 -16.924  0.00  0.00    +0.000 C 
ATOM     23  C   UNL     1     -36.178  48.790 -14.737  0.00  0.00    +0.000 C 
ATOM     24  N   UNL     1     -36.689  49.750 -15.538  0.00  0.00    +0.000 N 
ATOM     25  H   UNL     1     -37.127  50.582 -15.171  0.00  0.00    +0.000 HD
ATOM     26  O   UNL     1     -37.027  50.348 -17.756  0.00  0.00    +0.000 OA
ATOM     27  C   UNL     1     -34.458  45.945 -14.523  0.00  0.00    +0.000 A 
ATOM     28  C   UNL     1     -33.730  44.772 -14.947  0.00  0.00    +0.000 A 
ATOM     29  C   UNL     1     -34.510  46.244 -13.146  0.00  0.00    +0.000 A 
ATOM     30  C   UNL     1     -33.101  43.961 -13.987  0.00  0.00    +0.000 A 
ATOM     31  C   UNL     1     -33.182  44.297 -12.635  0.00  0.00    +0.000 A 
ATOM     32  C   UNL     1     -33.877  45.420 -12.218  0.00  0.00    +0.000 A 
ENDROOT
BRANCH   5  33
ATOM     33  N   UNL     1     -29.861  44.590 -18.901  0.00  0.00    +0.000 N 
ATOM     34  C   UNL     1     -29.120  43.697 -19.765  0.00  0.00    +0.000 C 
ATOM     35  H   UNL     1     -29.357  44.938 -18.083  0.00  0.00    +0.000 HD
ENDBRANCH   5  33
BRANCH   3  36
ATOM     36  O   UNL     1     -30.938  43.782 -16.246  0.00  0.00    +0.000 OA
ATOM     37  C   UNL     1     -30.061  42.700 -16.081  0.00  0.00    +0.000 C 
ENDBRANCH   3  36
TORSDOF 2
ENDMDL
MODEL 8
REMARK VINA RESULT:      -7.0     29.470     33.930
REMARK  Name = Staurosporine.pdbqt.pdb
REMARK  2 active torsions:
REMARK  status: ('A' for Active; 'I' for Inactive)
REMARK    1  A    between atoms: C_3  and  O_11
REMARK    2  A    between atoms: C_5  and  N_8
REMARK                            x       y       z     vdW  Elec       q    Type
REMARK                         _______ _______ _______ _____ _____    ______ ____
ROOT
ATOM      1  O   UNL     1     -15.264  56.692 -29.011  0.00  0.00    +0.000 OA
ATOM      2  C   UNL     1     -16.148  57.767 -28.592  0.00  0.00    +0.000 C 
ATOM      3  C   UNL     1     -17.551  57.742 -29.231  0.00  0.00    +0.000 C 
ATOM      4  C   UNL     1     -15.851  55.439 -28.934  0.00  0.00    +0.000 C 
ATOM      5  C   UNL     1     -18.061  56.475 -29.750  0.00  0.00    +0.000 C 
ATOM      6  C   UNL     1     -17.111  55.453 -29.567  0.00  0.00    +0.000 C 
ATOM      7  C   UNL     1     -15.428  59.051 -29.127  0.00  0.00    +0.000 C 
ATOM      8  N   UNL     1     -16.200  57.745 -27.112  0.00  0.00    +0.000 N 
ATOM      9  C   UNL     1     -15.978  56.736 -26.209  0.00  0.00    +0.000 A 
ATOM     10  C   UNL     1     -15.754  55.381 -26.475  0.00  0.00    +0.000 A 
ATOM     11  C   UNL     1     -16.040  57.028 -24.840  0.00  0.00    +0.000 A 
ATOM     12  N   UNL     1     -15.761  54.808 -27.710  0.00  0.00    +0.000 N 
ATOM     13  C   UNL     1     -15.669  54.558 -25.343  0.00  0.00    +0.000 A 
ATOM     14  C   UNL     1     -15.764  53.444 -27.355  0.00  0.00    +0.000 A 
ATOM     15  C   UNL     1     -15.668  53.271 -25.926  0.00  0.00    +0.000 A 
ATOM     16  C   UNL     1     -15.814  52.331 -28.211  0.00  0.00    +0.000 A 
ATOM     17  C   UNL     1     -15.642  51.956 -25.420  0.00  0.00    +0.000 A 
ATOM     18  C   UNL     1     -15.694  50.865 -26.285  0.00  0.00    +0.000 A 
ATOM     19  C   UNL     1     -15.780  51.052 -27.656  0.00  0.00    +0.000 A 
ATOM     20  C   UNL     1     -15.720  54.843 -23.964  0.00  0.00    +0.000 A 
ATOM     21  C   UNL     1     -15.918  56.226 -23.697  0.00  0.00    +0.000 A 
ATOM     22  C   UNL     1     -15.664  54.093 -22.731  0.00  0.00    +0.000 C 
ATOM     23  C   UNL     1     -15.992  56.370 -22.218  0.00  0.00    +0.000 C 
ATOM     24  N   UNL     1     -15.836  55.104 -21.776  0.00  0.00    +0.000 N 
ATOM     25  H   UNL     1     -15.836  54.872 -20.793  0.00  0.00    +0.000 HD
ATOM     26  O   UNL     1     -15.512  52.910 -22.463  0.00  0.00    +0.000 OA
ATOM     27  C   UNL     1     -16.371  58.393 -24.839  0.00  0.00    +0.000 A 
ATOM     28  C   UNL     1     -16.482  58.812 -26.216  0.00  0.00    +0.000 A 
ATOM     29  C   UNL     1     -16.619  59.340 -23.825  0.00  0.00    +0.000 A 
ATOM     30  C   UNL     1     -16.826  60.143 -26.512  0.00  0.00    +0.000 A 
ATOM     31  C   UNL     1     -17.059  61.045 -25.473  0.00  0.00    +0.000 A 
ATOM     32  C   UNL     1     -16.956  60.653 -24.149  0.00  0.00    +0.000 A 
ENDROOT
BRANCH   5  33
ATOM     33  N   UNL     1     -19.403  56.268 -30.171  0.00  0.00    +0.000 N 
ATOM     34  C   UNL     1     -19.598  55.154 -31.073  0.00  0.00    +0.000 C 
ATOM     35  H   UNL     1     -19.920  57.120 -30.398  0.00  0.00    +0.000 HD
ENDBRANCH   5  33
BRANCH   3  36
ATOM     36  O   UNL     1     -18.420  58.724 -28.805  0.00  0.00    +0.000 OA
ATOM     37  C   UNL     1     -18.803  59.573 -29.854  0.00  0.00    +0.000 C 
ENDBRANCH   3  36
TORSDOF 2
ENDMDL
MODEL 9
REMARK VINA RESULT:      -7.0     28.901     33.127
REMARK  Name = Staurosporine.pdbqt.pdb
REMARK  2 active torsions:
REMARK  status: ('A' for Active; 'I' for Inactive)
REMARK    1  A    between atoms: C_3  and  O_11
REMARK    2  A    between atoms: C_5  and  N_8
REMARK                            x       y       z     vdW  Elec       q    Type
REMARK                         _______ _______ _______ _____ _____    ______ ____
ROOT
ATOM      1  O   UNL     1     -14.938  59.717 -25.002  0.00  0.00    +0.000 OA
ATOM      2  C   UNL     1     -15.214  58.852 -23.866  0.00  0.00    +0.000 C 
ATOM      3  C   UNL     1     -16.194  59.435 -22.828  0.00  0.00    +0.000 C 
ATOM      4  C   UNL     1     -16.083  60.226 -25.593  0.00  0.00    +0.000 C 
ATOM      5  C   UNL     1     -17.122  60.480 -23.252  0.00  0.00    +0.000 C 
ATOM      6  C   UNL     1     -16.929  60.785 -24.612  0.00  0.00    +0.000 C 
ATOM      7  C   UNL     1     -13.820  58.734 -23.161  0.00  0.00    +0.000 C 
ATOM      8  N   UNL     1     -15.667  57.549 -24.404  0.00  0.00    +0.000 N 
ATOM      9  C   UNL     1     -16.252  57.211 -25.598  0.00  0.00    +0.000 A 
ATOM     10  C   UNL     1     -16.699  58.070 -26.607  0.00  0.00    +0.000 A 
ATOM     11  C   UNL     1     -16.522  55.861 -25.861  0.00  0.00    +0.000 A 
ATOM     12  N   UNL     1     -16.667  59.430 -26.557  0.00  0.00    +0.000 N 
ATOM     13  C   UNL     1     -17.361  57.444 -27.673  0.00  0.00    +0.000 A 
ATOM     14  C   UNL     1     -17.470  59.743 -27.672  0.00  0.00    +0.000 A 
ATOM     15  C   UNL     1     -17.868  58.553 -28.385  0.00  0.00    +0.000 A 
ATOM     16  C   UNL     1     -17.856  61.014 -28.127  0.00  0.00    +0.000 A 
ATOM     17  C   UNL     1     -18.663  58.709 -29.537  0.00  0.00    +0.000 A 
ATOM     18  C   UNL     1     -19.036  59.979 -29.973  0.00  0.00    +0.000 A 
ATOM     19  C   UNL     1     -18.639  61.111 -29.276  0.00  0.00    +0.000 A 
ATOM     20  C   UNL     1     -17.628  56.088 -27.951  0.00  0.00    +0.000 A 
ATOM     21  C   UNL     1     -17.146  55.215 -26.936  0.00  0.00    +0.000 A 
ATOM     22  C   UNL     1     -18.303  55.339 -28.985  0.00  0.00    +0.000 C 
ATOM     23  C   UNL     1     -17.531  53.836 -27.340  0.00  0.00    +0.000 C 
ATOM     24  N   UNL     1     -18.179  54.025 -28.510  0.00  0.00    +0.000 N 
ATOM     25  H   UNL     1     -18.564  53.259 -29.043  0.00  0.00    +0.000 HD
ATOM     26  O   UNL     1     -18.864  55.645 -30.026  0.00  0.00    +0.000 OA
ATOM     27  C   UNL     1     -16.086  55.233 -24.683  0.00  0.00    +0.000 A 
ATOM     28  C   UNL     1     -15.587  56.263 -23.803  0.00  0.00    +0.000 A 
ATOM     29  C   UNL     1     -16.071  53.897 -24.232  0.00  0.00    +0.000 A 
ATOM     30  C   UNL     1     -15.098  55.914 -22.532  0.00  0.00    +0.000 A 
ATOM     31  C   UNL     1     -15.102  54.577 -22.131  0.00  0.00    +0.000 A 
ATOM     32  C   UNL     1     -15.578  53.582 -22.968  0.00  0.00    +0.000 A 
ENDROOT
BRANCH   5  33
ATOM     33  N   UNL     1     -18.206  60.952 -22.462  0.00  0.00    +0.000 N 
ATOM     34  C   UNL     1     -19.000  61.995 -23.072  0.00  0.00    +0.000 C 
ATOM     35  H   UNL     1     -17.994  61.077 -21.470  0.00  0.00    +0.000 HD
ENDBRANCH   5  33
BRANCH   3  36
ATOM     36  O   UNL     1     -16.507  58.607 -21.771  0.00  0.00    +0.000 OA
ATOM     37  C   UNL     1     -16.084  59.142 -20.546  0.00  0.00    +0.000 C 
ENDBRANCH   3  36
TORSDOF 2
ENDMDL
