MODEL 1
REMARK VINA RESULT:      -6.5      0.000      0.000
REMARK  Name = Testosterone.pdbqt.pdb
REMARK  1 active torsions:
REMARK  status: ('A' for Active; 'I' for Inactive)
REMARK    1  A    between atoms: C_9  and  O_21
REMARK                            x       y       z     vdW  Elec       q    Type
REMARK                         _______ _______ _______ _____ _____    ______ ____
ROOT
ATOM      1  O   UNL     1     -16.874  45.953   1.892  0.00  0.00    +0.000 OA
ATOM      2  C   UNL     1     -13.807  47.723  -4.896  0.00  0.00    +0.000 C 
ATOM      3  C   UNL     1     -12.472  48.600  -5.021  0.00  0.00    +0.000 C 
ATOM      4  C   UNL     1     -14.080  46.897  -3.702  0.00  0.00    +0.000 C 
ATOM      5  C   UNL     1     -13.372  46.994  -2.378  0.00  0.00    +0.000 C 
ATOM      6  C   UNL     1     -13.635  46.044  -1.189  0.00  0.00    +0.000 C 
ATOM      7  C   UNL     1     -11.966  48.753  -3.656  0.00  0.00    +0.000 C 
ATOM      8  C   UNL     1     -12.358  47.990  -2.414  0.00  0.00    +0.000 C 
ATOM      9  C   UNL     1     -12.971  49.940  -5.614  0.00  0.00    +0.000 C 
ATOM     10  C   UNL     1     -14.863  48.499  -5.475  0.00  0.00    +0.000 C 
ATOM     11  C   UNL     1     -15.180  46.010  -3.665  0.00  0.00    +0.000 C 
ATOM     12  C   UNL     1     -14.369  49.871  -5.863  0.00  0.00    +0.000 C 
ATOM     13  C   UNL     1     -15.083  45.242  -1.233  0.00  0.00    +0.000 C 
ATOM     14  C   UNL     1     -15.693  45.202  -2.511  0.00  0.00    +0.000 C 
ATOM     15  C   UNL     1     -11.466  47.916  -5.979  0.00  0.00    +0.000 C 
ATOM     16  C   UNL     1     -13.725  46.824   0.090  0.00  0.00    +0.000 C 
ATOM     17  C   UNL     1     -12.521  44.963  -1.125  0.00  0.00    +0.000 C 
ATOM     18  C   UNL     1     -14.773  46.855   1.227  0.00  0.00    +0.000 C 
ATOM     19  C   UNL     1     -15.867  45.335  -0.179  0.00  0.00    +0.000 C 
ATOM     20  C   UNL     1     -15.955  46.026   1.100  0.00  0.00    +0.000 C 
ENDROOT
BRANCH   9  21
ATOM     21  O   UNL     1     -12.164  50.746  -6.395  0.00  0.00    +0.000 OA
ATOM     22  H   UNL     1     -12.094  50.403  -7.307  0.00  0.00    +0.000 HD
ENDBRANCH   9  21
TORSDOF 1
ENDMDL
MODEL 2
REMARK VINA RESULT:      -6.2     20.515     22.197
REMARK  Name = Testosterone.pdbqt.pdb
REMARK  1 active torsions:
REMARK  status: ('A' for Active; 'I' for Inactive)
REMARK    1  A    between atoms: C_9  and  O_21
REMARK                            x       y       z     vdW  Elec       q    Type
REMARK                         _______ _______ _______ _____ _____    ______ ____
ROOT
ATOM      1  O   UNL     1     -32.563  43.614  -3.969  0.00  0.00    +0.000 OA
ATOM      2  C   UNL     1     -35.618  44.857 -10.878  0.00  0.00    +0.000 C 
ATOM      3  C   UNL     1     -36.733  45.982 -11.123  0.00  0.00    +0.000 C 
ATOM      4  C   UNL     1     -34.627  44.976  -9.789  0.00  0.00    +0.000 C 
ATOM      5  C   UNL     1     -34.701  45.924  -8.625  0.00  0.00    +0.000 C 
ATOM      6  C   UNL     1     -33.591  46.071  -7.561  0.00  0.00    +0.000 C 
ATOM      7  C   UNL     1     -36.820  46.737  -9.871  0.00  0.00    +0.000 C 
ATOM      8  C   UNL     1     -35.863  46.740  -8.704  0.00  0.00    +0.000 C 
ATOM      9  C   UNL     1     -38.018  45.166 -11.405  0.00  0.00    +0.000 C 
ATOM     10  C   UNL     1     -36.250  43.595 -11.125  0.00  0.00    +0.000 C 
ATOM     11  C   UNL     1     -33.556  44.059  -9.675  0.00  0.00    +0.000 C 
ATOM     12  C   UNL     1     -37.724  43.775 -11.393  0.00  0.00    +0.000 C 
ATOM     13  C   UNL     1     -32.549  44.789  -7.447  0.00  0.00    +0.000 C 
ATOM     14  C   UNL     1     -32.543  43.935  -8.578  0.00  0.00    +0.000 C 
ATOM     15  C   UNL     1     -36.356  46.855 -12.345  0.00  0.00    +0.000 C 
ATOM     16  C   UNL     1     -34.191  46.135  -6.187  0.00  0.00    +0.000 C 
ATOM     17  C   UNL     1     -32.731  47.327  -7.870  0.00  0.00    +0.000 C 
ATOM     18  C   UNL     1     -33.902  45.360  -4.880  0.00  0.00    +0.000 C 
ATOM     19  C   UNL     1     -32.378  44.243  -6.261  0.00  0.00    +0.000 C 
ATOM     20  C   UNL     1     -32.891  44.322  -4.902  0.00  0.00    +0.000 C 
ENDROOT
BRANCH   9  21
ATOM     21  O   UNL     1     -39.041  45.654 -12.197  0.00  0.00    +0.000 OA
ATOM     22  H   UNL     1     -38.693  46.075 -13.008  0.00  0.00    +0.000 HD
ENDBRANCH   9  21
TORSDOF 1
ENDMDL
MODEL 3
REMARK VINA RESULT:      -6.1     22.845     25.260
REMARK  Name = Testosterone.pdbqt.pdb
REMARK  1 active torsions:
REMARK  status: ('A' for Active; 'I' for Inactive)
REMARK    1  A    between atoms: C_9  and  O_21
REMARK                            x       y       z     vdW  Elec       q    Type
REMARK                         _______ _______ _______ _____ _____    ______ ____
ROOT
ATOM      1  O   UNL     1     -35.240  50.941 -20.412  0.00  0.00    +0.000 OA
ATOM      2  C   UNL     1     -31.813  44.320 -18.673  0.00  0.00    +0.000 C 
ATOM      3  C   UNL     1     -31.255  44.014 -17.202  0.00  0.00    +0.000 C 
ATOM      4  C   UNL     1     -32.938  45.250 -18.895  0.00  0.00    +0.000 C 
ATOM      5  C   UNL     1     -33.484  46.233 -17.896  0.00  0.00    +0.000 C 
ATOM      6  C   UNL     1     -34.723  47.121 -18.148  0.00  0.00    +0.000 C 
ATOM      7  C   UNL     1     -31.722  45.117 -16.361  0.00  0.00    +0.000 C 
ATOM      8  C   UNL     1     -32.783  46.147 -16.661  0.00  0.00    +0.000 C 
ATOM      9  C   UNL     1     -29.719  44.026 -17.385  0.00  0.00    +0.000 C 
ATOM     10  C   UNL     1     -30.673  44.370 -19.540  0.00  0.00    +0.000 C 
ATOM     11  C   UNL     1     -33.522  45.397 -20.174  0.00  0.00    +0.000 C 
ATOM     12  C   UNL     1     -29.393  44.246 -18.751  0.00  0.00    +0.000 C 
ATOM     13  C   UNL     1     -35.125  47.334 -19.740  0.00  0.00    +0.000 C 
ATOM     14  C   UNL     1     -34.565  46.375 -20.620  0.00  0.00    +0.000 C 
ATOM     15  C   UNL     1     -31.740  42.623 -16.723  0.00  0.00    +0.000 C 
ATOM     16  C   UNL     1     -34.463  48.523 -17.679  0.00  0.00    +0.000 C 
ATOM     17  C   UNL     1     -35.963  46.501 -17.447  0.00  0.00    +0.000 C 
ATOM     18  C   UNL     1     -34.626  49.901 -18.359  0.00  0.00    +0.000 C 
ATOM     19  C   UNL     1     -35.259  48.569 -20.177  0.00  0.00    +0.000 C 
ATOM     20  C   UNL     1     -35.080  49.944 -19.735  0.00  0.00    +0.000 C 
ENDROOT
BRANCH   9  21
ATOM     21  O   UNL     1     -28.875  43.285 -16.579  0.00  0.00    +0.000 OA
ATOM     22  H   UNL     1     -28.629  42.439 -17.004  0.00  0.00    +0.000 HD
ENDBRANCH   9  21
TORSDOF 1
ENDMDL
MODEL 4
REMARK VINA RESULT:      -6.1     18.792     21.604
REMARK  Name = Testosterone.pdbqt.pdb
REMARK  1 active torsions:
REMARK  status: ('A' for Active; 'I' for Inactive)
REMARK    1  A    between atoms: C_9  and  O_21
REMARK                            x       y       z     vdW  Elec       q    Type
REMARK                         _______ _______ _______ _____ _____    ______ ____
ROOT
ATOM      1  O   UNL     1     -17.482  56.961 -24.290  0.00  0.00    +0.000 OA
ATOM      2  C   UNL     1     -17.911  61.040 -17.825  0.00  0.00    +0.000 C 
ATOM      3  C   UNL     1     -17.730  60.366 -16.383  0.00  0.00    +0.000 C 
ATOM      4  C   UNL     1     -17.279  60.467 -19.031  0.00  0.00    +0.000 C 
ATOM      5  C   UNL     1     -16.686  59.090 -19.150  0.00  0.00    +0.000 C 
ATOM      6  C   UNL     1     -15.955  58.572 -20.409  0.00  0.00    +0.000 C 
ATOM      7  C   UNL     1     -17.302  58.989 -16.637  0.00  0.00    +0.000 C 
ATOM      8  C   UNL     1     -16.786  58.383 -17.920  0.00  0.00    +0.000 C 
ATOM      9  C   UNL     1     -19.148  60.434 -15.768  0.00  0.00    +0.000 C 
ATOM     10  C   UNL     1     -19.264  61.508 -17.891  0.00  0.00    +0.000 C 
ATOM     11  C   UNL     1     -17.317  61.150 -20.269  0.00  0.00    +0.000 C 
ATOM     12  C   UNL     1     -20.035  61.093 -16.662  0.00  0.00    +0.000 C 
ATOM     13  C   UNL     1     -16.294  59.390 -21.808  0.00  0.00    +0.000 C 
ATOM     14  C   UNL     1     -16.859  60.675 -21.614  0.00  0.00    +0.000 C 
ATOM     15  C   UNL     1     -16.722  61.178 -15.533  0.00  0.00    +0.000 C 
ATOM     16  C   UNL     1     -16.394  57.173 -20.727  0.00  0.00    +0.000 C 
ATOM     17  C   UNL     1     -14.419  58.657 -20.195  0.00  0.00    +0.000 C 
ATOM     18  C   UNL     1     -16.912  56.506 -22.023  0.00  0.00    +0.000 C 
ATOM     19  C   UNL     1     -16.700  58.688 -22.845  0.00  0.00    +0.000 C 
ATOM     20  C   UNL     1     -17.071  57.328 -23.206  0.00  0.00    +0.000 C 
ENDROOT
BRANCH   9  21
ATOM     21  O   UNL     1     -19.356  60.505 -14.403  0.00  0.00    +0.000 OA
ATOM     22  H   UNL     1     -20.244  60.857 -14.196  0.00  0.00    +0.000 HD
ENDBRANCH   9  21
TORSDOF 1
ENDMDL
MODEL 5
REMARK VINA RESULT:      -5.8      8.742     10.848
REMARK  Name = Testosterone.pdbqt.pdb
REMARK  1 active torsions:
REMARK  status: ('A' for Active; 'I' for Inactive)
REMARK    1  A    between atoms: C_9  and  O_21
REMARK                            x       y       z     vdW  Elec       q    Type
REMARK                         _______ _______ _______ _____ _____    ______ ____
ROOT
ATOM      1  O   UNL     1     -17.294  60.188   0.646  0.00  0.00    +0.000 OA
ATOM      2  C   UNL     1     -15.911  53.057   3.065  0.00  0.00    +0.000 C 
ATOM      3  C   UNL     1     -14.943  52.062   2.265  0.00  0.00    +0.000 C 
ATOM      4  C   UNL     1     -15.745  54.522   2.991  0.00  0.00    +0.000 C 
ATOM      5  C   UNL     1     -14.922  55.270   1.978  0.00  0.00    +0.000 C 
ATOM      6  C   UNL     1     -14.709  56.800   2.000  0.00  0.00    +0.000 C 
ATOM      7  C   UNL     1     -14.320  52.870   1.214  0.00  0.00    +0.000 C 
ATOM      8  C   UNL     1     -14.279  54.373   1.081  0.00  0.00    +0.000 C 
ATOM      9  C   UNL     1     -15.908  50.998   1.690  0.00  0.00    +0.000 C 
ATOM     10  C   UNL     1     -17.225  52.490   2.999  0.00  0.00    +0.000 C 
ATOM     11  C   UNL     1     -16.502  55.385   3.817  0.00  0.00    +0.000 C 
ATOM     12  C   UNL     1     -17.238  51.266   2.118  0.00  0.00    +0.000 C 
ATOM     13  C   UNL     1     -15.831  57.656   2.866  0.00  0.00    +0.000 C 
ATOM     14  C   UNL     1     -16.573  56.881   3.792  0.00  0.00    +0.000 C 
ATOM     15  C   UNL     1     -13.921  51.413   3.231  0.00  0.00    +0.000 C 
ATOM     16  C   UNL     1     -14.853  57.366   0.618  0.00  0.00    +0.000 C 
ATOM     17  C   UNL     1     -13.319  57.127   2.612  0.00  0.00    +0.000 C 
ATOM     18  C   UNL     1     -15.688  58.534   0.046  0.00  0.00    +0.000 C 
ATOM     19  C   UNL     1     -16.448  58.647   2.257  0.00  0.00    +0.000 C 
ATOM     20  C   UNL     1     -16.563  59.262   0.943  0.00  0.00    +0.000 C 
ENDROOT
BRANCH   9  21
ATOM     21  O   UNL     1     -15.507  49.699   1.437  0.00  0.00    +0.000 OA
ATOM     22  H   UNL     1     -16.264  49.137   1.181  0.00  0.00    +0.000 HD
ENDBRANCH   9  21
TORSDOF 1
ENDMDL
MODEL 6
REMARK VINA RESULT:      -5.5     21.914     23.840
REMARK  Name = Testosterone.pdbqt.pdb
REMARK  1 active torsions:
REMARK  status: ('A' for Active; 'I' for Inactive)
REMARK    1  A    between atoms: C_9  and  O_21
REMARK                            x       y       z     vdW  Elec       q    Type
REMARK                         _______ _______ _______ _____ _____    ______ ____
ROOT
ATOM      1  O   UNL     1     -39.960  50.363 -10.258  0.00  0.00    +0.000 OA
ATOM      2  C   UNL     1     -34.622  45.393  -7.930  0.00  0.00    +0.000 C 
ATOM      3  C   UNL     1     -34.579  44.835  -6.428  0.00  0.00    +0.000 C 
ATOM      4  C   UNL     1     -35.885  45.837  -8.553  0.00  0.00    +0.000 C 
ATOM      5  C   UNL     1     -37.173  46.127  -7.834  0.00  0.00    +0.000 C 
ATOM      6  C   UNL     1     -38.492  46.502  -8.545  0.00  0.00    +0.000 C 
ATOM      7  C   UNL     1     -35.807  45.313  -5.790  0.00  0.00    +0.000 C 
ATOM      8  C   UNL     1     -37.041  45.895  -6.437  0.00  0.00    +0.000 C 
ATOM      9  C   UNL     1     -33.314  45.496  -5.831  0.00  0.00    +0.000 C 
ATOM     10  C   UNL     1     -33.432  46.170  -8.112  0.00  0.00    +0.000 C 
ATOM     11  C   UNL     1     -35.940  46.182  -9.924  0.00  0.00    +0.000 C 
ATOM     12  C   UNL     1     -32.660  46.280  -6.820  0.00  0.00    +0.000 C 
ATOM     13  C   UNL     1     -38.323  47.081 -10.087  0.00  0.00    +0.000 C 
ATOM     14  C   UNL     1     -37.079  46.777 -10.694  0.00  0.00    +0.000 C 
ATOM     15  C   UNL     1     -34.444  43.292  -6.432  0.00  0.00    +0.000 C 
ATOM     16  C   UNL     1     -39.162  47.642  -7.833  0.00  0.00    +0.000 C 
ATOM     17  C   UNL     1     -39.416  45.256  -8.628  0.00  0.00    +0.000 C 
ATOM     18  C   UNL     1     -39.724  48.997  -8.322  0.00  0.00    +0.000 C 
ATOM     19  C   UNL     1     -38.880  48.240 -10.370  0.00  0.00    +0.000 C 
ATOM     20  C   UNL     1     -39.590  49.335  -9.725  0.00  0.00    +0.000 C 
ENDROOT
BRANCH   9  21
ATOM     21  O   UNL     1     -32.582  44.904  -4.817  0.00  0.00    +0.000 OA
ATOM     22  H   UNL     1     -31.649  45.193  -4.837  0.00  0.00    +0.000 HD
ENDBRANCH   9  21
TORSDOF 1
ENDMDL
MODEL 7
REMARK VINA RESULT:      -5.3     19.375     21.400
REMARK  Name = Testosterone.pdbqt.pdb
REMARK  1 active torsions:
REMARK  status: ('A' for Active; 'I' for Inactive)
REMARK    1  A    between atoms: C_9  and  O_21
REMARK                            x       y       z     vdW  Elec       q    Type
REMARK                         _______ _______ _______ _____ _____    ______ ____
ROOT
ATOM      1  O   UNL     1     -32.605  36.757  -4.752  0.00  0.00    +0.000 OA
ATOM      2  C   UNL     1     -34.374  44.092  -6.049  0.00  0.00    +0.000 C 
ATOM      3  C   UNL     1     -34.144  44.780  -7.478  0.00  0.00    +0.000 C 
ATOM      4  C   UNL     1     -34.610  42.640  -5.920  0.00  0.00    +0.000 C 
ATOM      5  C   UNL     1     -34.364  41.605  -6.984  0.00  0.00    +0.000 C 
ATOM      6  C   UNL     1     -34.714  40.109  -6.828  0.00  0.00    +0.000 C 
ATOM      7  C   UNL     1     -33.762  43.697  -8.385  0.00  0.00    +0.000 C 
ATOM      8  C   UNL     1     -33.883  42.207  -8.179  0.00  0.00    +0.000 C 
ATOM      9  C   UNL     1     -32.981  45.769  -7.223  0.00  0.00    +0.000 C 
ATOM     10  C   UNL     1     -33.490  44.749  -5.132  0.00  0.00    +0.000 C 
ATOM     11  C   UNL     1     -34.962  42.066  -4.677  0.00  0.00    +0.000 C 
ATOM     12  C   UNL     1     -32.602  45.732  -5.853  0.00  0.00    +0.000 C 
ATOM     13  C   UNL     1     -34.889  39.584  -5.267  0.00  0.00    +0.000 C 
ATOM     14  C   UNL     1     -35.107  40.617  -4.322  0.00  0.00    +0.000 C 
ATOM     15  C   UNL     1     -35.421  45.536  -7.922  0.00  0.00    +0.000 C 
ATOM     16  C   UNL     1     -33.591  39.255  -7.341  0.00  0.00    +0.000 C 
ATOM     17  C   UNL     1     -36.049  39.803  -7.561  0.00  0.00    +0.000 C 
ATOM     18  C   UNL     1     -32.811  38.070  -6.728  0.00  0.00    +0.000 C 
ATOM     19  C   UNL     1     -34.180  38.541  -4.888  0.00  0.00    +0.000 C 
ATOM     20  C   UNL     1     -33.136  37.653  -5.378  0.00  0.00    +0.000 C 
ENDROOT
BRANCH   9  21
ATOM     21  O   UNL     1     -32.828  46.931  -7.956  0.00  0.00    +0.000 OA
ATOM     22  H   UNL     1     -33.677  47.223  -8.342  0.00  0.00    +0.000 HD
ENDBRANCH   9  21
TORSDOF 1
ENDMDL
MODEL 8
REMARK VINA RESULT:      -5.3     21.442     23.445
REMARK  Name = Testosterone.pdbqt.pdb
REMARK  1 active torsions:
REMARK  status: ('A' for Active; 'I' for Inactive)
REMARK    1  A    between atoms: C_9  and  O_21
REMARK                            x       y       z     vdW  Elec       q    Type
REMARK                         _______ _______ _______ _____ _____    ______ ____
ROOT
ATOM      1  O   UNL     1     -35.069  48.376 -14.295  0.00  0.00    +0.000 OA
ATOM      2  C   UNL     1     -30.553  42.842 -17.050  0.00  0.00    +0.000 C 
ATOM      3  C   UNL     1     -30.547  41.364 -16.430  0.00  0.00    +0.000 C 
ATOM      4  C   UNL     1     -31.746  43.708 -16.971  0.00  0.00    +0.000 C 
ATOM      5  C   UNL     1     -32.940  43.492 -16.082  0.00  0.00    +0.000 C 
ATOM      6  C   UNL     1     -34.203  44.380 -16.104  0.00  0.00    +0.000 C 
ATOM      7  C   UNL     1     -31.653  41.329 -15.471  0.00  0.00    +0.000 C 
ATOM      8  C   UNL     1     -32.795  42.303 -15.314  0.00  0.00    +0.000 C 
ATOM      9  C   UNL     1     -29.167  41.266 -15.736  0.00  0.00    +0.000 C 
ATOM     10  C   UNL     1     -29.257  43.398 -16.793  0.00  0.00    +0.000 C 
ATOM     11  C   UNL     1     -31.794  44.947 -17.651  0.00  0.00    +0.000 C 
ATOM     12  C   UNL     1     -28.430  42.463 -15.947  0.00  0.00    +0.000 C 
ATOM     13  C   UNL     1     -33.998  45.883 -16.768  0.00  0.00    +0.000 C 
ATOM     14  C   UNL     1     -32.847  46.011 -17.584  0.00  0.00    +0.000 C 
ATOM     15  C   UNL     1     -30.672  40.308 -17.556  0.00  0.00    +0.000 C 
ATOM     16  C   UNL     1     -34.645  44.692 -14.704  0.00  0.00    +0.000 C 
ATOM     17  C   UNL     1     -35.325  43.675 -16.916  0.00  0.00    +0.000 C 
ATOM     18  C   UNL     1     -34.991  46.016 -13.985  0.00  0.00    +0.000 C 
ATOM     19  C   UNL     1     -34.364  46.924 -16.050  0.00  0.00    +0.000 C 
ATOM     20  C   UNL     1     -34.856  47.257 -14.721  0.00  0.00    +0.000 C 
ENDROOT
BRANCH   9  21
ATOM     21  O   UNL     1     -28.507  40.061 -15.575  0.00  0.00    +0.000 OA
ATOM     22  H   UNL     1     -28.799  39.601 -14.764  0.00  0.00    +0.000 HD
ENDBRANCH   9  21
TORSDOF 1
ENDMDL
MODEL 9
REMARK VINA RESULT:      -5.3     21.854     23.807
REMARK  Name = Testosterone.pdbqt.pdb
REMARK  1 active torsions:
REMARK  status: ('A' for Active; 'I' for Inactive)
REMARK    1  A    between atoms: C_9  and  O_21
REMARK                            x       y       z     vdW  Elec       q    Type
REMARK                         _______ _______ _______ _____ _____    ______ ____
ROOT
ATOM      1  O   UNL     1     -40.541  44.457 -12.771  0.00  0.00    +0.000 OA
ATOM      2  C   UNL     1     -34.994  46.328  -7.838  0.00  0.00    +0.000 C 
ATOM      3  C   UNL     1     -33.545  45.646  -7.892  0.00  0.00    +0.000 C 
ATOM      4  C   UNL     1     -35.836  46.449  -9.045  0.00  0.00    +0.000 C 
ATOM      5  C   UNL     1     -35.632  45.718 -10.344  0.00  0.00    +0.000 C 
ATOM      6  C   UNL     1     -36.490  45.949 -11.607  0.00  0.00    +0.000 C 
ATOM      7  C   UNL     1     -33.527  44.842  -9.116  0.00  0.00    +0.000 C 
ATOM      8  C   UNL     1     -34.482  44.883 -10.284  0.00  0.00    +0.000 C 
ATOM      9  C   UNL     1     -33.507  44.770  -6.616  0.00  0.00    +0.000 C 
ATOM     10  C   UNL     1     -35.589  45.927  -6.598  0.00  0.00    +0.000 C 
ATOM     11  C   UNL     1     -37.042  47.186  -9.022  0.00  0.00    +0.000 C 
ATOM     12  C   UNL     1     -34.710  44.936  -5.877  0.00  0.00    +0.000 C 
ATOM     13  C   UNL     1     -37.967  46.648 -11.339  0.00  0.00    +0.000 C 
ATOM     14  C   UNL     1     -38.085  47.309 -10.091  0.00  0.00    +0.000 C 
ATOM     15  C   UNL     1     -32.438  46.729  -7.848  0.00  0.00    +0.000 C 
ATOM     16  C   UNL     1     -36.853  44.636 -12.238  0.00  0.00    +0.000 C 
ATOM     17  C   UNL     1     -35.727  46.870 -12.598  0.00  0.00    +0.000 C 
ATOM     18  C   UNL     1     -38.199  44.032 -12.698  0.00  0.00    +0.000 C 
ATOM     19  C   UNL     1     -39.030  46.034 -11.814  0.00  0.00    +0.000 C 
ATOM     20  C   UNL     1     -39.410  44.799 -12.485  0.00  0.00    +0.000 C 
ENDROOT
BRANCH   9  21
ATOM     21  O   UNL     1     -32.325  44.468  -5.965  0.00  0.00    +0.000 OA
ATOM     22  H   UNL     1     -31.796  45.272  -5.796  0.00  0.00    +0.000 HD
ENDBRANCH   9  21
TORSDOF 1
ENDMDL
