MODEL 1
REMARK VINA RESULT:      -2.5      0.000      0.000
REMARK  Name = Tetrachloroethylene.pdbqt.pdb
REMARK  0 active torsions:
REMARK  status: ('A' for Active; 'I' for Inactive)
REMARK                            x       y       z     vdW  Elec       q    Type
REMARK                         _______ _______ _______ _____ _____    ______ ____
ROOT
ATOM      1 CL   UNL     1     -32.687  45.284  -5.798  0.00  0.00    +0.000 Cl
ATOM      2 CL   UNL     1     -35.176  43.781  -6.147  0.00  0.00    +0.000 Cl
ATOM      3 CL   UNL     1     -34.382  41.890  -3.667  0.00  0.00    +0.000 Cl
ATOM      4 CL   UNL     1     -31.893  43.393  -3.319  0.00  0.00    +0.000 Cl
ATOM      5  C   UNL     1     -33.700  43.982  -5.251  0.00  0.00    +0.000 C 
ATOM      6  C   UNL     1     -33.369  43.192  -4.215  0.00  0.00    +0.000 C 
ENDROOT
TORSDOF 0
ENDMDL
MODEL 2
REMARK VINA RESULT:      -2.5      0.706      3.641
REMARK  Name = Tetrachloroethylene.pdbqt.pdb
REMARK  0 active torsions:
REMARK  status: ('A' for Active; 'I' for Inactive)
REMARK                            x       y       z     vdW  Elec       q    Type
REMARK                         _______ _______ _______ _____ _____    ______ ____
ROOT
ATOM      1 CL   UNL     1     -33.996  41.573  -4.693  0.00  0.00    +0.000 Cl
ATOM      2 CL   UNL     1     -32.077  43.405  -3.454  0.00  0.00    +0.000 Cl
ATOM      3 CL   UNL     1     -32.696  45.593  -5.731  0.00  0.00    +0.000 Cl
ATOM      4 CL   UNL     1     -34.615  43.761  -6.970  0.00  0.00    +0.000 Cl
ATOM      5  C   UNL     1     -33.216  43.126  -4.737  0.00  0.00    +0.000 C 
ATOM      6  C   UNL     1     -33.475  44.040  -5.688  0.00  0.00    +0.000 C 
ENDROOT
TORSDOF 0
ENDMDL
MODEL 3
REMARK VINA RESULT:      -2.5      0.578      2.586
REMARK  Name = Tetrachloroethylene.pdbqt.pdb
REMARK  0 active torsions:
REMARK  status: ('A' for Active; 'I' for Inactive)
REMARK                            x       y       z     vdW  Elec       q    Type
REMARK                         _______ _______ _______ _____ _____    ______ ____
ROOT
ATOM      1 CL   UNL     1     -34.526  41.674  -3.761  0.00  0.00    +0.000 Cl
ATOM      2 CL   UNL     1     -35.196  43.251  -6.135  0.00  0.00    +0.000 Cl
ATOM      3 CL   UNL     1     -32.562  45.045  -5.685  0.00  0.00    +0.000 Cl
ATOM      4 CL   UNL     1     -31.892  43.467  -3.311  0.00  0.00    +0.000 Cl
ATOM      5  C   UNL     1     -34.094  42.985  -4.817  0.00  0.00    +0.000 C 
ATOM      6  C   UNL     1     -32.994  43.734  -4.629  0.00  0.00    +0.000 C 
ENDROOT
TORSDOF 0
ENDMDL
MODEL 4
REMARK VINA RESULT:      -2.4     19.461     20.249
REMARK  Name = Tetrachloroethylene.pdbqt.pdb
REMARK  0 active torsions:
REMARK  status: ('A' for Active; 'I' for Inactive)
REMARK                            x       y       z     vdW  Elec       q    Type
REMARK                         _______ _______ _______ _____ _____    ______ ____
ROOT
ATOM      1 CL   UNL     1     -17.125  50.728   6.337  0.00  0.00    +0.000 Cl
ATOM      2 CL   UNL     1     -16.265  48.950   4.176  0.00  0.00    +0.000 Cl
ATOM      3 CL   UNL     1     -17.257  51.109   2.005  0.00  0.00    +0.000 Cl
ATOM      4 CL   UNL     1     -18.118  52.887   4.167  0.00  0.00    +0.000 Cl
ATOM      5  C   UNL     1     -16.984  50.468   4.625  0.00  0.00    +0.000 C 
ATOM      6  C   UNL     1     -17.398  51.370   3.718  0.00  0.00    +0.000 C 
ENDROOT
TORSDOF 0
ENDMDL
MODEL 5
REMARK VINA RESULT:      -2.4     12.845     13.846
REMARK  Name = Tetrachloroethylene.pdbqt.pdb
REMARK  0 active torsions:
REMARK  status: ('A' for Active; 'I' for Inactive)
REMARK                            x       y       z     vdW  Elec       q    Type
REMARK                         _______ _______ _______ _____ _____    ______ ____
ROOT
ATOM      1 CL   UNL     1     -28.561  51.736   7.576  0.00  0.00    +0.000 Cl
ATOM      2 CL   UNL     1     -29.502  52.126   4.831  0.00  0.00    +0.000 Cl
ATOM      3 CL   UNL     1     -31.678  49.792   5.246  0.00  0.00    +0.000 Cl
ATOM      4 CL   UNL     1     -30.736  49.401   7.991  0.00  0.00    +0.000 Cl
ATOM      5  C   UNL     1     -29.665  51.251   6.324  0.00  0.00    +0.000 C 
ATOM      6  C   UNL     1     -30.574  50.276   6.498  0.00  0.00    +0.000 C 
ENDROOT
TORSDOF 0
ENDMDL
MODEL 6
REMARK VINA RESULT:      -2.4     26.842     27.656
REMARK  Name = Tetrachloroethylene.pdbqt.pdb
REMARK  0 active torsions:
REMARK  status: ('A' for Active; 'I' for Inactive)
REMARK                            x       y       z     vdW  Elec       q    Type
REMARK                         _______ _______ _______ _____ _____    ______ ____
ROOT
ATOM      1 CL   UNL     1     -16.672  57.349 -20.526  0.00  0.00    +0.000 Cl
ATOM      2 CL   UNL     1     -15.498  54.683 -20.819  0.00  0.00    +0.000 Cl
ATOM      3 CL   UNL     1     -16.136  54.749 -23.972  0.00  0.00    +0.000 Cl
ATOM      4 CL   UNL     1     -17.310  57.415 -23.679  0.00  0.00    +0.000 Cl
ATOM      5  C   UNL     1     -16.270  56.035 -21.590  0.00  0.00    +0.000 C 
ATOM      6  C   UNL     1     -16.537  56.063 -22.907  0.00  0.00    +0.000 C 
ENDROOT
TORSDOF 0
ENDMDL
MODEL 7
REMARK VINA RESULT:      -2.4     19.447     20.156
REMARK  Name = Tetrachloroethylene.pdbqt.pdb
REMARK  0 active torsions:
REMARK  status: ('A' for Active; 'I' for Inactive)
REMARK                            x       y       z     vdW  Elec       q    Type
REMARK                         _______ _______ _______ _____ _____    ______ ____
ROOT
ATOM      1 CL   UNL     1     -16.398  49.232   4.129  0.00  0.00    +0.000 Cl
ATOM      2 CL   UNL     1     -17.211  51.012   1.951  0.00  0.00    +0.000 Cl
ATOM      3 CL   UNL     1     -18.209  53.188   4.103  0.00  0.00    +0.000 Cl
ATOM      4 CL   UNL     1     -17.395  51.407   6.280  0.00  0.00    +0.000 Cl
ATOM      5  C   UNL     1     -17.095  50.755   3.666  0.00  0.00    +0.000 C 
ATOM      6  C   UNL     1     -17.512  51.664   4.565  0.00  0.00    +0.000 C 
ENDROOT
TORSDOF 0
ENDMDL
MODEL 8
REMARK VINA RESULT:      -2.4     19.590     20.445
REMARK  Name = Tetrachloroethylene.pdbqt.pdb
REMARK  0 active torsions:
REMARK  status: ('A' for Active; 'I' for Inactive)
REMARK                            x       y       z     vdW  Elec       q    Type
REMARK                         _______ _______ _______ _____ _____    ______ ____
ROOT
ATOM      1 CL   UNL     1     -16.640  49.443   5.124  0.00  0.00    +0.000 Cl
ATOM      2 CL   UNL     1     -17.530  51.822   6.580  0.00  0.00    +0.000 Cl
ATOM      3 CL   UNL     1     -18.068  53.329   3.787  0.00  0.00    +0.000 Cl
ATOM      4 CL   UNL     1     -17.178  50.949   2.332  0.00  0.00    +0.000 Cl
ATOM      5  C   UNL     1     -17.242  51.071   5.039  0.00  0.00    +0.000 C 
ATOM      6  C   UNL     1     -17.467  51.700   3.873  0.00  0.00    +0.000 C 
ENDROOT
TORSDOF 0
ENDMDL
MODEL 9
REMARK VINA RESULT:      -2.4     13.393     14.291
REMARK  Name = Tetrachloroethylene.pdbqt.pdb
REMARK  0 active torsions:
REMARK  status: ('A' for Active; 'I' for Inactive)
REMARK                            x       y       z     vdW  Elec       q    Type
REMARK                         _______ _______ _______ _____ _____    ______ ____
ROOT
ATOM      1 CL   UNL     1     -30.638  48.555   8.743  0.00  0.00    +0.000 Cl
ATOM      2 CL   UNL     1     -28.185  49.694   7.621  0.00  0.00    +0.000 Cl
ATOM      3 CL   UNL     1     -29.932  51.360   5.493  0.00  0.00    +0.000 Cl
ATOM      4 CL   UNL     1     -32.385  50.221   6.615  0.00  0.00    +0.000 Cl
ATOM      5  C   UNL     1     -29.920  49.610   7.562  0.00  0.00    +0.000 C 
ATOM      6  C   UNL     1     -30.650  50.305   6.673  0.00  0.00    +0.000 C 
ENDROOT
TORSDOF 0
ENDMDL
