MODEL 1
REMARK VINA RESULT:      -6.0      0.000      0.000
REMARK  Name = Thalidomide.pdbqt.pdb
REMARK  1 active torsions:
REMARK  status: ('A' for Active; 'I' for Inactive)
REMARK    1  A    between atoms: N_3  and  C_12
REMARK                            x       y       z     vdW  Elec       q    Type
REMARK                         _______ _______ _______ _____ _____    ______ ____
ROOT
ATOM      1  O   UNL     1     -33.802  44.399  -9.667  0.00  0.00    +0.000 OA
ATOM      2  O   UNL     1     -36.783  46.460  -6.834  0.00  0.00    +0.000 OA
ATOM      3  N   UNL     1     -34.940  45.432  -7.881  0.00  0.00    +0.000 N 
ATOM      4  C   UNL     1     -34.672  45.105  -9.191  0.00  0.00    +0.000 C 
ATOM      5  C   UNL     1     -36.091  46.184  -7.795  0.00  0.00    +0.000 C 
ATOM      6  C   UNL     1     -35.655  45.802 -10.011  0.00  0.00    +0.000 A 
ATOM      7  C   UNL     1     -36.507  46.476  -9.162  0.00  0.00    +0.000 A 
ATOM      8  C   UNL     1     -35.808  45.832 -11.382  0.00  0.00    +0.000 A 
ATOM      9  C   UNL     1     -37.578  47.212  -9.625  0.00  0.00    +0.000 A 
ATOM     10  C   UNL     1     -36.876  46.583 -11.876  0.00  0.00    +0.000 A 
ATOM     11  C   UNL     1     -37.750  47.264 -11.010  0.00  0.00    +0.000 A 
ENDROOT
BRANCH   3  12
ATOM     12  C   UNL     1     -34.235  44.967  -6.799  0.00  0.00    +0.000 C 
ATOM     13  C   UNL     1     -34.575  43.784  -6.105  0.00  0.00    +0.000 C 
ATOM     14  C   UNL     1     -33.896  43.385  -4.831  0.00  0.00    +0.000 C 
ATOM     15  C   UNL     1     -32.825  44.148  -4.263  0.00  0.00    +0.000 C 
ATOM     16  O   UNL     1     -32.223  43.782  -3.268  0.00  0.00    +0.000 OA
ATOM     17  N   UNL     1     -32.524  45.292  -4.999  0.00  0.00    +0.000 N 
ATOM     18  C   UNL     1     -32.990  45.670  -6.267  0.00  0.00    +0.000 C 
ATOM     19  H   UNL     1     -31.689  45.773  -4.700  0.00  0.00    +0.000 HD
ATOM     20  O   UNL     1     -32.330  46.441  -6.957  0.00  0.00    +0.000 OA
ENDBRANCH   3  12
TORSDOF 1
ENDMDL
MODEL 2
REMARK VINA RESULT:      -6.0      3.263      5.430
REMARK  Name = Thalidomide.pdbqt.pdb
REMARK  1 active torsions:
REMARK  status: ('A' for Active; 'I' for Inactive)
REMARK    1  A    between atoms: N_3  and  C_12
REMARK                            x       y       z     vdW  Elec       q    Type
REMARK                         _______ _______ _______ _____ _____    ______ ____
ROOT
ATOM      1  O   UNL     1     -36.623  43.268  -5.119  0.00  0.00    +0.000 OA
ATOM      2  O   UNL     1     -32.104  43.101  -4.270  0.00  0.00    +0.000 OA
ATOM      3  N   UNL     1     -34.409  42.697  -4.549  0.00  0.00    +0.000 N 
ATOM      4  C   UNL     1     -35.414  43.406  -5.165  0.00  0.00    +0.000 C 
ATOM      5  C   UNL     1     -33.182  43.270  -4.806  0.00  0.00    +0.000 C 
ATOM      6  C   UNL     1     -34.772  44.435  -5.975  0.00  0.00    +0.000 A 
ATOM      7  C   UNL     1     -33.411  44.339  -5.772  0.00  0.00    +0.000 A 
ATOM      8  C   UNL     1     -35.326  45.388  -6.804  0.00  0.00    +0.000 A 
ATOM      9  C   UNL     1     -32.515  45.198  -6.372  0.00  0.00    +0.000 A 
ATOM     10  C   UNL     1     -34.438  46.261  -7.436  0.00  0.00    +0.000 A 
ATOM     11  C   UNL     1     -33.052  46.168  -7.223  0.00  0.00    +0.000 A 
ENDROOT
BRANCH   3  12
ATOM     12  C   UNL     1     -34.607  41.643  -3.691  0.00  0.00    +0.000 C 
ATOM     13  C   UNL     1     -34.815  40.317  -4.131  0.00  0.00    +0.000 C 
ATOM     14  C   UNL     1     -35.193  39.216  -3.189  0.00  0.00    +0.000 C 
ATOM     15  C   UNL     1     -35.317  39.426  -1.777  0.00  0.00    +0.000 C 
ATOM     16  O   UNL     1     -35.551  38.513  -1.002  0.00  0.00    +0.000 OA
ATOM     17  N   UNL     1     -35.086  40.747  -1.402  0.00  0.00    +0.000 N 
ATOM     18  C   UNL     1     -34.585  41.806  -2.174  0.00  0.00    +0.000 C 
ATOM     19  H   UNL     1     -35.033  40.895  -0.405  0.00  0.00    +0.000 HD
ATOM     20  O   UNL     1     -34.034  42.756  -1.626  0.00  0.00    +0.000 OA
ENDBRANCH   3  12
TORSDOF 1
ENDMDL
MODEL 3
REMARK VINA RESULT:      -5.6      9.714     10.652
REMARK  Name = Thalidomide.pdbqt.pdb
REMARK  1 active torsions:
REMARK  status: ('A' for Active; 'I' for Inactive)
REMARK    1  A    between atoms: N_3  and  C_12
REMARK                            x       y       z     vdW  Elec       q    Type
REMARK                         _______ _______ _______ _____ _____    ______ ____
ROOT
ATOM      1  O   UNL     1     -32.494  44.383 -20.110  0.00  0.00    +0.000 OA
ATOM      2  O   UNL     1     -32.797  46.331 -15.952  0.00  0.00    +0.000 OA
ATOM      3  N   UNL     1     -32.189  45.164 -17.908  0.00  0.00    +0.000 N 
ATOM      4  C   UNL     1     -32.708  45.142 -19.182  0.00  0.00    +0.000 C 
ATOM      5  C   UNL     1     -32.794  46.147 -17.155  0.00  0.00    +0.000 C 
ATOM      6  C   UNL     1     -33.623  46.273 -19.287  0.00  0.00    +0.000 A 
ATOM      7  C   UNL     1     -33.660  46.897 -18.057  0.00  0.00    +0.000 A 
ATOM      8  C   UNL     1     -34.376  46.710 -20.356  0.00  0.00    +0.000 A 
ATOM      9  C   UNL     1     -34.463  47.990 -17.811  0.00  0.00    +0.000 A 
ATOM     10  C   UNL     1     -35.187  47.826 -20.137  0.00  0.00    +0.000 A 
ATOM     11  C   UNL     1     -35.230  48.458 -18.881  0.00  0.00    +0.000 A 
ENDROOT
BRANCH   3  12
ATOM     12  C   UNL     1     -31.289  44.253 -17.414  0.00  0.00    +0.000 C 
ATOM     13  C   UNL     1     -31.665  43.146 -16.621  0.00  0.00    +0.000 C 
ATOM     14  C   UNL     1     -30.656  42.261 -15.957  0.00  0.00    +0.000 C 
ATOM     15  C   UNL     1     -29.245  42.450 -16.125  0.00  0.00    +0.000 C 
ATOM     16  O   UNL     1     -28.426  41.684 -15.646  0.00  0.00    +0.000 OA
ATOM     17  N   UNL     1     -28.936  43.546 -16.928  0.00  0.00    +0.000 N 
ATOM     18  C   UNL     1     -29.794  44.334 -17.709  0.00  0.00    +0.000 C 
ATOM     19  H   UNL     1     -27.960  43.620 -17.173  0.00  0.00    +0.000 HD
ATOM     20  O   UNL     1     -29.350  44.953 -18.671  0.00  0.00    +0.000 OA
ENDBRANCH   3  12
TORSDOF 1
ENDMDL
MODEL 4
REMARK VINA RESULT:      -5.5      8.950     12.538
REMARK  Name = Thalidomide.pdbqt.pdb
REMARK  1 active torsions:
REMARK  status: ('A' for Active; 'I' for Inactive)
REMARK    1  A    between atoms: N_3  and  C_12
REMARK                            x       y       z     vdW  Elec       q    Type
REMARK                         _______ _______ _______ _____ _____    ______ ____
ROOT
ATOM      1  O   UNL     1     -37.178  48.531 -17.911  0.00  0.00    +0.000 OA
ATOM      2  O   UNL     1     -32.833  47.026 -18.072  0.00  0.00    +0.000 OA
ATOM      3  N   UNL     1     -34.922  48.064 -18.407  0.00  0.00    +0.000 N 
ATOM      4  C   UNL     1     -36.053  48.160 -17.629  0.00  0.00    +0.000 C 
ATOM      5  C   UNL     1     -33.890  47.494 -17.693  0.00  0.00    +0.000 C 
ATOM      6  C   UNL     1     -35.680  47.734 -16.285  0.00  0.00    +0.000 A 
ATOM      7  C   UNL     1     -34.357  47.348 -16.320  0.00  0.00    +0.000 A 
ATOM      8  C   UNL     1     -36.435  47.668 -15.132  0.00  0.00    +0.000 A 
ATOM      9  C   UNL     1     -33.704  46.856 -15.209  0.00  0.00    +0.000 A 
ATOM     10  C   UNL     1     -35.792  47.189 -13.989  0.00  0.00    +0.000 A 
ATOM     11  C   UNL     1     -34.445  46.788 -14.026  0.00  0.00    +0.000 A 
ENDROOT
BRANCH   3  12
ATOM     12  C   UNL     1     -34.864  48.371 -19.744  0.00  0.00    +0.000 C 
ATOM     13  C   UNL     1     -34.976  47.401 -20.765  0.00  0.00    +0.000 C 
ATOM     14  C   UNL     1     -34.744  47.733 -22.207  0.00  0.00    +0.000 C 
ATOM     15  C   UNL     1     -34.446  49.064 -22.647  0.00  0.00    +0.000 C 
ATOM     16  O   UNL     1     -34.332  49.346 -23.828  0.00  0.00    +0.000 OA
ATOM     17  N   UNL     1     -34.364  49.977 -21.599  0.00  0.00    +0.000 N 
ATOM     18  C   UNL     1     -34.708  49.801 -20.250  0.00  0.00    +0.000 C 
ATOM     19  H   UNL     1     -34.290  50.940 -21.890  0.00  0.00    +0.000 HD
ATOM     20  O   UNL     1     -34.997  50.775 -19.561  0.00  0.00    +0.000 OA
ENDBRANCH   3  12
TORSDOF 1
ENDMDL
MODEL 5
REMARK VINA RESULT:      -5.5     26.495     28.335
REMARK  Name = Thalidomide.pdbqt.pdb
REMARK  1 active torsions:
REMARK  status: ('A' for Active; 'I' for Inactive)
REMARK    1  A    between atoms: N_3  and  C_12
REMARK                            x       y       z     vdW  Elec       q    Type
REMARK                         _______ _______ _______ _____ _____    ______ ____
ROOT
ATOM      1  O   UNL     1     -17.359  56.427 -26.114  0.00  0.00    +0.000 OA
ATOM      2  O   UNL     1     -16.179  51.981 -26.144  0.00  0.00    +0.000 OA
ATOM      3  N   UNL     1     -16.726  54.219 -26.638  0.00  0.00    +0.000 N 
ATOM      4  C   UNL     1     -16.885  55.338 -25.852  0.00  0.00    +0.000 C 
ATOM      5  C   UNL     1     -16.231  53.170 -25.894  0.00  0.00    +0.000 C 
ATOM      6  C   UNL     1     -16.335  55.015 -24.540  0.00  0.00    +0.000 A 
ATOM      7  C   UNL     1     -15.919  53.701 -24.572  0.00  0.00    +0.000 A 
ATOM      8  C   UNL     1     -16.226  55.794 -23.407  0.00  0.00    +0.000 A 
ATOM      9  C   UNL     1     -15.379  53.073 -23.469  0.00  0.00    +0.000 A 
ATOM     10  C   UNL     1     -15.668  55.186 -22.281  0.00  0.00    +0.000 A 
ATOM     11  C   UNL     1     -15.250  53.843 -22.311  0.00  0.00    +0.000 A 
ENDROOT
BRANCH   3  12
ATOM     12  C   UNL     1     -17.126  54.120 -27.947  0.00  0.00    +0.000 C 
ATOM     13  C   UNL     1     -18.455  53.829 -28.330  0.00  0.00    +0.000 C 
ATOM     14  C   UNL     1     -18.833  53.563 -29.755  0.00  0.00    +0.000 C 
ATOM     15  C   UNL     1     -17.883  53.636 -30.825  0.00  0.00    +0.000 C 
ATOM     16  O   UNL     1     -18.208  53.493 -31.992  0.00  0.00    +0.000 OA
ATOM     17  N   UNL     1     -16.596  53.942 -30.388  0.00  0.00    +0.000 N 
ATOM     18  C   UNL     1     -16.173  54.352 -29.116  0.00  0.00    +0.000 C 
ATOM     19  H   UNL     1     -15.939  54.133 -31.130  0.00  0.00    +0.000 HD
ATOM     20  O   UNL     1     -15.132  54.991 -28.993  0.00  0.00    +0.000 OA
ENDBRANCH   3  12
TORSDOF 1
ENDMDL
MODEL 6
REMARK VINA RESULT:      -5.5     21.006     22.367
REMARK  Name = Thalidomide.pdbqt.pdb
REMARK  1 active torsions:
REMARK  status: ('A' for Active; 'I' for Inactive)
REMARK    1  A    between atoms: N_3  and  C_12
REMARK                            x       y       z     vdW  Elec       q    Type
REMARK                         _______ _______ _______ _____ _____    ______ ____
ROOT
ATOM      1  O   UNL     1     -15.739  48.474   5.230  0.00  0.00    +0.000 OA
ATOM      2  O   UNL     1     -17.203  51.101   1.748  0.00  0.00    +0.000 OA
ATOM      3  N   UNL     1     -16.484  49.377   3.186  0.00  0.00    +0.000 N 
ATOM      4  C   UNL     1     -16.297  49.313   4.548  0.00  0.00    +0.000 C 
ATOM      5  C   UNL     1     -17.088  50.565   2.834  0.00  0.00    +0.000 C 
ATOM      6  C   UNL     1     -16.940  50.491   5.119  0.00  0.00    +0.000 A 
ATOM      7  C   UNL     1     -17.439  51.243   4.077  0.00  0.00    +0.000 A 
ATOM      8  C   UNL     1     -17.061  50.886   6.435  0.00  0.00    +0.000 A 
ATOM      9  C   UNL     1     -18.079  52.448   4.279  0.00  0.00    +0.000 A 
ATOM     10  C   UNL     1     -17.721  52.094   6.668  0.00  0.00    +0.000 A 
ATOM     11  C   UNL     1     -18.223  52.866   5.605  0.00  0.00    +0.000 A 
ENDROOT
BRANCH   3  12
ATOM     12  C   UNL     1     -16.019  48.449   2.287  0.00  0.00    +0.000 C 
ATOM     13  C   UNL     1     -16.769  47.324   1.879  0.00  0.00    +0.000 C 
ATOM     14  C   UNL     1     -16.181  46.240   1.030  0.00  0.00    +0.000 C 
ATOM     15  C   UNL     1     -14.837  46.300   0.535  0.00  0.00    +0.000 C 
ATOM     16  O   UNL     1     -14.384  45.454  -0.219  0.00  0.00    +0.000 OA
ATOM     17  N   UNL     1     -14.154  47.438   0.957  0.00  0.00    +0.000 N 
ATOM     18  C   UNL     1     -14.653  48.570   1.618  0.00  0.00    +0.000 C 
ATOM     19  H   UNL     1     -13.257  47.573   0.515  0.00  0.00    +0.000 HD
ATOM     20  O   UNL     1     -14.059  49.640   1.532  0.00  0.00    +0.000 OA
ENDBRANCH   3  12
TORSDOF 1
ENDMDL
MODEL 7
REMARK VINA RESULT:      -5.5      9.605     13.077
REMARK  Name = Thalidomide.pdbqt.pdb
REMARK  1 active torsions:
REMARK  status: ('A' for Active; 'I' for Inactive)
REMARK    1  A    between atoms: N_3  and  C_12
REMARK                            x       y       z     vdW  Elec       q    Type
REMARK                         _______ _______ _______ _____ _____    ______ ____
ROOT
ATOM      1  O   UNL     1     -33.161  47.584 -18.505  0.00  0.00    +0.000 OA
ATOM      2  O   UNL     1     -37.230  49.725 -18.659  0.00  0.00    +0.000 OA
ATOM      3  N   UNL     1     -35.246  48.524 -19.073  0.00  0.00    +0.000 N 
ATOM      4  C   UNL     1     -34.266  48.023 -18.246  0.00  0.00    +0.000 C 
ATOM      5  C   UNL     1     -36.305  49.006 -18.335  0.00  0.00    +0.000 C 
ATOM      6  C   UNL     1     -34.792  48.078 -16.887  0.00  0.00    +0.000 A 
ATOM      7  C   UNL     1     -36.042  48.658 -16.944  0.00  0.00    +0.000 A 
ATOM      8  C   UNL     1     -34.222  47.675 -15.697  0.00  0.00    +0.000 A 
ATOM      9  C   UNL     1     -36.798  48.888 -15.814  0.00  0.00    +0.000 A 
ATOM     10  C   UNL     1     -34.975  47.883 -14.540  0.00  0.00    +0.000 A 
ATOM     11  C   UNL     1     -36.246  48.481 -14.597  0.00  0.00    +0.000 A 
ENDROOT
BRANCH   3  12
ATOM     12  C   UNL     1     -35.131  48.646 -20.436  0.00  0.00    +0.000 C 
ATOM     13  C   UNL     1     -35.461  47.609 -21.336  0.00  0.00    +0.000 C 
ATOM     14  C   UNL     1     -35.172  47.705 -22.803  0.00  0.00    +0.000 C 
ATOM     15  C   UNL     1     -34.592  48.875 -23.393  0.00  0.00    +0.000 C 
ATOM     16  O   UNL     1     -34.428  48.981 -24.597  0.00  0.00    +0.000 OA
ATOM     17  N   UNL     1     -34.304  49.868 -22.460  0.00  0.00    +0.000 N 
ATOM     18  C   UNL     1     -34.668  49.936 -21.107  0.00  0.00    +0.000 C 
ATOM     19  H   UNL     1     -34.023  50.750 -22.862  0.00  0.00    +0.000 HD
ATOM     20  O   UNL     1     -34.732  51.025 -20.544  0.00  0.00    +0.000 OA
ENDBRANCH   3  12
TORSDOF 1
ENDMDL
MODEL 8
REMARK VINA RESULT:      -5.4      8.068      9.952
REMARK  Name = Thalidomide.pdbqt.pdb
REMARK  1 active torsions:
REMARK  status: ('A' for Active; 'I' for Inactive)
REMARK    1  A    between atoms: N_3  and  C_12
REMARK                            x       y       z     vdW  Elec       q    Type
REMARK                         _______ _______ _______ _____ _____    ______ ____
ROOT
ATOM      1  O   UNL     1     -31.530  45.203 -18.650  0.00  0.00    +0.000 OA
ATOM      2  O   UNL     1     -32.505  44.298 -14.246  0.00  0.00    +0.000 OA
ATOM      3  N   UNL     1     -31.576  44.498 -16.403  0.00  0.00    +0.000 N 
ATOM      4  C   UNL     1     -31.905  45.268 -17.494  0.00  0.00    +0.000 C 
ATOM      5  C   UNL     1     -32.322  44.868 -15.305  0.00  0.00    +0.000 C 
ATOM      6  C   UNL     1     -32.841  46.285 -17.028  0.00  0.00    +0.000 A 
ATOM      7  C   UNL     1     -33.079  46.054 -15.689  0.00  0.00    +0.000 A 
ATOM      8  C   UNL     1     -33.450  47.314 -17.716  0.00  0.00    +0.000 A 
ATOM      9  C   UNL     1     -33.953  46.826 -14.953  0.00  0.00    +0.000 A 
ATOM     10  C   UNL     1     -34.328  48.120 -16.988  0.00  0.00    +0.000 A 
ATOM     11  C   UNL     1     -34.577  47.879 -15.626  0.00  0.00    +0.000 A 
ENDROOT
BRANCH   3  12
ATOM     12  C   UNL     1     -30.720  43.425 -16.432  0.00  0.00    +0.000 C 
ATOM     13  C   UNL     1     -29.396  43.478 -15.941  0.00  0.00    +0.000 C 
ATOM     14  C   UNL     1     -28.430  42.350 -16.134  0.00  0.00    +0.000 C 
ATOM     15  C   UNL     1     -28.801  41.127 -16.781  0.00  0.00    +0.000 C 
ATOM     16  O   UNL     1     -28.036  40.181 -16.869  0.00  0.00    +0.000 OA
ATOM     17  N   UNL     1     -30.120  41.128 -17.228  0.00  0.00    +0.000 N 
ATOM     18  C   UNL     1     -31.136  42.059 -16.969  0.00  0.00    +0.000 C 
ATOM     19  H   UNL     1     -30.447  40.234 -17.564  0.00  0.00    +0.000 HD
ATOM     20  O   UNL     1     -32.313  41.719 -17.050  0.00  0.00    +0.000 OA
ENDBRANCH   3  12
TORSDOF 1
ENDMDL
MODEL 9
REMARK VINA RESULT:      -5.3     23.780     24.878
REMARK  Name = Thalidomide.pdbqt.pdb
REMARK  1 active torsions:
REMARK  status: ('A' for Active; 'I' for Inactive)
REMARK    1  A    between atoms: N_3  and  C_12
REMARK                            x       y       z     vdW  Elec       q    Type
REMARK                         _______ _______ _______ _____ _____    ______ ____
ROOT
ATOM      1  O   UNL     1     -28.665  64.807 -24.320  0.00  0.00    +0.000 OA
ATOM      2  O   UNL     1     -31.235  60.997 -24.102  0.00  0.00    +0.000 OA
ATOM      3  N   UNL     1     -30.367  63.188 -24.136  0.00  0.00    +0.000 N 
ATOM      4  C   UNL     1     -29.144  63.703 -24.502  0.00  0.00    +0.000 C 
ATOM      5  C   UNL     1     -30.447  61.851 -24.462  0.00  0.00    +0.000 C 
ATOM      6  C   UNL     1     -28.440  62.650 -25.225  0.00  0.00    +0.000 A 
ATOM      7  C   UNL     1     -29.243  61.528 -25.218  0.00  0.00    +0.000 A 
ATOM      8  C   UNL     1     -27.197  62.660 -25.822  0.00  0.00    +0.000 A 
ATOM      9  C   UNL     1     -28.849  60.338 -25.794  0.00  0.00    +0.000 A 
ATOM     10  C   UNL     1     -26.782  61.472 -26.425  0.00  0.00    +0.000 A 
ATOM     11  C   UNL     1     -27.596  60.326 -26.412  0.00  0.00    +0.000 A 
ENDROOT
BRANCH   3  12
ATOM     12  C   UNL     1     -31.324  63.872 -23.428  0.00  0.00    +0.000 C 
ATOM     13  C   UNL     1     -32.561  64.268 -23.983  0.00  0.00    +0.000 C 
ATOM     14  C   UNL     1     -33.517  65.154 -23.247  0.00  0.00    +0.000 C 
ATOM     15  C   UNL     1     -33.262  65.614 -21.914  0.00  0.00    +0.000 C 
ATOM     16  O   UNL     1     -34.076  66.273 -21.287  0.00  0.00    +0.000 OA
ATOM     17  N   UNL     1     -32.037  65.178 -21.415  0.00  0.00    +0.000 N 
ATOM     18  C   UNL     1     -31.151  64.236 -21.957  0.00  0.00    +0.000 C 
ATOM     19  H   UNL     1     -31.893  65.372 -20.435  0.00  0.00    +0.000 HD
ATOM     20  O   UNL     1     -30.363  63.644 -21.225  0.00  0.00    +0.000 OA
ENDBRANCH   3  12
TORSDOF 1
ENDMDL
