MODEL 1
REMARK VINA RESULT:      -6.8      0.000      0.000
REMARK  Name = Thapsigargin.pdbqt.pdb
REMARK  10 active torsions:
REMARK  status: ('A' for Active; 'I' for Inactive)
REMARK    1  A    between atoms: O_2  and  C_24
REMARK    2  A    between atoms: C_17  and  O_43
REMARK    3  A    between atoms: C_19  and  C_24
REMARK    4  A    between atoms: C_19  and  O_47
REMARK    5  A    between atoms: C_27  and  C_35
REMARK    6  A    between atoms: C_35  and  C_36
REMARK    7  A    between atoms: C_37  and  C_38
REMARK    8  A    between atoms: C_39  and  C_40
REMARK    9  A    between atoms: C_42  and  O_43
REMARK   10  A    between atoms: C_42  and  C_44
REMARK                            x       y       z     vdW  Elec       q    Type
REMARK                         _______ _______ _______ _____ _____    ______ ____
ROOT
ATOM      1  O   UNL     1     -34.854  45.936 -21.108  0.00  0.00    +0.000 OA
ATOM      2  O   UNL     1     -34.116  47.430 -15.284  0.00  0.00    +0.000 OA
ATOM      3  O   UNL     1     -36.653  47.189 -15.504  0.00  0.00    +0.000 OA
ATOM      4  O   UNL     1     -35.614  50.221 -18.180  0.00  0.00    +0.000 OA
ATOM      5  O   UNL     1     -34.912  44.392 -22.793  0.00  0.00    +0.000 OA
ATOM      6  O   UNL     1     -36.018  45.891 -15.219  0.00  0.00    +0.000 OA
ATOM      7  O   UNL     1     -37.552  49.090 -14.249  0.00  0.00    +0.000 OA
ATOM      8  O   UNL     1     -37.023  49.508 -20.107  0.00  0.00    +0.000 OA
ATOM      9  C   UNL     1     -33.494  47.424 -17.746  0.00  0.00    +0.000 C 
ATOM     10  C   UNL     1     -33.509  44.769 -19.617  0.00  0.00    +0.000 C 
ATOM     11  C   UNL     1     -34.190  45.999 -19.890  0.00  0.00    +0.000 C 
ATOM     12  C   UNL     1     -32.617  46.468 -17.010  0.00  0.00    +0.000 C 
ATOM     13  C   UNL     1     -34.167  47.102 -19.111  0.00  0.00    +0.000 C 
ATOM     14  C   UNL     1     -32.742  44.721 -18.578  0.00  0.00    +0.000 C 
ATOM     15  C   UNL     1     -32.154  45.272 -17.420  0.00  0.00    +0.000 C 
ATOM     16  C   UNL     1     -33.637  48.856 -17.609  0.00  0.00    +0.000 C 
ATOM     17  C   UNL     1     -33.754  43.817 -20.716  0.00  0.00    +0.000 C 
ATOM     18  C   UNL     1     -34.611  49.308 -18.521  0.00  0.00    +0.000 C 
ATOM     19  C   UNL     1     -34.820  48.367 -19.467  0.00  0.00    +0.000 C 
ATOM     20  C   UNL     1     -33.989  46.718 -16.530  0.00  0.00    +0.000 C 
ATOM     21  C   UNL     1     -34.569  44.707 -21.657  0.00  0.00    +0.000 C 
ATOM     22  C   UNL     1     -36.001  48.662 -20.160  0.00  0.00    +0.000 C 
ATOM     23  C   UNL     1     -34.578  46.072 -15.304  0.00  0.00    +0.000 C 
ATOM     24  C   UNL     1     -37.068  47.789 -14.310  0.00  0.00    +0.000 C 
ATOM     25  C   UNL     1     -36.913  50.030 -18.783  0.00  0.00    +0.000 C 
ATOM     26  C   UNL     1     -33.781  45.153 -14.370  0.00  0.00    +0.000 C 
ATOM     27  C   UNL     1     -38.013  50.098 -18.005  0.00  0.00    +0.000 C 
ATOM     28  C   UNL     1     -39.398  49.865 -18.564  0.00  0.00    +0.000 C 
ATOM     29  C   UNL     1     -37.893  49.993 -16.590  0.00  0.00    +0.000 C 
ATOM     30  C   UNL     1     -37.740  49.618 -15.458  0.00  0.00    +0.000 C 
ENDROOT
BRANCH  17  31
ATOM     31  O   UNL     1     -32.532  43.380 -21.286  0.00  0.00    +0.000 OA
ATOM     32  H   UNL     1     -31.862  43.490 -20.585  0.00  0.00    +0.000 HD
ENDBRANCH  17  31
BRANCH  17  33
ATOM     33  C   UNL     1     -34.524  42.654 -20.237  0.00  0.00    +0.000 C 
BRANCH  33  34
ATOM     34  O   UNL     1     -35.215  41.593 -19.827  0.00  0.00    +0.000 OA
ATOM     35  H   UNL     1     -34.941  40.788 -20.306  0.00  0.00    +0.000 HD
ENDBRANCH  33  34
ENDBRANCH  17  33
BRANCH  24  36
ATOM     36  C   UNL     1     -36.850  47.228 -13.158  0.00  0.00    +0.000 C 
BRANCH  36  37
ATOM     37  C   UNL     1     -36.550  46.595 -11.796  0.00  0.00    +0.000 C 
ATOM     38  C   UNL     1     -36.288  46.123 -10.724  0.00  0.00    +0.000 C 
BRANCH  38  39
ATOM     39  C   UNL     1     -35.936  45.540  -9.351  0.00  0.00    +0.000 C 
ATOM     40  C   UNL     1     -35.658  45.097  -8.271  0.00  0.00    +0.000 C 
BRANCH  40  41
ATOM     41  C   UNL     1     -35.306  44.540  -6.888  0.00  0.00    +0.000 C 
ATOM     42  C   UNL     1     -35.001  44.053  -5.686  0.00  0.00    +0.000 C 
ENDBRANCH  40  41
ENDBRANCH  38  39
ENDBRANCH  36  37
ENDBRANCH  24  36
BRANCH  15  43
ATOM     43  O   UNL     1     -30.964  44.750 -16.900  0.00  0.00    +0.000 OA
BRANCH  43  45
ATOM     44  O   UNL     1     -29.713  45.097 -18.834  0.00  0.00    +0.000 OA
ATOM     45  C   UNL     1     -30.026  44.445 -17.848  0.00  0.00    +0.000 C 
BRANCH  45  46
ATOM     46  C   UNL     1     -29.391  43.191 -17.577  0.00  0.00    +0.000 C 
ATOM     47  C   UNL     1     -28.859  42.144 -17.344  0.00  0.00    +0.000 C 
ATOM     48  C   UNL     1     -28.175  40.805 -17.062  0.00  0.00    +0.000 C 
ENDBRANCH  45  46
ENDBRANCH  43  45
ENDBRANCH  15  43
TORSDOF 10
ENDMDL
MODEL 2
REMARK VINA RESULT:      -6.6      1.697      2.026
REMARK  Name = Thapsigargin.pdbqt.pdb
REMARK  10 active torsions:
REMARK  status: ('A' for Active; 'I' for Inactive)
REMARK    1  A    between atoms: O_2  and  C_24
REMARK    2  A    between atoms: C_17  and  O_43
REMARK    3  A    between atoms: C_19  and  C_24
REMARK    4  A    between atoms: C_19  and  O_47
REMARK    5  A    between atoms: C_27  and  C_35
REMARK    6  A    between atoms: C_35  and  C_36
REMARK    7  A    between atoms: C_37  and  C_38
REMARK    8  A    between atoms: C_39  and  C_40
REMARK    9  A    between atoms: C_42  and  O_43
REMARK   10  A    between atoms: C_42  and  C_44
REMARK                            x       y       z     vdW  Elec       q    Type
REMARK                         _______ _______ _______ _____ _____    ______ ____
ROOT
ATOM      1  O   UNL     1     -34.564  46.360 -20.984  0.00  0.00    +0.000 OA
ATOM      2  O   UNL     1     -35.003  48.301 -15.262  0.00  0.00    +0.000 OA
ATOM      3  O   UNL     1     -37.446  48.055 -15.981  0.00  0.00    +0.000 OA
ATOM      4  O   UNL     1     -35.819  50.864 -18.608  0.00  0.00    +0.000 OA
ATOM      5  O   UNL     1     -34.306  44.689 -22.522  0.00  0.00    +0.000 OA
ATOM      6  O   UNL     1     -36.909  46.780 -15.474  0.00  0.00    +0.000 OA
ATOM      7  O   UNL     1     -38.543  50.052 -15.085  0.00  0.00    +0.000 OA
ATOM      8  O   UNL     1     -36.818  50.009 -20.723  0.00  0.00    +0.000 OA
ATOM      9  C   UNL     1     -33.890  48.100 -17.536  0.00  0.00    +0.000 C 
ATOM     10  C   UNL     1     -33.576  45.307 -19.164  0.00  0.00    +0.000 C 
ATOM     11  C   UNL     1     -34.161  46.515 -19.664  0.00  0.00    +0.000 C 
ATOM     12  C   UNL     1     -33.202  47.201 -16.566  0.00  0.00    +0.000 C 
ATOM     13  C   UNL     1     -34.276  47.675 -18.982  0.00  0.00    +0.000 C 
ATOM     14  C   UNL     1     -33.039  45.337 -17.989  0.00  0.00    +0.000 C 
ATOM     15  C   UNL     1     -32.689  45.975 -16.780  0.00  0.00    +0.000 C 
ATOM     16  C   UNL     1     -34.029  49.539 -17.540  0.00  0.00    +0.000 C 
ATOM     17  C   UNL     1     -33.610  44.273 -20.214  0.00  0.00    +0.000 C 
ATOM     18  C   UNL     1     -34.786  49.923 -18.665  0.00  0.00    +0.000 C 
ATOM     19  C   UNL     1     -34.817  48.911 -19.559  0.00  0.00    +0.000 C 
ATOM     20  C   UNL     1     -34.638  47.494 -16.398  0.00  0.00    +0.000 C 
ATOM     21  C   UNL     1     -34.197  45.090 -21.368  0.00  0.00    +0.000 C 
ATOM     22  C   UNL     1     -35.824  49.157 -20.501  0.00  0.00    +0.000 C 
ATOM     23  C   UNL     1     -35.479  46.948 -15.274  0.00  0.00    +0.000 C 
ATOM     24  C   UNL     1     -38.084  48.748 -14.947  0.00  0.00    +0.000 C 
ATOM     25  C   UNL     1     -36.971  50.632 -19.449  0.00  0.00    +0.000 C 
ATOM     26  C   UNL     1     -34.908  46.101 -14.129  0.00  0.00    +0.000 C 
ATOM     27  C   UNL     1     -38.205  50.765 -18.920  0.00  0.00    +0.000 C 
ATOM     28  C   UNL     1     -39.451  50.495 -19.733  0.00  0.00    +0.000 C 
ATOM     29  C   UNL     1     -38.380  50.770 -17.507  0.00  0.00    +0.000 C 
ATOM     30  C   UNL     1     -38.469  50.485 -16.343  0.00  0.00    +0.000 C 
ENDROOT
BRANCH  17  31
ATOM     31  O   UNL     1     -32.307  43.788 -20.486  0.00  0.00    +0.000 OA
ATOM     32  H   UNL     1     -31.963  44.349 -21.206  0.00  0.00    +0.000 HD
ENDBRANCH  17  31
BRANCH  17  33
ATOM     33  C   UNL     1     -34.485  43.155 -19.818  0.00  0.00    +0.000 C 
BRANCH  33  34
ATOM     34  O   UNL     1     -35.295  42.158 -19.467  0.00  0.00    +0.000 OA
ATOM     35  H   UNL     1     -35.075  41.823 -18.577  0.00  0.00    +0.000 HD
ENDBRANCH  33  34
ENDBRANCH  17  33
BRANCH  24  36
ATOM     36  C   UNL     1     -38.118  48.278 -13.736  0.00  0.00    +0.000 C 
BRANCH  36  37
ATOM     37  C   UNL     1     -38.111  47.743 -12.300  0.00  0.00    +0.000 C 
ATOM     38  C   UNL     1     -38.101  47.358 -11.163  0.00  0.00    +0.000 C 
BRANCH  38  39
ATOM     39  C   UNL     1     -38.087  46.893  -9.703  0.00  0.00    +0.000 C 
ATOM     40  C   UNL     1     -38.071  46.515  -8.564  0.00  0.00    +0.000 C 
BRANCH  40  41
ATOM     41  C   UNL     1     -38.046  46.027  -7.113  0.00  0.00    +0.000 C 
ATOM     42  C   UNL     1     -38.022  45.602  -5.850  0.00  0.00    +0.000 C 
ENDBRANCH  40  41
ENDBRANCH  38  39
ENDBRANCH  36  37
ENDBRANCH  24  36
BRANCH  15  43
ATOM     43  O   UNL     1     -31.642  45.490 -15.988  0.00  0.00    +0.000 OA
BRANCH  43  45
ATOM     44  O   UNL     1     -30.723  43.488 -16.746  0.00  0.00    +0.000 OA
ATOM     45  C   UNL     1     -31.486  44.132 -16.039  0.00  0.00    +0.000 C 
BRANCH  45  46
ATOM     46  C   UNL     1     -32.365  43.464 -15.128  0.00  0.00    +0.000 C 
ATOM     47  C   UNL     1     -33.098  42.909 -14.362  0.00  0.00    +0.000 C 
ATOM     48  C   UNL     1     -34.037  42.188 -13.392  0.00  0.00    +0.000 C 
ENDBRANCH  45  46
ENDBRANCH  43  45
ENDBRANCH  15  43
TORSDOF 10
ENDMDL
MODEL 3
REMARK VINA RESULT:      -6.5     16.760     21.114
REMARK  Name = Thapsigargin.pdbqt.pdb
REMARK  10 active torsions:
REMARK  status: ('A' for Active; 'I' for Inactive)
REMARK    1  A    between atoms: O_2  and  C_24
REMARK    2  A    between atoms: C_17  and  O_43
REMARK    3  A    between atoms: C_19  and  C_24
REMARK    4  A    between atoms: C_19  and  O_47
REMARK    5  A    between atoms: C_27  and  C_35
REMARK    6  A    between atoms: C_35  and  C_36
REMARK    7  A    between atoms: C_37  and  C_38
REMARK    8  A    between atoms: C_39  and  C_40
REMARK    9  A    between atoms: C_42  and  O_43
REMARK   10  A    between atoms: C_42  and  C_44
REMARK                            x       y       z     vdW  Elec       q    Type
REMARK                         _______ _______ _______ _____ _____    ______ ____
ROOT
ATOM      1  O   UNL     1     -37.969  61.852  -2.838  0.00  0.00    +0.000 OA
ATOM      2  O   UNL     1     -34.624  61.514  -7.878  0.00  0.00    +0.000 OA
ATOM      3  O   UNL     1     -36.862  62.419  -8.725  0.00  0.00    +0.000 OA
ATOM      4  O   UNL     1     -37.763  58.710  -7.033  0.00  0.00    +0.000 OA
ATOM      5  O   UNL     1     -38.641  62.942  -0.945  0.00  0.00    +0.000 OA
ATOM      6  O   UNL     1     -35.989  63.510  -8.257  0.00  0.00    +0.000 OA
ATOM      7  O   UNL     1     -37.270  61.178 -10.796  0.00  0.00    +0.000 OA
ATOM      8  O   UNL     1     -39.829  59.361  -5.804  0.00  0.00    +0.000 OA
ATOM      9  C   UNL     1     -35.333  60.805  -5.544  0.00  0.00    +0.000 C 
ATOM     10  C   UNL     1     -35.903  62.879  -3.110  0.00  0.00    +0.000 C 
ATOM     11  C   UNL     1     -36.798  61.868  -3.586  0.00  0.00    +0.000 C 
ATOM     12  C   UNL     1     -34.077  61.605  -5.460  0.00  0.00    +0.000 C 
ATOM     13  C   UNL     1     -36.547  61.001  -4.592  0.00  0.00    +0.000 C 
ATOM     14  C   UNL     1     -34.719  62.929  -3.627  0.00  0.00    +0.000 C 
ATOM     15  C   UNL     1     -33.715  62.498  -4.520  0.00  0.00    +0.000 C 
ATOM     16  C   UNL     1     -35.593  59.540  -6.194  0.00  0.00    +0.000 C 
ATOM     17  C   UNL     1     -36.527  63.598  -1.985  0.00  0.00    +0.000 C 
ATOM     18  C   UNL     1     -36.948  59.200  -6.007  0.00  0.00    +0.000 C 
ATOM     19  C   UNL     1     -37.465  59.932  -4.998  0.00  0.00    +0.000 C 
ATOM     20  C   UNL     1     -35.040  61.870  -6.545  0.00  0.00    +0.000 C 
ATOM     21  C   UNL     1     -37.824  62.797  -1.849  0.00  0.00    +0.000 C 
ATOM     22  C   UNL     1     -38.863  59.845  -5.032  0.00  0.00    +0.000 C 
ATOM     23  C   UNL     1     -34.831  62.909  -7.616  0.00  0.00    +0.000 C 
ATOM     24  C   UNL     1     -36.701  62.239 -10.104  0.00  0.00    +0.000 C 
ATOM     25  C   UNL     1     -39.145  59.130  -7.035  0.00  0.00    +0.000 C 
ATOM     26  C   UNL     1     -33.548  63.741  -7.744  0.00  0.00    +0.000 C 
ATOM     27  C   UNL     1     -39.700  59.553  -8.190  0.00  0.00    +0.000 C 
ATOM     28  C   UNL     1     -41.128  60.047  -8.252  0.00  0.00    +0.000 C 
ATOM     29  C   UNL     1     -38.870  59.924  -9.286  0.00  0.00    +0.000 C 
ATOM     30  C   UNL     1     -38.115  60.476 -10.042  0.00  0.00    +0.000 C 
ENDROOT
BRANCH  17  31
ATOM     31  O   UNL     1     -35.710  63.530  -0.829  0.00  0.00    +0.000 OA
ATOM     32  H   UNL     1     -35.524  64.457  -0.585  0.00  0.00    +0.000 HD
ENDBRANCH  17  31
BRANCH  17  33
ATOM     33  C   UNL     1     -36.773  65.008  -2.338  0.00  0.00    +0.000 C 
BRANCH  33  34
ATOM     34  O   UNL     1     -36.979  66.288  -2.642  0.00  0.00    +0.000 OA
ATOM     35  H   UNL     1     -37.906  66.543  -2.480  0.00  0.00    +0.000 HD
ENDBRANCH  33  34
ENDBRANCH  17  33
BRANCH  24  36
ATOM     36  C   UNL     1     -35.854  62.950 -10.786  0.00  0.00    +0.000 C 
BRANCH  36  37
ATOM     37  C   UNL     1     -34.818  63.759 -11.574  0.00  0.00    +0.000 C 
ATOM     38  C   UNL     1     -33.983  64.389 -12.163  0.00  0.00    +0.000 C 
BRANCH  38  39
ATOM     39  C   UNL     1     -32.901  65.190 -12.893  0.00  0.00    +0.000 C 
ATOM     40  C   UNL     1     -32.044  65.806 -13.466  0.00  0.00    +0.000 C 
BRANCH  40  41
ATOM     41  C   UNL     1     -30.948  66.584 -14.200  0.00  0.00    +0.000 C 
ATOM     42  C   UNL     1     -29.996  67.263 -14.839  0.00  0.00    +0.000 C 
ENDBRANCH  40  41
ENDBRANCH  38  39
ENDBRANCH  36  37
ENDBRANCH  24  36
BRANCH  15  43
ATOM     43  O   UNL     1     -32.364  62.756  -4.262  0.00  0.00    +0.000 OA
BRANCH  43  45
ATOM     44  O   UNL     1     -32.317  64.511  -2.730  0.00  0.00    +0.000 OA
ATOM     45  C   UNL     1     -32.111  64.031  -3.836  0.00  0.00    +0.000 C 
BRANCH  45  46
ATOM     46  C   UNL     1     -31.543  64.832  -4.877  0.00  0.00    +0.000 C 
ATOM     47  C   UNL     1     -31.073  65.505  -5.749  0.00  0.00    +0.000 C 
ATOM     48  C   UNL     1     -30.460  66.356  -6.863  0.00  0.00    +0.000 C 
ENDBRANCH  45  46
ENDBRANCH  43  45
ENDBRANCH  15  43
TORSDOF 10
ENDMDL
MODEL 4
REMARK VINA RESULT:      -6.4      2.204      2.850
REMARK  Name = Thapsigargin.pdbqt.pdb
REMARK  10 active torsions:
REMARK  status: ('A' for Active; 'I' for Inactive)
REMARK    1  A    between atoms: O_2  and  C_24
REMARK    2  A    between atoms: C_17  and  O_43
REMARK    3  A    between atoms: C_19  and  C_24
REMARK    4  A    between atoms: C_19  and  O_47
REMARK    5  A    between atoms: C_27  and  C_35
REMARK    6  A    between atoms: C_35  and  C_36
REMARK    7  A    between atoms: C_37  and  C_38
REMARK    8  A    between atoms: C_39  and  C_40
REMARK    9  A    between atoms: C_42  and  O_43
REMARK   10  A    between atoms: C_42  and  C_44
REMARK                            x       y       z     vdW  Elec       q    Type
REMARK                         _______ _______ _______ _____ _____    ______ ____
ROOT
ATOM      1  O   UNL     1     -36.388  44.854 -18.635  0.00  0.00    +0.000 OA
ATOM      2  O   UNL     1     -34.428  46.927 -13.291  0.00  0.00    +0.000 OA
ATOM      3  O   UNL     1     -36.720  45.941 -12.726  0.00  0.00    +0.000 OA
ATOM      4  O   UNL     1     -37.488  48.937 -15.531  0.00  0.00    +0.000 OA
ATOM      5  O   UNL     1     -36.479  43.239 -20.250  0.00  0.00    +0.000 OA
ATOM      6  O   UNL     1     -35.669  44.909 -12.675  0.00  0.00    +0.000 OA
ATOM      7  O   UNL     1     -37.729  47.586 -11.218  0.00  0.00    +0.000 OA
ATOM      8  O   UNL     1     -39.126  47.703 -16.945  0.00  0.00    +0.000 OA
ATOM      9  C   UNL     1     -34.598  46.920 -15.825  0.00  0.00    +0.000 C 
ATOM     10  C   UNL     1     -34.373  44.244 -17.653  0.00  0.00    +0.000 C 
ATOM     11  C   UNL     1     -35.441  45.198 -17.679  0.00  0.00    +0.000 C 
ATOM     12  C   UNL     1     -33.297  46.319 -15.413  0.00  0.00    +0.000 C 
ATOM     13  C   UNL     1     -35.519  46.315 -16.923  0.00  0.00    +0.000 C 
ATOM     14  C   UNL     1     -33.353  44.499 -16.901  0.00  0.00    +0.000 C 
ATOM     15  C   UNL     1     -32.640  45.283 -15.969  0.00  0.00    +0.000 C 
ATOM     16  C   UNL     1     -35.116  48.254 -15.622  0.00  0.00    +0.000 C 
ATOM     17  C   UNL     1     -34.638  43.183 -18.641  0.00  0.00    +0.000 C 
ATOM     18  C   UNL     1     -36.407  48.333 -16.182  0.00  0.00    +0.000 C 
ATOM     19  C   UNL     1     -36.596  47.304 -17.036  0.00  0.00    +0.000 C 
ATOM     20  C   UNL     1     -34.471  46.193 -14.530  0.00  0.00    +0.000 C 
ATOM     21  C   UNL     1     -35.925  43.724 -19.269  0.00  0.00    +0.000 C 
ATOM     22  C   UNL     1     -37.962  47.190 -17.327  0.00  0.00    +0.000 C 
ATOM     23  C   UNL     1     -34.445  45.496 -13.195  0.00  0.00    +0.000 C 
ATOM     24  C   UNL     1     -36.919  46.481 -11.450  0.00  0.00    +0.000 C 
ATOM     25  C   UNL     1     -38.787  48.331 -15.710  0.00  0.00    +0.000 C 
ATOM     26  C   UNL     1     -33.167  44.921 -12.569  0.00  0.00    +0.000 C 
ATOM     27  C   UNL     1     -39.571  48.133 -14.630  0.00  0.00    +0.000 C 
ATOM     28  C   UNL     1     -40.923  47.465 -14.740  0.00  0.00    +0.000 C 
ATOM     29  C   UNL     1     -39.009  48.173 -13.322  0.00  0.00    +0.000 C 
ATOM     30  C   UNL     1     -38.419  47.944 -12.300  0.00  0.00    +0.000 C 
ENDROOT
BRANCH  17  31
ATOM     31  O   UNL     1     -33.570  43.080 -19.568  0.00  0.00    +0.000 OA
ATOM     32  H   UNL     1     -33.059  42.296 -19.293  0.00  0.00    +0.000 HD
ENDBRANCH  17  31
BRANCH  17  33
ATOM     33  C   UNL     1     -34.843  41.885 -17.973  0.00  0.00    +0.000 C 
BRANCH  33  34
ATOM     34  O   UNL     1     -35.040  40.705 -17.389  0.00  0.00    +0.000 OA
ATOM     35  H   UNL     1     -35.991  40.534 -17.253  0.00  0.00    +0.000 HD
ENDBRANCH  33  34
ENDBRANCH  17  33
BRANCH  24  36
ATOM     36  C   UNL     1     -36.208  46.096 -10.433  0.00  0.00    +0.000 C 
BRANCH  36  37
ATOM     37  C   UNL     1     -35.413  45.646  -9.203  0.00  0.00    +0.000 C 
ATOM     38  C   UNL     1     -34.820  45.288  -8.222  0.00  0.00    +0.000 C 
BRANCH  38  39
ATOM     39  C   UNL     1     -34.089  44.827  -6.958  0.00  0.00    +0.000 C 
ATOM     40  C   UNL     1     -33.508  44.455  -5.975  0.00  0.00    +0.000 C 
BRANCH  40  41
ATOM     41  C   UNL     1     -32.761  43.977  -4.726  0.00  0.00    +0.000 C 
ATOM     42  C   UNL     1     -32.110  43.560  -3.641  0.00  0.00    +0.000 C 
ENDBRANCH  40  41
ENDBRANCH  38  39
ENDBRANCH  36  37
ENDBRANCH  24  36
BRANCH  15  43
ATOM     43  O   UNL     1     -31.250  45.170 -15.850  0.00  0.00    +0.000 OA
BRANCH  43  45
ATOM     44  O   UNL     1     -30.610  45.047 -18.086  0.00  0.00    +0.000 OA
ATOM     45  C   UNL     1     -30.639  44.617 -16.941  0.00  0.00    +0.000 C 
BRANCH  45  46
ATOM     46  C   UNL     1     -29.986  43.387 -16.614  0.00  0.00    +0.000 C 
ATOM     47  C   UNL     1     -29.435  42.359 -16.345  0.00  0.00    +0.000 C 
ATOM     48  C   UNL     1     -28.744  41.039 -15.992  0.00  0.00    +0.000 C 
ENDBRANCH  45  46
ENDBRANCH  43  45
ENDBRANCH  15  43
TORSDOF 10
ENDMDL
MODEL 5
REMARK VINA RESULT:      -6.3     17.440     20.871
REMARK  Name = Thapsigargin.pdbqt.pdb
REMARK  10 active torsions:
REMARK  status: ('A' for Active; 'I' for Inactive)
REMARK    1  A    between atoms: O_2  and  C_24
REMARK    2  A    between atoms: C_17  and  O_43
REMARK    3  A    between atoms: C_19  and  C_24
REMARK    4  A    between atoms: C_19  and  O_47
REMARK    5  A    between atoms: C_27  and  C_35
REMARK    6  A    between atoms: C_35  and  C_36
REMARK    7  A    between atoms: C_37  and  C_38
REMARK    8  A    between atoms: C_39  and  C_40
REMARK    9  A    between atoms: C_42  and  O_43
REMARK   10  A    between atoms: C_42  and  C_44
REMARK                            x       y       z     vdW  Elec       q    Type
REMARK                         _______ _______ _______ _____ _____    ______ ____
ROOT
ATOM      1  O   UNL     1     -25.900  64.850 -28.571  0.00  0.00    +0.000 OA
ATOM      2  O   UNL     1     -29.395  60.067 -27.303  0.00  0.00    +0.000 OA
ATOM      3  O   UNL     1     -30.874  62.053 -26.661  0.00  0.00    +0.000 OA
ATOM      4  O   UNL     1     -27.497  62.382 -24.227  0.00  0.00    +0.000 OA
ATOM      5  O   UNL     1     -25.065  66.394 -30.036  0.00  0.00    +0.000 OA
ATOM      6  O   UNL     1     -31.007  61.731 -28.093  0.00  0.00    +0.000 OA
ATOM      7  O   UNL     1     -31.900  61.381 -24.542  0.00  0.00    +0.000 OA
ATOM      8  O   UNL     1     -27.122  64.834 -24.451  0.00  0.00    +0.000 OA
ATOM      9  C   UNL     1     -27.181  61.282 -27.574  0.00  0.00    +0.000 C 
ATOM     10  C   UNL     1     -26.453  63.190 -30.099  0.00  0.00    +0.000 C 
ATOM     11  C   UNL     1     -26.374  63.553 -28.716  0.00  0.00    +0.000 C 
ATOM     12  C   UNL     1     -27.414  60.405 -28.757  0.00  0.00    +0.000 C 
ATOM     13  C   UNL     1     -26.667  62.747 -27.672  0.00  0.00    +0.000 C 
ATOM     14  C   UNL     1     -26.756  61.967 -30.387  0.00  0.00    +0.000 C 
ATOM     15  C   UNL     1     -27.114  60.645 -30.048  0.00  0.00    +0.000 C 
ATOM     16  C   UNL     1     -27.021  60.943 -26.178  0.00  0.00    +0.000 C 
ATOM     17  C   UNL     1     -26.024  64.329 -30.931  0.00  0.00    +0.000 C 
ATOM     18  C   UNL     1     -26.842  62.128 -25.436  0.00  0.00    +0.000 C 
ATOM     19  C   UNL     1     -26.502  63.137 -26.267  0.00  0.00    +0.000 C 
ATOM     20  C   UNL     1     -28.565  60.985 -28.041  0.00  0.00    +0.000 C 
ATOM     21  C   UNL     1     -25.616  65.316 -29.834  0.00  0.00    +0.000 C 
ATOM     22  C   UNL     1     -26.652  64.358 -25.598  0.00  0.00    +0.000 C 
ATOM     23  C   UNL     1     -30.001  60.733 -28.419  0.00  0.00    +0.000 C 
ATOM     24  C   UNL     1     -31.872  61.398 -25.931  0.00  0.00    +0.000 C 
ATOM     25  C   UNL     1     -27.907  63.743 -23.972  0.00  0.00    +0.000 C 
ATOM     26  C   UNL     1     -30.421  59.771 -29.538  0.00  0.00    +0.000 C 
ATOM     27  C   UNL     1     -29.155  63.977 -23.514  0.00  0.00    +0.000 C 
ATOM     28  C   UNL     1     -29.662  65.380 -23.268  0.00  0.00    +0.000 C 
ATOM     29  C   UNL     1     -30.156  62.970 -23.625  0.00  0.00    +0.000 C 
ATOM     30  C   UNL     1     -30.992  62.194 -24.007  0.00  0.00    +0.000 C 
ENDROOT
BRANCH  17  31
ATOM     31  O   UNL     1     -24.945  63.960 -31.773  0.00  0.00    +0.000 OA
ATOM     32  H   UNL     1     -25.352  63.517 -32.541  0.00  0.00    +0.000 HD
ENDBRANCH  17  31
BRANCH  17  33
ATOM     33  C   UNL     1     -27.144  64.831 -31.748  0.00  0.00    +0.000 C 
BRANCH  33  34
ATOM     34  O   UNL     1     -28.160  65.301 -32.469  0.00  0.00    +0.000 OA
ATOM     35  H   UNL     1     -28.353  66.230 -32.240  0.00  0.00    +0.000 HD
ENDBRANCH  33  34
ENDBRANCH  17  33
BRANCH  24  36
ATOM     36  C   UNL     1     -32.728  60.609 -26.509  0.00  0.00    +0.000 C 
BRANCH  36  37
ATOM     37  C   UNL     1     -33.701  59.666 -27.224  0.00  0.00    +0.000 C 
ATOM     38  C   UNL     1     -34.452  58.901 -27.762  0.00  0.00    +0.000 C 
BRANCH  38  39
ATOM     39  C   UNL     1     -35.404  57.904 -28.432  0.00  0.00    +0.000 C 
ATOM     40  C   UNL     1     -36.158  57.134 -28.962  0.00  0.00    +0.000 C 
BRANCH  40  41
ATOM     41  C   UNL     1     -37.121  56.158 -29.644  0.00  0.00    +0.000 C 
ATOM     42  C   UNL     1     -37.957  55.308 -30.238  0.00  0.00    +0.000 C 
ENDBRANCH  40  41
ENDBRANCH  38  39
ENDBRANCH  36  37
ENDBRANCH  24  36
BRANCH  15  43
ATOM     43  O   UNL     1     -26.885  59.588 -30.936  0.00  0.00    +0.000 OA
BRANCH  43  45
ATOM     44  O   UNL     1     -27.533  60.507 -32.977  0.00  0.00    +0.000 OA
ATOM     45  C   UNL     1     -27.611  59.664 -32.093  0.00  0.00    +0.000 C 
BRANCH  45  46
ATOM     46  C   UNL     1     -28.554  58.593 -32.196  0.00  0.00    +0.000 C 
ATOM     47  C   UNL     1     -29.348  57.702 -32.283  0.00  0.00    +0.000 C 
ATOM     48  C   UNL     1     -30.353  56.552 -32.389  0.00  0.00    +0.000 C 
ENDBRANCH  45  46
ENDBRANCH  43  45
ENDBRANCH  15  43
TORSDOF 10
ENDMDL
MODEL 6
REMARK VINA RESULT:      -6.2     17.965     21.684
REMARK  Name = Thapsigargin.pdbqt.pdb
REMARK  10 active torsions:
REMARK  status: ('A' for Active; 'I' for Inactive)
REMARK    1  A    between atoms: O_2  and  C_24
REMARK    2  A    between atoms: C_17  and  O_43
REMARK    3  A    between atoms: C_19  and  C_24
REMARK    4  A    between atoms: C_19  and  O_47
REMARK    5  A    between atoms: C_27  and  C_35
REMARK    6  A    between atoms: C_35  and  C_36
REMARK    7  A    between atoms: C_37  and  C_38
REMARK    8  A    between atoms: C_39  and  C_40
REMARK    9  A    between atoms: C_42  and  O_43
REMARK   10  A    between atoms: C_42  and  C_44
REMARK                            x       y       z     vdW  Elec       q    Type
REMARK                         _______ _______ _______ _____ _____    ______ ____
ROOT
ATOM      1  O   UNL     1     -26.161  64.375 -21.059  0.00  0.00    +0.000 OA
ATOM      2  O   UNL     1     -32.086  65.582 -21.426  0.00  0.00    +0.000 OA
ATOM      3  O   UNL     1     -31.097  67.782 -20.575  0.00  0.00    +0.000 OA
ATOM      4  O   UNL     1     -30.117  64.954 -17.664  0.00  0.00    +0.000 OA
ATOM      5  O   UNL     1     -24.084  64.209 -22.000  0.00  0.00    +0.000 OA
ATOM      6  O   UNL     1     -31.052  67.712 -22.046  0.00  0.00    +0.000 OA
ATOM      7  O   UNL     1     -32.657  68.512 -18.835  0.00  0.00    +0.000 OA
ATOM      8  O   UNL     1     -27.754  65.636 -17.272  0.00  0.00    +0.000 OA
ATOM      9  C   UNL     1     -30.070  64.075 -21.089  0.00  0.00    +0.000 C 
ATOM     10  C   UNL     1     -27.433  64.118 -22.986  0.00  0.00    +0.000 C 
ATOM     11  C   UNL     1     -27.451  64.253 -21.560  0.00  0.00    +0.000 C 
ATOM     12  C   UNL     1     -30.618  63.871 -22.461  0.00  0.00    +0.000 C 
ATOM     13  C   UNL     1     -28.552  64.221 -20.779  0.00  0.00    +0.000 C 
ATOM     14  C   UNL     1     -28.551  63.868 -23.583  0.00  0.00    +0.000 C 
ATOM     15  C   UNL     1     -29.946  63.649 -23.606  0.00  0.00    +0.000 C 
ATOM     16  C   UNL     1     -30.675  63.842 -19.798  0.00  0.00    +0.000 C 
ATOM     17  C   UNL     1     -26.041  64.176 -23.467  0.00  0.00    +0.000 C 
ATOM     18  C   UNL     1     -29.759  64.206 -18.790  0.00  0.00    +0.000 C 
ATOM     19  C   UNL     1     -28.517  64.289 -19.314  0.00  0.00    +0.000 C 
ATOM     20  C   UNL     1     -30.754  65.186 -21.808  0.00  0.00    +0.000 C 
ATOM     21  C   UNL     1     -25.304  64.264 -22.129  0.00  0.00    +0.000 C 
ATOM     22  C   UNL     1     -27.681  64.964 -18.415  0.00  0.00    +0.000 C 
ATOM     23  C   UNL     1     -31.444  66.368 -22.439  0.00  0.00    +0.000 C 
ATOM     24  C   UNL     1     -32.262  68.440 -20.165  0.00  0.00    +0.000 C 
ATOM     25  C   UNL     1     -29.151  65.908 -17.171  0.00  0.00    +0.000 C 
ATOM     26  C   UNL     1     -32.159  66.301 -23.795  0.00  0.00    +0.000 C 
ATOM     27  C   UNL     1     -29.561  67.155 -16.859  0.00  0.00    +0.000 C 
ATOM     28  C   UNL     1     -28.594  68.214 -16.380  0.00  0.00    +0.000 C 
ATOM     29  C   UNL     1     -30.813  67.635 -17.339  0.00  0.00    +0.000 C 
ATOM     30  C   UNL     1     -31.724  68.052 -18.004  0.00  0.00    +0.000 C 
ENDROOT
BRANCH  17  31
ATOM     31  O   UNL     1     -25.714  63.010 -24.204  0.00  0.00    +0.000 OA
ATOM     32  H   UNL     1     -25.530  62.322 -23.538  0.00  0.00    +0.000 HD
ENDBRANCH  17  31
BRANCH  17  33
ATOM     33  C   UNL     1     -25.827  65.370 -24.305  0.00  0.00    +0.000 C 
BRANCH  33  34
ATOM     34  O   UNL     1     -25.618  66.458 -25.044  0.00  0.00    +0.000 OA
ATOM     35  H   UNL     1     -26.225  67.178 -24.789  0.00  0.00    +0.000 HD
ENDBRANCH  33  34
ENDBRANCH  17  33
BRANCH  24  36
ATOM     36  C   UNL     1     -33.141  68.861 -21.024  0.00  0.00    +0.000 C 
BRANCH  36  37
ATOM     37  C   UNL     1     -34.204  69.316 -22.030  0.00  0.00    +0.000 C 
ATOM     38  C   UNL     1     -35.061  69.650 -22.801  0.00  0.00    +0.000 C 
BRANCH  38  39
ATOM     39  C   UNL     1     -36.173  70.062 -23.771  0.00  0.00    +0.000 C 
ATOM     40  C   UNL     1     -37.036  70.397 -24.535  0.00  0.00    +0.000 C 
BRANCH  40  41
ATOM     41  C   UNL     1     -38.133  70.830 -25.512  0.00  0.00    +0.000 C 
ATOM     42  C   UNL     1     -39.087  71.209 -26.362  0.00  0.00    +0.000 C 
ENDBRANCH  40  41
ENDBRANCH  38  39
ENDBRANCH  36  37
ENDBRANCH  24  36
BRANCH  15  43
ATOM     43  O   UNL     1     -30.547  62.963 -24.667  0.00  0.00    +0.000 OA
BRANCH  43  45
ATOM     44  O   UNL     1     -31.061  60.773 -24.063  0.00  0.00    +0.000 OA
ATOM     45  C   UNL     1     -30.369  61.608 -24.629  0.00  0.00    +0.000 C 
BRANCH  45  46
ATOM     46  C   UNL     1     -29.205  61.207 -25.360  0.00  0.00    +0.000 C 
ATOM     47  C   UNL     1     -28.232  60.867 -25.968  0.00  0.00    +0.000 C 
ATOM     48  C   UNL     1     -26.986  60.446 -26.750  0.00  0.00    +0.000 C 
ENDBRANCH  45  46
ENDBRANCH  43  45
ENDBRANCH  15  43
TORSDOF 10
ENDMDL
MODEL 7
REMARK VINA RESULT:      -6.2      2.617      7.211
REMARK  Name = Thapsigargin.pdbqt.pdb
REMARK  10 active torsions:
REMARK  status: ('A' for Active; 'I' for Inactive)
REMARK    1  A    between atoms: O_2  and  C_24
REMARK    2  A    between atoms: C_17  and  O_43
REMARK    3  A    between atoms: C_19  and  C_24
REMARK    4  A    between atoms: C_19  and  O_47
REMARK    5  A    between atoms: C_27  and  C_35
REMARK    6  A    between atoms: C_35  and  C_36
REMARK    7  A    between atoms: C_37  and  C_38
REMARK    8  A    between atoms: C_39  and  C_40
REMARK    9  A    between atoms: C_42  and  O_43
REMARK   10  A    between atoms: C_42  and  C_44
REMARK                            x       y       z     vdW  Elec       q    Type
REMARK                         _______ _______ _______ _____ _____    ______ ____
ROOT
ATOM      1  O   UNL     1     -38.866  47.459 -17.788  0.00  0.00    +0.000 OA
ATOM      2  O   UNL     1     -32.949  46.522 -16.891  0.00  0.00    +0.000 OA
ATOM      3  O   UNL     1     -34.044  44.630 -15.563  0.00  0.00    +0.000 OA
ATOM      4  O   UNL     1     -35.488  48.145 -13.835  0.00  0.00    +0.000 OA
ATOM      5  O   UNL     1     -40.771  47.220 -19.030  0.00  0.00    +0.000 OA
ATOM      6  O   UNL     1     -33.857  44.251 -16.975  0.00  0.00    +0.000 OA
ATOM      7  O   UNL     1     -32.771  44.543 -13.473  0.00  0.00    +0.000 OA
ATOM      8  O   UNL     1     -37.879  47.485 -13.606  0.00  0.00    +0.000 OA
ATOM      9  C   UNL     1     -35.003  47.948 -17.333  0.00  0.00    +0.000 C 
ATOM     10  C   UNL     1     -37.310  47.192 -19.491  0.00  0.00    +0.000 C 
ATOM     11  C   UNL     1     -37.515  47.494 -18.107  0.00  0.00    +0.000 C 
ATOM     12  C   UNL     1     -34.248  47.759 -18.604  0.00  0.00    +0.000 C 
ATOM     13  C   UNL     1     -36.550  47.819 -17.219  0.00  0.00    +0.000 C 
ATOM     14  C   UNL     1     -36.113  47.311 -19.965  0.00  0.00    +0.000 C 
ATOM     15  C   UNL     1     -34.734  47.588 -19.848  0.00  0.00    +0.000 C 
ATOM     16  C   UNL     1     -34.610  48.592 -16.100  0.00  0.00    +0.000 C 
ATOM     17  C   UNL     1     -38.608  46.916 -20.132  0.00  0.00    +0.000 C 
ATOM     18  C   UNL     1     -35.670  48.498 -15.176  0.00  0.00    +0.000 C 
ATOM     19  C   UNL     1     -36.814  48.194 -15.826  0.00  0.00    +0.000 C 
ATOM     20  C   UNL     1     -34.207  46.711 -17.567  0.00  0.00    +0.000 C 
ATOM     21  C   UNL     1     -39.546  47.195 -18.955  0.00  0.00    +0.000 C 
ATOM     22  C   UNL     1     -37.776  47.776 -14.897  0.00  0.00    +0.000 C 
ATOM     23  C   UNL     1     -33.418  45.434 -17.698  0.00  0.00    +0.000 C 
ATOM     24  C   UNL     1     -32.953  44.190 -14.805  0.00  0.00    +0.000 C 
ATOM     25  C   UNL     1     -36.513  47.333 -13.222  0.00  0.00    +0.000 C 
ATOM     26  C   UNL     1     -32.500  45.128 -18.888  0.00  0.00    +0.000 C 
ATOM     27  C   UNL     1     -36.148  46.262 -12.487  0.00  0.00    +0.000 C 
ATOM     28  C   UNL     1     -37.171  45.345 -11.854  0.00  0.00    +0.000 C 
ATOM     29  C   UNL     1     -34.833  45.729 -12.607  0.00  0.00    +0.000 C 
ATOM     30  C   UNL     1     -33.826  45.181 -12.970  0.00  0.00    +0.000 C 
ENDROOT
BRANCH  17  31
ATOM     31  O   UNL     1     -38.823  47.786 -21.230  0.00  0.00    +0.000 OA
ATOM     32  H   UNL     1     -38.200  47.494 -21.921  0.00  0.00    +0.000 HD
ENDBRANCH  17  31
BRANCH  17  33
ATOM     33  C   UNL     1     -38.680  45.515 -20.586  0.00  0.00    +0.000 C 
BRANCH  33  34
ATOM     34  O   UNL     1     -38.722  44.252 -21.005  0.00  0.00    +0.000 OA
ATOM     35  H   UNL     1     -38.828  44.206 -21.974  0.00  0.00    +0.000 HD
ENDBRANCH  33  34
ENDBRANCH  17  33
BRANCH  24  36
ATOM     36  C   UNL     1     -31.947  43.578 -15.354  0.00  0.00    +0.000 C 
BRANCH  36  37
ATOM     37  C   UNL     1     -30.773  42.815 -15.976  0.00  0.00    +0.000 C 
ATOM     38  C   UNL     1     -29.847  42.202 -16.430  0.00  0.00    +0.000 C 
BRANCH  38  39
ATOM     39  C   UNL     1     -28.660  41.407 -16.986  0.00  0.00    +0.000 C 
ATOM     40  C   UNL     1     -27.722  40.793 -17.413  0.00  0.00    +0.000 C 
BRANCH  40  41
ATOM     41  C   UNL     1     -26.519  40.011 -17.951  0.00  0.00    +0.000 C 
ATOM     42  C   UNL     1     -25.472  39.332 -18.416  0.00  0.00    +0.000 C 
ENDBRANCH  40  41
ENDBRANCH  38  39
ENDBRANCH  36  37
ENDBRANCH  24  36
BRANCH  15  43
ATOM     43  O   UNL     1     -33.978  47.955 -20.967  0.00  0.00    +0.000 OA
BRANCH  43  45
ATOM     44  O   UNL     1     -34.631  50.190 -21.018  0.00  0.00    +0.000 OA
ATOM     45  C   UNL     1     -34.382  49.121 -21.557  0.00  0.00    +0.000 C 
BRANCH  45  46
ATOM     46  C   UNL     1     -34.507  48.980 -22.976  0.00  0.00    +0.000 C 
ATOM     47  C   UNL     1     -34.609  48.856 -24.162  0.00  0.00    +0.000 C 
ATOM     48  C   UNL     1     -34.742  48.712 -25.680  0.00  0.00    +0.000 C 
ENDBRANCH  45  46
ENDBRANCH  43  45
ENDBRANCH  15  43
TORSDOF 10
ENDMDL
MODEL 8
REMARK VINA RESULT:      -6.1     18.028     21.818
REMARK  Name = Thapsigargin.pdbqt.pdb
REMARK  10 active torsions:
REMARK  status: ('A' for Active; 'I' for Inactive)
REMARK    1  A    between atoms: O_2  and  C_24
REMARK    2  A    between atoms: C_17  and  O_43
REMARK    3  A    between atoms: C_19  and  C_24
REMARK    4  A    between atoms: C_19  and  O_47
REMARK    5  A    between atoms: C_27  and  C_35
REMARK    6  A    between atoms: C_35  and  C_36
REMARK    7  A    between atoms: C_37  and  C_38
REMARK    8  A    between atoms: C_39  and  C_40
REMARK    9  A    between atoms: C_42  and  O_43
REMARK   10  A    between atoms: C_42  and  C_44
REMARK                            x       y       z     vdW  Elec       q    Type
REMARK                         _______ _______ _______ _____ _____    ______ ____
ROOT
ATOM      1  O   UNL     1     -32.650  63.215 -23.740  0.00  0.00    +0.000 OA
ATOM      2  O   UNL     1     -27.175  62.191 -26.124  0.00  0.00    +0.000 OA
ATOM      3  O   UNL     1     -28.393  63.451 -27.987  0.00  0.00    +0.000 OA
ATOM      4  O   UNL     1     -30.648  59.993 -27.362  0.00  0.00    +0.000 OA
ATOM      5  O   UNL     1     -34.078  64.448 -22.450  0.00  0.00    +0.000 OA
ATOM      6  O   UNL     1     -27.769  64.384 -27.034  0.00  0.00    +0.000 OA
ATOM      7  O   UNL     1     -27.774  62.252 -30.031  0.00  0.00    +0.000 OA
ATOM      8  O   UNL     1     -32.916  61.018 -27.424  0.00  0.00    +0.000 OA
ATOM      9  C   UNL     1     -29.158  61.667 -24.626  0.00  0.00    +0.000 C 
ATOM     10  C   UNL     1     -30.649  63.863 -22.753  0.00  0.00    +0.000 C 
ATOM     11  C   UNL     1     -31.276  63.011 -23.719  0.00  0.00    +0.000 C 
ATOM     12  C   UNL     1     -28.053  62.239 -23.804  0.00  0.00    +0.000 C 
ATOM     13  C   UNL     1     -30.648  62.092 -24.485  0.00  0.00    +0.000 C 
ATOM     14  C   UNL     1     -29.387  63.696 -22.529  0.00  0.00    +0.000 C 
ATOM     15  C   UNL     1     -28.139  63.077 -22.754  0.00  0.00    +0.000 C 
ATOM     16  C   UNL     1     -29.209  60.453 -25.408  0.00  0.00    +0.000 C 
ATOM     17  C   UNL     1     -31.670  64.704 -22.103  0.00  0.00    +0.000 C 
ATOM     18  C   UNL     1     -30.473  60.356 -26.023  0.00  0.00    +0.000 C 
ATOM     19  C   UNL     1     -31.341  61.189 -25.410  0.00  0.00    +0.000 C 
ATOM     20  C   UNL     1     -28.198  62.643 -25.216  0.00  0.00    +0.000 C 
ATOM     21  C   UNL     1     -32.932  64.143 -22.764  0.00  0.00    +0.000 C 
ATOM     22  C   UNL     1     -32.478  61.344 -26.214  0.00  0.00    +0.000 C 
ATOM     23  C   UNL     1     -27.272  63.606 -25.911  0.00  0.00    +0.000 C 
ATOM     24  C   UNL     1     -27.526  63.215 -29.060  0.00  0.00    +0.000 C 
ATOM     25  C   UNL     1     -31.711  60.645 -28.090  0.00  0.00    +0.000 C 
ATOM     26  C   UNL     1     -26.022  64.200 -25.248  0.00  0.00    +0.000 C 
ATOM     27  C   UNL     1     -31.458  61.131 -29.323  0.00  0.00    +0.000 C 
ATOM     28  C   UNL     1     -32.514  61.864 -30.121  0.00  0.00    +0.000 C 
ATOM     29  C   UNL     1     -30.115  61.329 -29.751  0.00  0.00    +0.000 C 
ATOM     30  C   UNL     1     -28.992  61.725 -29.922  0.00  0.00    +0.000 C 
ENDROOT
BRANCH  17  31
ATOM     31  O   UNL     1     -31.654  64.522 -20.698  0.00  0.00    +0.000 OA
ATOM     32  H   UNL     1     -31.759  65.414 -20.317  0.00  0.00    +0.000 HD
ENDBRANCH  17  31
BRANCH  17  33
ATOM     33  C   UNL     1     -31.456  66.127 -22.423  0.00  0.00    +0.000 C 
BRANCH  33  34
ATOM     34  O   UNL     1     -31.239  67.411 -22.703  0.00  0.00    +0.000 OA
ATOM     35  H   UNL     1     -31.679  67.668 -23.535  0.00  0.00    +0.000 HD
ENDBRANCH  33  34
ENDBRANCH  17  33
BRANCH  24  36
ATOM     36  C   UNL     1     -26.344  63.753 -29.107  0.00  0.00    +0.000 C 
BRANCH  36  37
ATOM     37  C   UNL     1     -24.960  64.410 -29.119  0.00  0.00    +0.000 C 
ATOM     38  C   UNL     1     -23.869  64.911 -29.096  0.00  0.00    +0.000 C 
BRANCH  38  39
ATOM     39  C   UNL     1     -22.472  65.537 -29.042  0.00  0.00    +0.000 C 
ATOM     40  C   UNL     1     -21.372  66.016 -29.008  0.00  0.00    +0.000 C 
BRANCH  40  41
ATOM     41  C   UNL     1     -19.967  66.623 -28.971  0.00  0.00    +0.000 C 
ATOM     42  C   UNL     1     -18.743  67.150 -28.937  0.00  0.00    +0.000 C 
ENDBRANCH  40  41
ENDBRANCH  38  39
ENDBRANCH  36  37
ENDBRANCH  24  36
BRANCH  15  43
ATOM     43  O   UNL     1     -27.137  63.104 -21.777  0.00  0.00    +0.000 OA
BRANCH  43  45
ATOM     44  O   UNL     1     -26.276  65.244 -22.093  0.00  0.00    +0.000 OA
ATOM     45  C   UNL     1     -26.760  64.362 -21.398  0.00  0.00    +0.000 C 
BRANCH  45  46
ATOM     46  C   UNL     1     -26.989  64.585 -20.003  0.00  0.00    +0.000 C 
ATOM     47  C   UNL     1     -27.186  64.771 -18.837  0.00  0.00    +0.000 C 
ATOM     48  C   UNL     1     -27.423  65.012 -17.344  0.00  0.00    +0.000 C 
ENDBRANCH  45  46
ENDBRANCH  43  45
ENDBRANCH  15  43
TORSDOF 10
ENDMDL
MODEL 9
REMARK VINA RESULT:      -6.1      3.153      7.873
REMARK  Name = Thapsigargin.pdbqt.pdb
REMARK  10 active torsions:
REMARK  status: ('A' for Active; 'I' for Inactive)
REMARK    1  A    between atoms: O_2  and  C_24
REMARK    2  A    between atoms: C_17  and  O_43
REMARK    3  A    between atoms: C_19  and  C_24
REMARK    4  A    between atoms: C_19  and  O_47
REMARK    5  A    between atoms: C_27  and  C_35
REMARK    6  A    between atoms: C_35  and  C_36
REMARK    7  A    between atoms: C_37  and  C_38
REMARK    8  A    between atoms: C_39  and  C_40
REMARK    9  A    between atoms: C_42  and  O_43
REMARK   10  A    between atoms: C_42  and  C_44
REMARK                            x       y       z     vdW  Elec       q    Type
REMARK                         _______ _______ _______ _____ _____    ______ ____
ROOT
ATOM      1  O   UNL     1     -33.167  40.908 -14.771  0.00  0.00    +0.000 OA
ATOM      2  O   UNL     1     -33.872  46.917 -15.085  0.00  0.00    +0.000 OA
ATOM      3  O   UNL     1     -35.222  46.068 -17.086  0.00  0.00    +0.000 OA
ATOM      4  O   UNL     1     -31.314  44.777 -17.788  0.00  0.00    +0.000 OA
ATOM      5  O   UNL     1     -33.757  38.858 -13.948  0.00  0.00    +0.000 OA
ATOM      6  O   UNL     1     -36.035  46.069 -15.857  0.00  0.00    +0.000 OA
ATOM      7  O   UNL     1     -34.658  47.619 -18.895  0.00  0.00    +0.000 OA
ATOM      8  O   UNL     1     -31.823  42.460 -18.546  0.00  0.00    +0.000 OA
ATOM      9  C   UNL     1     -32.626  44.781 -14.503  0.00  0.00    +0.000 C 
ATOM     10  C   UNL     1     -33.992  42.222 -13.042  0.00  0.00    +0.000 C 
ATOM     11  C   UNL     1     -33.259  42.201 -14.273  0.00  0.00    +0.000 C 
ATOM     12  C   UNL     1     -33.225  45.359 -13.266  0.00  0.00    +0.000 C 
ATOM     13  C   UNL     1     -32.684  43.269 -14.866  0.00  0.00    +0.000 C 
ATOM     14  C   UNL     1     -34.051  43.338 -12.393  0.00  0.00    +0.000 C 
ATOM     15  C   UNL     1     -33.775  44.712 -12.222  0.00  0.00    +0.000 C 
ATOM     16  C   UNL     1     -31.629  45.323 -15.399  0.00  0.00    +0.000 C 
ATOM     17  C   UNL     1     -34.435  40.856 -12.710  0.00  0.00    +0.000 C 
ATOM     18  C   UNL     1     -31.404  44.403 -16.443  0.00  0.00    +0.000 C 
ATOM     19  C   UNL     1     -31.880  43.190 -16.090  0.00  0.00    +0.000 C 
ATOM     20  C   UNL     1     -33.887  45.572 -14.566  0.00  0.00    +0.000 C 
ATOM     21  C   UNL     1     -33.778  40.082 -13.856  0.00  0.00    +0.000 C 
ATOM     22  C   UNL     1     -31.962  42.376 -17.228  0.00  0.00    +0.000 C 
ATOM     23  C   UNL     1     -35.153  46.371 -14.741  0.00  0.00    +0.000 C 
ATOM     24  C   UNL     1     -35.415  47.265 -17.785  0.00  0.00    +0.000 C 
ATOM     25  C   UNL     1     -31.869  43.870 -18.764  0.00  0.00    +0.000 C 
ATOM     26  C   UNL     1     -35.839  47.125 -13.594  0.00  0.00    +0.000 C 
ATOM     27  C   UNL     1     -32.655  44.363 -19.744  0.00  0.00    +0.000 C 
ATOM     28  C   UNL     1     -33.304  43.463 -20.772  0.00  0.00    +0.000 C 
ATOM     29  C   UNL     1     -33.222  45.663 -19.618  0.00  0.00    +0.000 C 
ATOM     30  C   UNL     1     -33.874  46.626 -19.311  0.00  0.00    +0.000 C 
ENDROOT
BRANCH  17  31
ATOM     31  O   UNL     1     -33.957  40.467 -11.434  0.00  0.00    +0.000 OA
ATOM     32  H   UNL     1     -33.385  39.693 -11.592  0.00  0.00    +0.000 HD
ENDBRANCH  17  31
BRANCH  17  33
ATOM     33  C   UNL     1     -35.906  40.762 -12.741  0.00  0.00    +0.000 C 
BRANCH  33  34
ATOM     34  O   UNL     1     -37.235  40.690 -12.790  0.00  0.00    +0.000 OA
ATOM     35  H   UNL     1     -37.619  40.674 -11.893  0.00  0.00    +0.000 HD
ENDBRANCH  33  34
ENDBRANCH  17  33
BRANCH  24  36
ATOM     36  C   UNL     1     -36.188  48.202 -17.325  0.00  0.00    +0.000 C 
BRANCH  36  37
ATOM     37  C   UNL     1     -37.123  49.310 -16.827  0.00  0.00    +0.000 C 
ATOM     38  C   UNL     1     -37.869  50.180 -16.471  0.00  0.00    +0.000 C 
BRANCH  38  39
ATOM     39  C   UNL     1     -38.833  51.290 -16.041  0.00  0.00    +0.000 C 
ATOM     40  C   UNL     1     -39.581  52.169 -15.712  0.00  0.00    +0.000 C 
BRANCH  40  41
ATOM     41  C   UNL     1     -40.533  53.296 -15.299  0.00  0.00    +0.000 C 
ATOM     42  C   UNL     1     -41.359  54.276 -14.937  0.00  0.00    +0.000 C 
ENDBRANCH  40  41
ENDBRANCH  38  39
ENDBRANCH  36  37
ENDBRANCH  24  36
BRANCH  15  43
ATOM     43  O   UNL     1     -33.799  45.296 -10.950  0.00  0.00    +0.000 OA
BRANCH  43  45
ATOM     44  O   UNL     1     -34.874  43.802  -9.523  0.00  0.00    +0.000 OA
ATOM     45  C   UNL     1     -34.814  44.851 -10.149  0.00  0.00    +0.000 C 
BRANCH  45  46
ATOM     46  C   UNL     1     -35.899  45.783 -10.103  0.00  0.00    +0.000 C 
ATOM     47  C   UNL     1     -36.805  46.564 -10.071  0.00  0.00    +0.000 C 
ATOM     48  C   UNL     1     -37.962  47.564 -10.014  0.00  0.00    +0.000 C 
ENDBRANCH  45  46
ENDBRANCH  43  45
ENDBRANCH  15  43
TORSDOF 10
ENDMDL
