MODEL 1
REMARK VINA RESULT:      -5.1      0.000      0.000
REMARK  Name = Thioguanosine.pdbqt.pdb
REMARK  5 active torsions:
REMARK  status: ('A' for Active; 'I' for Inactive)
REMARK    1  A    between atoms: N_2  and  C1*_12
REMARK    2  A    between atoms: C4*_14  and  C5*_17
REMARK    3  A    between atoms: C3*_15  and  O3*_20
REMARK    4  A    between atoms: C2*_16  and  O2*_22
REMARK    5  A    between atoms: C5*_17  and  O5*_18
REMARK                            x       y       z     vdW  Elec       q    Type
REMARK                         _______ _______ _______ _____ _____    ______ ____
ROOT
ATOM      1  S   UNL     1     -28.299  59.066 -33.710  0.00  0.00    +0.000 S 
ATOM      2  N   UNL     1     -27.872  60.315 -28.992  0.00  0.00    +0.000 N 
ATOM      3  N   UNL     1     -30.105  59.521 -29.658  0.00  0.00    +0.000 N 
ATOM      4  N   UNL     1     -26.902  60.066 -31.023  0.00  0.00    +0.000 NA
ATOM      5  N   UNL     1     -30.378  58.943 -31.948  0.00  0.00    +0.000 NA
ATOM      6  C   UNL     1     -28.813  59.831 -29.866  0.00  0.00    +0.000 A 
ATOM      7  C   UNL     1     -26.725  60.414 -29.764  0.00  0.00    +0.000 A 
ATOM      8  C   UNL     1     -28.224  59.702 -31.098  0.00  0.00    +0.000 A 
ATOM      9  C   UNL     1     -29.039  59.229 -32.219  0.00  0.00    +0.000 A 
ATOM     10  C   UNL     1     -30.829  59.090 -30.736  0.00  0.00    +0.000 A 
ATOM     11  H   UNL     1     -30.565  59.649 -28.759  0.00  0.00    +0.000 HD
ATOM     12  N   UNL     1     -32.123  58.815 -30.445  0.00  0.00    +0.000 N 
ATOM     13  H   UNL     1     -32.253  58.249 -29.616  0.00  0.00    +0.000 HD
ATOM     14  H   UNL     1     -32.584  58.387 -31.245  0.00  0.00    +0.000 HD
ENDROOT
BRANCH   2  15
ATOM     15  C1* UNL     1     -27.971  60.665 -27.660  0.00  0.00    +0.000 A 
ATOM     16  O4* UNL     1     -29.149  60.429 -26.910  0.00  0.00    +0.000 OA
ATOM     17  C4* UNL     1     -28.965  60.898 -25.599  0.00  0.00    +0.000 A 
ATOM     18  C3* UNL     1     -27.640  61.440 -25.499  0.00  0.00    +0.000 A 
ATOM     19  C2* UNL     1     -27.016  61.287 -26.776  0.00  0.00    +0.000 A 
BRANCH  18  20
ATOM     20  O3* UNL     1     -27.315  62.498 -24.693  0.00  0.00    +0.000 OA
ATOM     21  H3* UNL     1     -26.989  62.199 -23.824  0.00  0.00    +0.000 HD
ENDBRANCH  18  20
BRANCH  19  22
ATOM     22  O2* UNL     1     -26.074  62.181 -27.206  0.00  0.00    +0.000 OA
ATOM     23  H2* UNL     1     -25.217  61.721 -27.316  0.00  0.00    +0.000 HD
ENDBRANCH  19  22
BRANCH  17  24
ATOM     24  C5* UNL     1     -30.025  61.037 -24.684  0.00  0.00    +0.000 C 
BRANCH  24  25
ATOM     25  O5* UNL     1     -31.015  61.154 -23.805  0.00  0.00    +0.000 OA
ATOM     26  H5* UNL     1     -30.752  61.734 -23.068  0.00  0.00    +0.000 HD
ENDBRANCH  24  25
ENDBRANCH  17  24
ENDBRANCH   2  15
TORSDOF 5
ENDMDL
MODEL 2
REMARK VINA RESULT:      -5.0     10.195     11.346
REMARK  Name = Thioguanosine.pdbqt.pdb
REMARK  5 active torsions:
REMARK  status: ('A' for Active; 'I' for Inactive)
REMARK    1  A    between atoms: N_2  and  C1*_12
REMARK    2  A    between atoms: C4*_14  and  C5*_17
REMARK    3  A    between atoms: C3*_15  and  O3*_20
REMARK    4  A    between atoms: C2*_16  and  O2*_22
REMARK    5  A    between atoms: C5*_17  and  O5*_18
REMARK                            x       y       z     vdW  Elec       q    Type
REMARK                         _______ _______ _______ _____ _____    ______ ____
ROOT
ATOM      1  S   UNL     1     -18.356  58.532 -33.880  0.00  0.00    +0.000 S 
ATOM      2  N   UNL     1     -21.790  55.042 -33.734  0.00  0.00    +0.000 N 
ATOM      3  N   UNL     1     -20.401  55.217 -31.709  0.00  0.00    +0.000 N 
ATOM      4  N   UNL     1     -20.807  56.743 -34.860  0.00  0.00    +0.000 NA
ATOM      5  N   UNL     1     -18.689  56.867 -31.745  0.00  0.00    +0.000 NA
ATOM      6  C   UNL     1     -20.798  55.568 -32.946  0.00  0.00    +0.000 A 
ATOM      7  C   UNL     1     -21.751  55.823 -34.879  0.00  0.00    +0.000 A 
ATOM      8  C   UNL     1     -20.194  56.584 -33.641  0.00  0.00    +0.000 A 
ATOM      9  C   UNL     1     -19.071  57.290 -33.020  0.00  0.00    +0.000 A 
ATOM     10  C   UNL     1     -19.344  55.899 -31.172  0.00  0.00    +0.000 A 
ATOM     11  H   UNL     1     -20.814  54.441 -31.197  0.00  0.00    +0.000 HD
ATOM     12  N   UNL     1     -18.997  55.474 -29.933  0.00  0.00    +0.000 N 
ATOM     13  H   UNL     1     -19.776  55.364 -29.297  0.00  0.00    +0.000 HD
ATOM     14  H   UNL     1     -18.291  56.087 -29.532  0.00  0.00    +0.000 HD
ENDROOT
BRANCH   2  15
ATOM     15  C1* UNL     1     -22.648  53.981 -33.520  0.00  0.00    +0.000 A 
ATOM     16  O4* UNL     1     -23.345  53.817 -32.299  0.00  0.00    +0.000 OA
ATOM     17  C4* UNL     1     -24.125  52.650 -32.364  0.00  0.00    +0.000 A 
ATOM     18  C3* UNL     1     -23.933  52.054 -33.655  0.00  0.00    +0.000 A 
ATOM     19  C2* UNL     1     -23.022  52.885 -34.380  0.00  0.00    +0.000 A 
BRANCH  18  20
ATOM     20  O3* UNL     1     -23.961  50.704 -33.876  0.00  0.00    +0.000 OA
ATOM     21  H3* UNL     1     -23.952  50.496 -34.828  0.00  0.00    +0.000 HD
ENDBRANCH  18  20
BRANCH  19  22
ATOM     22  O2* UNL     1     -22.180  52.350 -35.315  0.00  0.00    +0.000 OA
ATOM     23  H2* UNL     1     -22.230  52.879 -36.137  0.00  0.00    +0.000 HD
ENDBRANCH  19  22
BRANCH  17  24
ATOM     24  C5* UNL     1     -24.737  52.079 -31.233  0.00  0.00    +0.000 C 
BRANCH  24  25
ATOM     25  O5* UNL     1     -25.299  51.521 -30.166  0.00  0.00    +0.000 OA
ATOM     26  H5* UNL     1     -24.823  51.775 -29.355  0.00  0.00    +0.000 HD
ENDBRANCH  24  25
ENDBRANCH  17  24
ENDBRANCH   2  15
TORSDOF 5
ENDMDL
MODEL 3
REMARK VINA RESULT:      -5.0     24.965     27.794
REMARK  Name = Thioguanosine.pdbqt.pdb
REMARK  5 active torsions:
REMARK  status: ('A' for Active; 'I' for Inactive)
REMARK    1  A    between atoms: N_2  and  C1*_12
REMARK    2  A    between atoms: C4*_14  and  C5*_17
REMARK    3  A    between atoms: C3*_15  and  O3*_20
REMARK    4  A    between atoms: C2*_16  and  O2*_22
REMARK    5  A    between atoms: C5*_17  and  O5*_18
REMARK                            x       y       z     vdW  Elec       q    Type
REMARK                         _______ _______ _______ _____ _____    ______ ____
ROOT
ATOM      1  S   UNL     1     -42.699  61.564  -0.554  0.00  0.00    +0.000 S 
ATOM      2  N   UNL     1     -39.218  60.081  -3.665  0.00  0.00    +0.000 N 
ATOM      3  N   UNL     1     -38.580  60.021  -1.288  0.00  0.00    +0.000 N 
ATOM      4  N   UNL     1     -41.331  60.828  -3.339  0.00  0.00    +0.000 NA
ATOM      5  N   UNL     1     -40.219  60.772   0.262  0.00  0.00    +0.000 NA
ATOM      6  C   UNL     1     -39.418  60.242  -2.317  0.00  0.00    +0.000 A 
ATOM      7  C   UNL     1     -40.435  60.438  -4.224  0.00  0.00    +0.000 A 
ATOM      8  C   UNL     1     -40.692  60.714  -2.128  0.00  0.00    +0.000 A 
ATOM      9  C   UNL     1     -41.139  61.001  -0.763  0.00  0.00    +0.000 A 
ATOM     10  C   UNL     1     -39.039  60.309  -0.032  0.00  0.00    +0.000 A 
ATOM     11  H   UNL     1     -37.620  59.708  -1.416  0.00  0.00    +0.000 HD
ATOM     12  N   UNL     1     -38.130  60.074   0.944  0.00  0.00    +0.000 N 
ATOM     13  H   UNL     1     -37.668  59.176   0.877  0.00  0.00    +0.000 HD
ATOM     14  H   UNL     1     -38.556  60.188   1.861  0.00  0.00    +0.000 HD
ENDROOT
BRANCH   2  15
ATOM     15  C1* UNL     1     -38.100  59.685  -4.372  0.00  0.00    +0.000 A 
ATOM     16  O4* UNL     1     -37.187  60.621  -4.915  0.00  0.00    +0.000 OA
ATOM     17  C4* UNL     1     -36.164  59.934  -5.588  0.00  0.00    +0.000 A 
ATOM     18  C3* UNL     1     -36.417  58.526  -5.471  0.00  0.00    +0.000 A 
ATOM     19  C2* UNL     1     -37.615  58.368  -4.706  0.00  0.00    +0.000 A 
BRANCH  18  20
ATOM     20  O3* UNL     1     -36.091  57.616  -6.440  0.00  0.00    +0.000 OA
ATOM     21  H3* UNL     1     -35.934  58.049  -7.300  0.00  0.00    +0.000 HD
ENDBRANCH  18  20
BRANCH  19  22
ATOM     22  O2* UNL     1     -38.443  57.300  -4.917  0.00  0.00    +0.000 OA
ATOM     23  H2* UNL     1     -39.141  57.552  -5.556  0.00  0.00    +0.000 HD
ENDBRANCH  19  22
BRANCH  17  24
ATOM     24  C5* UNL     1     -35.246  60.577  -6.440  0.00  0.00    +0.000 C 
BRANCH  24  25
ATOM     25  O5* UNL     1     -34.364  61.181  -7.228  0.00  0.00    +0.000 OA
ATOM     26  H5* UNL     1     -34.580  61.027  -8.165  0.00  0.00    +0.000 HD
ENDBRANCH  24  25
ENDBRANCH  17  24
ENDBRANCH   2  15
TORSDOF 5
ENDMDL
MODEL 4
REMARK VINA RESULT:      -5.0     11.184     13.094
REMARK  Name = Thioguanosine.pdbqt.pdb
REMARK  5 active torsions:
REMARK  status: ('A' for Active; 'I' for Inactive)
REMARK    1  A    between atoms: N_2  and  C1*_12
REMARK    2  A    between atoms: C4*_14  and  C5*_17
REMARK    3  A    between atoms: C3*_15  and  O3*_20
REMARK    4  A    between atoms: C2*_16  and  O2*_22
REMARK    5  A    between atoms: C5*_17  and  O5*_18
REMARK                            x       y       z     vdW  Elec       q    Type
REMARK                         _______ _______ _______ _____ _____    ______ ____
ROOT
ATOM      1  S   UNL     1     -16.817  56.236 -26.473  0.00  0.00    +0.000 S 
ATOM      2  N   UNL     1     -19.325  54.855 -30.448  0.00  0.00    +0.000 N 
ATOM      3  N   UNL     1     -18.755  53.032 -28.896  0.00  0.00    +0.000 N 
ATOM      4  N   UNL     1     -18.388  56.521 -29.234  0.00  0.00    +0.000 NA
ATOM      5  N   UNL     1     -17.499  53.641 -26.971  0.00  0.00    +0.000 NA
ATOM      6  C   UNL     1     -18.780  54.311 -29.313  0.00  0.00    +0.000 A 
ATOM      7  C   UNL     1     -19.066  56.211 -30.321  0.00  0.00    +0.000 A 
ATOM      8  C   UNL     1     -18.197  55.322 -28.592  0.00  0.00    +0.000 A 
ATOM      9  C   UNL     1     -17.512  54.988 -27.342  0.00  0.00    +0.000 A 
ATOM     10  C   UNL     1     -18.098  52.767 -27.726  0.00  0.00    +0.000 A 
ATOM     11  H   UNL     1     -19.149  52.267 -29.438  0.00  0.00    +0.000 HD
ATOM     12  N   UNL     1     -18.105  51.455 -27.385  0.00  0.00    +0.000 N 
ATOM     13  H   UNL     1     -19.012  51.012 -27.451  0.00  0.00    +0.000 HD
ATOM     14  H   UNL     1     -17.711  51.327 -26.455  0.00  0.00    +0.000 HD
ENDROOT
BRANCH   2  15
ATOM     15  C1* UNL     1     -19.972  54.262 -31.514  0.00  0.00    +0.000 A 
ATOM     16  O4* UNL     1     -19.713  52.924 -31.896  0.00  0.00    +0.000 OA
ATOM     17  C4* UNL     1     -20.501  52.599 -33.013  0.00  0.00    +0.000 A 
ATOM     18  C3* UNL     1     -21.288  53.749 -33.354  0.00  0.00    +0.000 A 
ATOM     19  C2* UNL     1     -20.970  54.782 -32.417  0.00  0.00    +0.000 A 
BRANCH  18  20
ATOM     20  O3* UNL     1     -21.647  54.067 -34.637  0.00  0.00    +0.000 OA
ATOM     21  H3* UNL     1     -21.176  53.515 -35.288  0.00  0.00    +0.000 HD
ENDBRANCH  18  20
BRANCH  19  22
ATOM     22  O2* UNL     1     -21.034  56.099 -32.780  0.00  0.00    +0.000 OA
ATOM     23  H2* UNL     1     -21.018  56.168 -33.756  0.00  0.00    +0.000 HD
ENDBRANCH  19  22
BRANCH  17  24
ATOM     24  C5* UNL     1     -20.295  51.437 -33.779  0.00  0.00    +0.000 C 
BRANCH  24  25
ATOM     25  O5* UNL     1     -20.093  50.353 -34.520  0.00  0.00    +0.000 OA
ATOM     26  H5* UNL     1     -19.186  50.020 -34.400  0.00  0.00    +0.000 HD
ENDBRANCH  24  25
ENDBRANCH  17  24
ENDBRANCH   2  15
TORSDOF 5
ENDMDL
MODEL 5
REMARK VINA RESULT:      -4.9     36.908     37.904
REMARK  Name = Thioguanosine.pdbqt.pdb
REMARK  5 active torsions:
REMARK  status: ('A' for Active; 'I' for Inactive)
REMARK    1  A    between atoms: N_2  and  C1*_12
REMARK    2  A    between atoms: C4*_14  and  C5*_17
REMARK    3  A    between atoms: C3*_15  and  O3*_20
REMARK    4  A    between atoms: C2*_16  and  O2*_22
REMARK    5  A    between atoms: C5*_17  and  O5*_18
REMARK                            x       y       z     vdW  Elec       q    Type
REMARK                         _______ _______ _______ _____ _____    ______ ____
ROOT
ATOM      1  S   UNL     1     -37.357  53.833   7.973  0.00  0.00    +0.000 S 
ATOM      2  N   UNL     1     -33.159  51.337   7.603  0.00  0.00    +0.000 N 
ATOM      3  N   UNL     1     -32.899  53.745   8.043  0.00  0.00    +0.000 N 
ATOM      4  N   UNL     1     -35.423  51.326   7.596  0.00  0.00    +0.000 NA
ATOM      5  N   UNL     1     -34.907  55.012   8.188  0.00  0.00    +0.000 NA
ATOM      6  C   UNL     1     -33.600  52.616   7.833  0.00  0.00    +0.000 A 
ATOM      7  C   UNL     1     -34.327  50.600   7.488  0.00  0.00    +0.000 A 
ATOM      8  C   UNL     1     -34.971  52.606   7.807  0.00  0.00    +0.000 A 
ATOM      9  C   UNL     1     -35.686  53.869   7.996  0.00  0.00    +0.000 A 
ATOM     10  C   UNL     1     -33.610  54.903   8.208  0.00  0.00    +0.000 A 
ATOM     11  H   UNL     1     -31.883  53.775   8.027  0.00  0.00    +0.000 HD
ATOM     12  N   UNL     1     -32.831  55.995   8.398  0.00  0.00    +0.000 N 
ATOM     13  H   UNL     1     -32.096  55.869   9.081  0.00  0.00    +0.000 HD
ATOM     14  H   UNL     1     -33.403  56.803   8.634  0.00  0.00    +0.000 HD
ENDROOT
BRANCH   2  15
ATOM     15  C1* UNL     1     -31.880  50.831   7.480  0.00  0.00    +0.000 A 
ATOM     16  O4* UNL     1     -31.468  49.663   8.166  0.00  0.00    +0.000 OA
ATOM     17  C4* UNL     1     -30.123  49.397   7.863  0.00  0.00    +0.000 A 
ATOM     18  C3* UNL     1     -29.660  50.409   6.957  0.00  0.00    +0.000 A 
ATOM     19  C2* UNL     1     -30.753  51.296   6.708  0.00  0.00    +0.000 A 
BRANCH  18  20
ATOM     20  O3* UNL     1     -28.373  50.876   6.939  0.00  0.00    +0.000 OA
ATOM     21  H3* UNL     1     -28.031  50.949   6.029  0.00  0.00    +0.000 HD
ENDBRANCH  18  20
BRANCH  19  22
ATOM     22  O2* UNL     1     -30.533  52.618   6.433  0.00  0.00    +0.000 OA
ATOM     23  H2* UNL     1     -30.400  52.730   5.470  0.00  0.00    +0.000 HD
ENDBRANCH  19  22
BRANCH  17  24
ATOM     24  C5* UNL     1     -29.352  48.458   8.573  0.00  0.00    +0.000 C 
BRANCH  24  25
ATOM     25  O5* UNL     1     -28.614  47.589   9.255  0.00  0.00    +0.000 OA
ATOM     26  H5* UNL     1     -29.144  47.159   9.949  0.00  0.00    +0.000 HD
ENDBRANCH  24  25
ENDBRANCH  17  24
ENDBRANCH   2  15
TORSDOF 5
ENDMDL
MODEL 6
REMARK VINA RESULT:      -4.8     36.281     38.607
REMARK  Name = Thioguanosine.pdbqt.pdb
REMARK  5 active torsions:
REMARK  status: ('A' for Active; 'I' for Inactive)
REMARK    1  A    between atoms: N_2  and  C1*_12
REMARK    2  A    between atoms: C4*_14  and  C5*_17
REMARK    3  A    between atoms: C3*_15  and  O3*_20
REMARK    4  A    between atoms: C2*_16  and  O2*_22
REMARK    5  A    between atoms: C5*_17  and  O5*_18
REMARK                            x       y       z     vdW  Elec       q    Type
REMARK                         _______ _______ _______ _____ _____    ______ ____
ROOT
ATOM      1  S   UNL     1     -30.072  46.115  12.096  0.00  0.00    +0.000 S 
ATOM      2  N   UNL     1     -29.704  49.563   8.637  0.00  0.00    +0.000 N 
ATOM      3  N   UNL     1     -31.773  48.231   8.558  0.00  0.00    +0.000 N 
ATOM      4  N   UNL     1     -28.818  48.543  10.453  0.00  0.00    +0.000 NA
ATOM      5  N   UNL     1     -31.982  46.513  10.190  0.00  0.00    +0.000 NA
ATOM      6  C   UNL     1     -30.577  48.592   9.058  0.00  0.00    +0.000 A 
ATOM      7  C   UNL     1     -28.662  49.489   9.548  0.00  0.00    +0.000 A 
ATOM      8  C   UNL     1     -30.025  47.965  10.146  0.00  0.00    +0.000 A 
ATOM      9  C   UNL     1     -30.757  46.858  10.765  0.00  0.00    +0.000 A 
ATOM     10  C   UNL     1     -32.417  47.187   9.165  0.00  0.00    +0.000 A 
ATOM     11  H   UNL     1     -32.177  48.661   7.729  0.00  0.00    +0.000 HD
ATOM     12  N   UNL     1     -33.605  46.877   8.592  0.00  0.00    +0.000 N 
ATOM     13  H   UNL     1     -34.202  47.674   8.412  0.00  0.00    +0.000 HD
ATOM     14  H   UNL     1     -34.096  46.180   9.147  0.00  0.00    +0.000 HD
ENDROOT
BRANCH   2  15
ATOM     15  C1* UNL     1     -29.766  50.429   7.563  0.00  0.00    +0.000 A 
ATOM     16  O4* UNL     1     -30.277  50.027   6.306  0.00  0.00    +0.000 OA
ATOM     17  C4* UNL     1     -30.203  51.106   5.408  0.00  0.00    +0.000 A 
ATOM     18  C3* UNL     1     -29.638  52.227   6.103  0.00  0.00    +0.000 A 
ATOM     19  C2* UNL     1     -29.375  51.813   7.446  0.00  0.00    +0.000 A 
BRANCH  18  20
ATOM     20  O3* UNL     1     -28.845  53.167   5.502  0.00  0.00    +0.000 OA
ATOM     21  H3* UNL     1     -28.419  53.750   6.158  0.00  0.00    +0.000 HD
ENDBRANCH  18  20
BRANCH  19  22
ATOM     22  O2* UNL     1     -28.341  52.358   8.157  0.00  0.00    +0.000 OA
ATOM     23  H2* UNL     1     -28.619  53.225   8.518  0.00  0.00    +0.000 HD
ENDBRANCH  19  22
BRANCH  17  24
ATOM     24  C5* UNL     1     -30.399  50.959   4.023  0.00  0.00    +0.000 C 
BRANCH  24  25
ATOM     25  O5* UNL     1     -30.588  50.844   2.713  0.00  0.00    +0.000 OA
ATOM     26  H5* UNL     1     -31.536  50.769   2.508  0.00  0.00    +0.000 HD
ENDBRANCH  24  25
ENDBRANCH  17  24
ENDBRANCH   2  15
TORSDOF 5
ENDMDL
MODEL 7
REMARK VINA RESULT:      -4.7     36.236     37.967
REMARK  Name = Thioguanosine.pdbqt.pdb
REMARK  5 active torsions:
REMARK  status: ('A' for Active; 'I' for Inactive)
REMARK    1  A    between atoms: N_2  and  C1*_12
REMARK    2  A    between atoms: C4*_14  and  C5*_17
REMARK    3  A    between atoms: C3*_15  and  O3*_20
REMARK    4  A    between atoms: C2*_16  and  O2*_22
REMARK    5  A    between atoms: C5*_17  and  O5*_18
REMARK                            x       y       z     vdW  Elec       q    Type
REMARK                         _______ _______ _______ _____ _____    ______ ____
ROOT
ATOM      1  S   UNL     1     -37.496  48.839   8.268  0.00  0.00    +0.000 S 
ATOM      2  N   UNL     1     -32.719  49.885   7.973  0.00  0.00    +0.000 N 
ATOM      3  N   UNL     1     -34.226  51.779   7.525  0.00  0.00    +0.000 N 
ATOM      4  N   UNL     1     -34.345  48.366   8.395  0.00  0.00    +0.000 NA
ATOM      5  N   UNL     1     -36.557  51.315   7.612  0.00  0.00    +0.000 NA
ATOM      6  C   UNL     1     -33.937  50.504   7.840  0.00  0.00    +0.000 A 
ATOM      7  C   UNL     1     -33.046  48.587   8.333  0.00  0.00    +0.000 A 
ATOM      8  C   UNL     1     -34.916  49.574   8.077  0.00  0.00    +0.000 A 
ATOM      9  C   UNL     1     -36.317  49.985   7.963  0.00  0.00    +0.000 A 
ATOM     10  C   UNL     1     -35.548  52.116   7.424  0.00  0.00    +0.000 A 
ATOM     11  H   UNL     1     -33.511  52.470   7.309  0.00  0.00    +0.000 HD
ATOM     12  N   UNL     1     -35.753  53.412   7.088  0.00  0.00    +0.000 N 
ATOM     13  H   UNL     1     -35.205  54.074   7.623  0.00  0.00    +0.000 HD
ATOM     14  H   UNL     1     -36.743  53.641   7.142  0.00  0.00    +0.000 HD
ENDROOT
BRANCH   2  15
ATOM     15  C1* UNL     1     -31.437  50.363   7.788  0.00  0.00    +0.000 A 
ATOM     16  O4* UNL     1     -31.185  51.607   7.160  0.00  0.00    +0.000 OA
ATOM     17  C4* UNL     1     -29.799  51.823   7.099  0.00  0.00    +0.000 A 
ATOM     18  C3* UNL     1     -29.143  50.701   7.707  0.00  0.00    +0.000 A 
ATOM     19  C2* UNL     1     -30.160  49.796   8.146  0.00  0.00    +0.000 A 
BRANCH  18  20
ATOM     20  O3* UNL     1     -27.925  50.227   7.302  0.00  0.00    +0.000 OA
ATOM     21  H3* UNL     1     -27.767  49.321   7.626  0.00  0.00    +0.000 HD
ENDBRANCH  18  20
BRANCH  19  22
ATOM     22  O2* UNL     1     -29.927  48.448   8.185  0.00  0.00    +0.000 OA
ATOM     23  H2* UNL     1     -30.253  48.088   9.035  0.00  0.00    +0.000 HD
ENDBRANCH  19  22
BRANCH  17  24
ATOM     24  C5* UNL     1     -29.220  52.841   6.318  0.00  0.00    +0.000 C 
BRANCH  24  25
ATOM     25  O5* UNL     1     -28.693  53.803   5.569  0.00  0.00    +0.000 OA
ATOM     26  H5* UNL     1     -29.382  54.426   5.276  0.00  0.00    +0.000 HD
ENDBRANCH  24  25
ENDBRANCH  17  24
ENDBRANCH   2  15
TORSDOF 5
ENDMDL
MODEL 8
REMARK VINA RESULT:      -4.6     26.676     28.504
REMARK  Name = Thioguanosine.pdbqt.pdb
REMARK  5 active torsions:
REMARK  status: ('A' for Active; 'I' for Inactive)
REMARK    1  A    between atoms: N_2  and  C1*_12
REMARK    2  A    between atoms: C4*_14  and  C5*_17
REMARK    3  A    between atoms: C3*_15  and  O3*_20
REMARK    4  A    between atoms: C2*_16  and  O2*_22
REMARK    5  A    between atoms: C5*_17  and  O5*_18
REMARK                            x       y       z     vdW  Elec       q    Type
REMARK                         _______ _______ _______ _____ _____    ______ ____
ROOT
ATOM      1  S   UNL     1     -33.586  37.116  -8.274  0.00  0.00    +0.000 S 
ATOM      2  N   UNL     1     -33.882  41.777  -6.795  0.00  0.00    +0.000 N 
ATOM      3  N   UNL     1     -34.146  41.439  -9.219  0.00  0.00    +0.000 N 
ATOM      4  N   UNL     1     -33.630  39.591  -6.263  0.00  0.00    +0.000 NA
ATOM      5  N   UNL     1     -33.967  39.198  -9.996  0.00  0.00    +0.000 NA
ATOM      6  C   UNL     1     -33.955  41.038  -7.949  0.00  0.00    +0.000 A 
ATOM      7  C   UNL     1     -33.703  40.825  -5.804  0.00  0.00    +0.000 A 
ATOM      8  C   UNL     1     -33.782  39.717  -7.622  0.00  0.00    +0.000 A 
ATOM      9  C   UNL     1     -33.787  38.721  -8.695  0.00  0.00    +0.000 A 
ATOM     10  C   UNL     1     -34.136  40.474 -10.189  0.00  0.00    +0.000 A 
ATOM     11  H   UNL     1     -34.237  42.417  -9.481  0.00  0.00    +0.000 HD
ATOM     12  N   UNL     1     -34.318  40.961 -11.440  0.00  0.00    +0.000 N 
ATOM     13  H   UNL     1     -35.085  41.615 -11.526  0.00  0.00    +0.000 HD
ATOM     14  H   UNL     1     -34.422  40.199 -12.107  0.00  0.00    +0.000 HD
ENDROOT
BRANCH   2  15
ATOM     15  C1* UNL     1     -33.940  43.142  -6.591  0.00  0.00    +0.000 A 
ATOM     16  O4* UNL     1     -33.214  44.051  -7.396  0.00  0.00    +0.000 OA
ATOM     17  C4* UNL     1     -33.454  45.361  -6.950  0.00  0.00    +0.000 A 
ATOM     18  C3* UNL     1     -34.360  45.295  -5.838  0.00  0.00    +0.000 A 
ATOM     19  C2* UNL     1     -34.672  43.917  -5.619  0.00  0.00    +0.000 A 
BRANCH  18  20
ATOM     20  O3* UNL     1     -34.332  46.173  -4.788  0.00  0.00    +0.000 OA
ATOM     21  H3* UNL     1     -35.154  46.695  -4.736  0.00  0.00    +0.000 HD
ENDBRANCH  18  20
BRANCH  19  22
ATOM     22  O2* UNL     1     -34.964  43.457  -4.364  0.00  0.00    +0.000 OA
ATOM     23  H2* UNL     1     -34.493  44.003  -3.702  0.00  0.00    +0.000 HD
ENDBRANCH  19  22
BRANCH  17  24
ATOM     24  C5* UNL     1     -32.693  46.464  -7.378  0.00  0.00    +0.000 C 
BRANCH  24  25
ATOM     25  O5* UNL     1     -31.988  47.520  -7.771  0.00  0.00    +0.000 OA
ATOM     26  H5* UNL     1     -31.793  48.102  -7.015  0.00  0.00    +0.000 HD
ENDBRANCH  24  25
ENDBRANCH  17  24
ENDBRANCH   2  15
TORSDOF 5
ENDMDL
MODEL 9
REMARK VINA RESULT:      -4.5     25.059     27.521
REMARK  Name = Thioguanosine.pdbqt.pdb
REMARK  5 active torsions:
REMARK  status: ('A' for Active; 'I' for Inactive)
REMARK    1  A    between atoms: N_2  and  C1*_12
REMARK    2  A    between atoms: C4*_14  and  C5*_17
REMARK    3  A    between atoms: C3*_15  and  O3*_20
REMARK    4  A    between atoms: C2*_16  and  O2*_22
REMARK    5  A    between atoms: C5*_17  and  O5*_18
REMARK                            x       y       z     vdW  Elec       q    Type
REMARK                         _______ _______ _______ _____ _____    ______ ____
ROOT
ATOM      1  S   UNL     1     -37.878  64.345   1.446  0.00  0.00    +0.000 S 
ATOM      2  N   UNL     1     -36.312  62.662  -2.880  0.00  0.00    +0.000 N 
ATOM      3  N   UNL     1     -37.567  61.034  -1.526  0.00  0.00    +0.000 N 
ATOM      4  N   UNL     1     -36.477  64.384  -1.419  0.00  0.00    +0.000 NA
ATOM      5  N   UNL     1     -38.312  61.787   0.603  0.00  0.00    +0.000 NA
ATOM      6  C   UNL     1     -37.020  62.235  -1.785  0.00  0.00    +0.000 A 
ATOM      7  C   UNL     1     -36.031  63.989  -2.595  0.00  0.00    +0.000 A 
ATOM      8  C   UNL     1     -37.098  63.276  -0.895  0.00  0.00    +0.000 A 
ATOM      9  C   UNL     1     -37.784  63.060   0.381  0.00  0.00    +0.000 A 
ATOM     10  C   UNL     1     -38.191  60.876  -0.319  0.00  0.00    +0.000 A 
ATOM     11  H   UNL     1     -37.483  60.242  -2.159  0.00  0.00    +0.000 HD
ATOM     12  N   UNL     1     -38.700  59.635  -0.130  0.00  0.00    +0.000 N 
ATOM     13  H   UNL     1     -39.233  59.279  -0.913  0.00  0.00    +0.000 HD
ATOM     14  H   UNL     1     -39.254  59.603   0.723  0.00  0.00    +0.000 HD
ENDROOT
BRANCH   2  15
ATOM     15  C1* UNL     1     -35.916  61.989  -4.019  0.00  0.00    +0.000 A 
ATOM     16  O4* UNL     1     -36.453  60.726  -4.366  0.00  0.00    +0.000 OA
ATOM     17  C4* UNL     1     -35.858  60.280  -5.558  0.00  0.00    +0.000 A 
ATOM     18  C3* UNL     1     -34.924  61.280  -5.992  0.00  0.00    +0.000 A 
ATOM     19  C2* UNL     1     -34.966  62.348  -5.043  0.00  0.00    +0.000 A 
BRANCH  18  20
ATOM     20  O3* UNL     1     -33.762  60.991  -6.657  0.00  0.00    +0.000 OA
ATOM     21  H3* UNL     1     -33.712  61.460  -7.510  0.00  0.00    +0.000 HD
ENDBRANCH  18  20
BRANCH  19  22
ATOM     22  O2* UNL     1     -33.856  63.109  -4.796  0.00  0.00    +0.000 OA
ATOM     23  H2* UNL     1     -33.984  63.608  -3.964  0.00  0.00    +0.000 HD
ENDBRANCH  19  22
BRANCH  17  24
ATOM     24  C5* UNL     1     -35.991  58.961  -6.030  0.00  0.00    +0.000 C 
BRANCH  24  25
ATOM     25  O5* UNL     1     -36.134  57.713  -6.461  0.00  0.00    +0.000 OA
ATOM     26  H5* UNL     1     -35.578  57.105  -5.941  0.00  0.00    +0.000 HD
ENDBRANCH  24  25
ENDBRANCH  17  24
ENDBRANCH   2  15
TORSDOF 5
ENDMDL
