MODEL 1
REMARK VINA RESULT:      -5.5      0.000      0.000
REMARK  Name = Trichostatin_A.pdbqt.pdb
REMARK  6 active torsions:
REMARK  status: ('A' for Active; 'I' for Inactive)
REMARK    1  A    between atoms: C_1  and  C_15
REMARK    2  A    between atoms: C_4  and  C_6
REMARK    3  A    between atoms: C_7  and  C_10
REMARK    4  A    between atoms: N_9  and  O_12
REMARK    5  A    between atoms: C_15  and  C_16
REMARK    6  A    between atoms: C_17  and  N_22
REMARK                            x       y       z     vdW  Elec       q    Type
REMARK                         _______ _______ _______ _____ _____    ______ ____
ROOT
ATOM      1  C   UNL     1     -28.238  66.637  -7.525  0.00  0.00    +0.000 C 
ATOM      2  C   UNL     1     -27.273  66.809  -6.369  0.00  0.00    +0.000 C 
ATOM      3  C   UNL     1     -29.608  66.550  -7.178  0.00  0.00    +0.000 C 
ATOM      4  C   UNL     1     -30.870  66.458  -6.915  0.00  0.00    +0.000 C 
ATOM      5  C   UNL     1     -31.734  67.678  -7.013  0.00  0.00    +0.000 C 
ENDROOT
BRANCH   4   6
ATOM      6  C   UNL     1     -31.467  65.189  -6.734  0.00  0.00    +0.000 C 
ATOM      7  C   UNL     1     -31.977  64.112  -6.579  0.00  0.00    +0.000 C 
BRANCH   7  10
ATOM      8  O   UNL     1     -32.485  62.235  -5.329  0.00  0.00    +0.000 OA
ATOM      9  N   UNL     1     -33.264  62.321  -7.478  0.00  0.00    +0.000 N 
ATOM     10  C   UNL     1     -32.588  62.822  -6.400  0.00  0.00    +0.000 C 
ATOM     11  H   UNL     1     -33.353  62.790  -8.372  0.00  0.00    +0.000 HD
BRANCH   9  12
ATOM     12  O   UNL     1     -33.868  61.054  -7.341  0.00  0.00    +0.000 OA
ATOM     13  H   UNL     1     -34.677  61.137  -7.890  0.00  0.00    +0.000 HD
ENDBRANCH   9  12
ENDBRANCH   7  10
ENDBRANCH   4   6
BRANCH   1  15
ATOM     14  O   UNL     1     -26.633  66.041  -9.171  0.00  0.00    +0.000 OA
ATOM     15  C   UNL     1     -27.810  66.295  -8.915  0.00  0.00    +0.000 C 
BRANCH  15  16
ATOM     16  C   UNL     1     -28.801  66.244 -10.009  0.00  0.00    +0.000 A 
ATOM     17  C   UNL     1     -30.830  66.120 -11.977  0.00  0.00    +0.000 A 
ATOM     18  C   UNL     1     -29.046  67.340 -10.830  0.00  0.00    +0.000 A 
ATOM     19  C   UNL     1     -29.579  65.097 -10.141  0.00  0.00    +0.000 A 
ATOM     20  C   UNL     1     -30.039  67.268 -11.807  0.00  0.00    +0.000 A 
ATOM     21  C   UNL     1     -30.569  65.038 -11.123  0.00  0.00    +0.000 A 
BRANCH  17  22
ATOM     22  N   UNL     1     -31.826  66.048 -12.984  0.00  0.00    +0.000 N 
ATOM     23  C   UNL     1     -32.520  64.801 -13.261  0.00  0.00    +0.000 C 
ATOM     24  C   UNL     1     -31.892  67.040 -14.044  0.00  0.00    +0.000 C 
ENDBRANCH  17  22
ENDBRANCH  15  16
ENDBRANCH   1  15
TORSDOF 6
ENDMDL
MODEL 2
REMARK VINA RESULT:      -5.4     20.268     21.764
REMARK  Name = Trichostatin_A.pdbqt.pdb
REMARK  6 active torsions:
REMARK  status: ('A' for Active; 'I' for Inactive)
REMARK    1  A    between atoms: C_1  and  C_15
REMARK    2  A    between atoms: C_4  and  C_6
REMARK    3  A    between atoms: C_7  and  C_10
REMARK    4  A    between atoms: N_9  and  O_12
REMARK    5  A    between atoms: C_15  and  C_16
REMARK    6  A    between atoms: C_17  and  N_22
REMARK                            x       y       z     vdW  Elec       q    Type
REMARK                         _______ _______ _______ _____ _____    ______ ____
ROOT
ATOM      1  C   UNL     1     -14.660  56.176 -21.294  0.00  0.00    +0.000 C 
ATOM      2  C   UNL     1     -13.159  56.384 -21.298  0.00  0.00    +0.000 C 
ATOM      3  C   UNL     1     -15.436  57.275 -20.855  0.00  0.00    +0.000 C 
ATOM      4  C   UNL     1     -16.189  58.247 -20.458  0.00  0.00    +0.000 C 
ATOM      5  C   UNL     1     -16.810  59.161 -21.469  0.00  0.00    +0.000 C 
ENDROOT
BRANCH   4   6
ATOM      6  C   UNL     1     -16.587  58.327 -19.103  0.00  0.00    +0.000 C 
ATOM      7  C   UNL     1     -16.927  58.399 -17.952  0.00  0.00    +0.000 C 
BRANCH   7  10
ATOM      8  O   UNL     1     -16.501  58.442 -15.680  0.00  0.00    +0.000 OA
ATOM      9  N   UNL     1     -18.682  58.589 -16.353  0.00  0.00    +0.000 N 
ATOM     10  C   UNL     1     -17.338  58.478 -16.575  0.00  0.00    +0.000 C 
ATOM     11  H   UNL     1     -19.387  58.613 -17.080  0.00  0.00    +0.000 HD
BRANCH   9  12
ATOM     12  O   UNL     1     -19.120  58.660 -15.014  0.00  0.00    +0.000 OA
ATOM     13  H   UNL     1     -20.004  59.078 -15.096  0.00  0.00    +0.000 HD
ENDBRANCH   9  12
ENDBRANCH   7  10
ENDBRANCH   4   6
BRANCH   1  15
ATOM     14  O   UNL     1     -15.625  54.163 -20.480  0.00  0.00    +0.000 OA
ATOM     15  C   UNL     1     -15.309  54.840 -21.459  0.00  0.00    +0.000 C 
BRANCH  15  16
ATOM     16  C   UNL     1     -15.595  54.312 -22.809  0.00  0.00    +0.000 A 
ATOM     17  C   UNL     1     -16.026  53.427 -25.462  0.00  0.00    +0.000 A 
ATOM     18  C   UNL     1     -15.266  53.010 -23.174  0.00  0.00    +0.000 A 
ATOM     19  C   UNL     1     -16.111  55.185 -23.764  0.00  0.00    +0.000 A 
ATOM     20  C   UNL     1     -15.492  52.577 -24.481  0.00  0.00    +0.000 A 
ATOM     21  C   UNL     1     -16.333  54.739 -25.067  0.00  0.00    +0.000 A 
BRANCH  17  22
ATOM     22  N   UNL     1     -16.270  52.974 -26.783  0.00  0.00    +0.000 N 
ATOM     23  C   UNL     1     -16.858  51.667 -27.028  0.00  0.00    +0.000 C 
ATOM     24  C   UNL     1     -15.575  53.561 -27.917  0.00  0.00    +0.000 C 
ENDBRANCH  17  22
ENDBRANCH  15  16
ENDBRANCH   1  15
TORSDOF 6
ENDMDL
MODEL 3
REMARK VINA RESULT:      -5.2     22.853     25.051
REMARK  Name = Trichostatin_A.pdbqt.pdb
REMARK  6 active torsions:
REMARK  status: ('A' for Active; 'I' for Inactive)
REMARK    1  A    between atoms: C_1  and  C_15
REMARK    2  A    between atoms: C_4  and  C_6
REMARK    3  A    between atoms: C_7  and  C_10
REMARK    4  A    between atoms: N_9  and  O_12
REMARK    5  A    between atoms: C_15  and  C_16
REMARK    6  A    between atoms: C_17  and  N_22
REMARK                            x       y       z     vdW  Elec       q    Type
REMARK                         _______ _______ _______ _____ _____    ______ ____
ROOT
ATOM      1  C   UNL     1     -16.458  46.772   3.548  0.00  0.00    +0.000 C 
ATOM      2  C   UNL     1     -17.433  45.647   3.828  0.00  0.00    +0.000 C 
ATOM      3  C   UNL     1     -16.080  47.555   4.665  0.00  0.00    +0.000 C 
ATOM      4  C   UNL     1     -15.709  48.305   5.650  0.00  0.00    +0.000 C 
ATOM      5  C   UNL     1     -14.417  48.015   6.351  0.00  0.00    +0.000 C 
ENDROOT
BRANCH   4   6
ATOM      6  C   UNL     1     -16.407  49.501   5.934  0.00  0.00    +0.000 C 
ATOM      7  C   UNL     1     -16.998  50.519   6.177  0.00  0.00    +0.000 C 
BRANCH   7  10
ATOM      8  O   UNL     1     -17.933  52.065   7.620  0.00  0.00    +0.000 OA
ATOM      9  N   UNL     1     -18.097  52.474   5.376  0.00  0.00    +0.000 N 
ATOM     10  C   UNL     1     -17.708  51.739   6.460  0.00  0.00    +0.000 C 
ATOM     11  H   UNL     1     -17.926  52.216   4.412  0.00  0.00    +0.000 HD
BRANCH   9  12
ATOM     12  O   UNL     1     -18.804  53.671   5.617  0.00  0.00    +0.000 OA
ATOM     13  H   UNL     1     -18.197  54.358   5.265  0.00  0.00    +0.000 HD
ENDBRANCH   9  12
ENDBRANCH   7  10
ENDBRANCH   4   6
BRANCH   1  15
ATOM     14  O   UNL     1     -16.111  46.462   1.219  0.00  0.00    +0.000 OA
ATOM     15  C   UNL     1     -16.110  47.241   2.172  0.00  0.00    +0.000 C 
BRANCH  15  16
ATOM     16  C   UNL     1     -15.770  48.658   1.931  0.00  0.00    +0.000 A 
ATOM     17  C   UNL     1     -15.185  51.411   1.637  0.00  0.00    +0.000 A 
ATOM     18  C   UNL     1     -14.456  49.078   1.751  0.00  0.00    +0.000 A 
ATOM     19  C   UNL     1     -16.792  49.602   1.995  0.00  0.00    +0.000 A 
ATOM     20  C   UNL     1     -14.176  50.435   1.594  0.00  0.00    +0.000 A 
ATOM     21  C   UNL     1     -16.498  50.957   1.836  0.00  0.00    +0.000 A 
BRANCH  17  22
ATOM     22  N   UNL     1     -14.895  52.787   1.459  0.00  0.00    +0.000 N 
ATOM     23  C   UNL     1     -13.954  53.227   0.442  0.00  0.00    +0.000 C 
ATOM     24  C   UNL     1     -15.157  53.750   2.516  0.00  0.00    +0.000 C 
ENDBRANCH  17  22
ENDBRANCH  15  16
ENDBRANCH   1  15
TORSDOF 6
ENDMDL
MODEL 4
REMARK VINA RESULT:      -5.2     22.146     24.829
REMARK  Name = Trichostatin_A.pdbqt.pdb
REMARK  6 active torsions:
REMARK  status: ('A' for Active; 'I' for Inactive)
REMARK    1  A    between atoms: C_1  and  C_15
REMARK    2  A    between atoms: C_4  and  C_6
REMARK    3  A    between atoms: C_7  and  C_10
REMARK    4  A    between atoms: N_9  and  O_12
REMARK    5  A    between atoms: C_15  and  C_16
REMARK    6  A    between atoms: C_17  and  N_22
REMARK                            x       y       z     vdW  Elec       q    Type
REMARK                         _______ _______ _______ _____ _____    ______ ____
ROOT
ATOM      1  C   UNL     1     -17.651  51.171   9.913  0.00  0.00    +0.000 C 
ATOM      2  C   UNL     1     -16.577  51.999  10.589  0.00  0.00    +0.000 C 
ATOM      3  C   UNL     1     -17.256  50.484   8.740  0.00  0.00    +0.000 C 
ATOM      4  C   UNL     1     -16.948  49.842   7.662  0.00  0.00    +0.000 C 
ATOM      5  C   UNL     1     -16.572  48.394   7.747  0.00  0.00    +0.000 C 
ENDROOT
BRANCH   4   6
ATOM      6  C   UNL     1     -17.158  50.438   6.397  0.00  0.00    +0.000 C 
ATOM      7  C   UNL     1     -17.335  50.942   5.320  0.00  0.00    +0.000 C 
BRANCH   7  10
ATOM      8  O   UNL     1     -17.530  52.766   3.913  0.00  0.00    +0.000 OA
ATOM      9  N   UNL     1     -17.784  50.687   2.995  0.00  0.00    +0.000 N 
ATOM     10  C   UNL     1     -17.554  51.547   4.033  0.00  0.00    +0.000 C 
ATOM     11  H   UNL     1     -17.815  49.678   3.077  0.00  0.00    +0.000 HD
BRANCH   9  12
ATOM     12  O   UNL     1     -18.013  51.247   1.720  0.00  0.00    +0.000 OA
ATOM     13  H   UNL     1     -18.662  51.959   1.908  0.00  0.00    +0.000 HD
ENDBRANCH   9  12
ENDBRANCH   7  10
ENDBRANCH   4   6
BRANCH   1  15
ATOM     14  O   UNL     1     -19.603  50.521  11.100  0.00  0.00    +0.000 OA
ATOM     15  C   UNL     1     -19.103  51.264  10.255  0.00  0.00    +0.000 C 
BRANCH  15  16
ATOM     16  C   UNL     1     -19.963  52.263   9.589  0.00  0.00    +0.000 A 
ATOM     17  C   UNL     1     -21.642  54.252   8.479  0.00  0.00    +0.000 A 
ATOM     18  C   UNL     1     -19.456  53.170   8.664  0.00  0.00    +0.000 A 
ATOM     19  C   UNL     1     -21.294  52.358   9.988  0.00  0.00    +0.000 A 
ATOM     20  C   UNL     1     -20.292  54.139   8.111  0.00  0.00    +0.000 A 
ATOM     21  C   UNL     1     -22.120  53.333   9.427  0.00  0.00    +0.000 A 
BRANCH  17  22
ATOM     22  N   UNL     1     -22.491  55.228   7.900  0.00  0.00    +0.000 N 
ATOM     23  C   UNL     1     -22.134  56.638   7.925  0.00  0.00    +0.000 C 
ATOM     24  C   UNL     1     -23.898  54.952   7.661  0.00  0.00    +0.000 C 
ENDBRANCH  17  22
ENDBRANCH  15  16
ENDBRANCH   1  15
TORSDOF 6
ENDMDL
MODEL 5
REMARK VINA RESULT:      -5.1     18.497     20.507
REMARK  Name = Trichostatin_A.pdbqt.pdb
REMARK  6 active torsions:
REMARK  status: ('A' for Active; 'I' for Inactive)
REMARK    1  A    between atoms: C_1  and  C_15
REMARK    2  A    between atoms: C_4  and  C_6
REMARK    3  A    between atoms: C_7  and  C_10
REMARK    4  A    between atoms: N_9  and  O_12
REMARK    5  A    between atoms: C_15  and  C_16
REMARK    6  A    between atoms: C_17  and  N_22
REMARK                            x       y       z     vdW  Elec       q    Type
REMARK                         _______ _______ _______ _____ _____    ______ ____
ROOT
ATOM      1  C   UNL     1     -38.998  47.598 -11.635  0.00  0.00    +0.000 C 
ATOM      2  C   UNL     1     -40.033  46.533 -11.939  0.00  0.00    +0.000 C 
ATOM      3  C   UNL     1     -38.391  48.209 -12.758  0.00  0.00    +0.000 C 
ATOM      4  C   UNL     1     -37.802  48.794 -13.748  0.00  0.00    +0.000 C 
ATOM      5  C   UNL     1     -38.310  50.118 -14.231  0.00  0.00    +0.000 C 
ENDROOT
BRANCH   4   6
ATOM      6  C   UNL     1     -36.575  48.292 -14.241  0.00  0.00    +0.000 C 
ATOM      7  C   UNL     1     -35.534  47.863 -14.661  0.00  0.00    +0.000 C 
BRANCH   7  10
ATOM      8  O   UNL     1     -33.890  47.693 -16.277  0.00  0.00    +0.000 OA
ATOM      9  N   UNL     1     -33.608  46.497 -14.348  0.00  0.00    +0.000 N 
ATOM     10  C   UNL     1     -34.287  47.355 -15.168  0.00  0.00    +0.000 C 
ATOM     11  H   UNL     1     -33.925  46.201 -13.433  0.00  0.00    +0.000 HD
BRANCH   9  12
ATOM     12  O   UNL     1     -32.386  45.972 -14.818  0.00  0.00    +0.000 OA
ATOM     13  H   UNL     1     -32.566  45.819 -15.771  0.00  0.00    +0.000 HD
ENDBRANCH   9  12
ENDBRANCH   7  10
ENDBRANCH   4   6
BRANCH   1  15
ATOM     14  O   UNL     1     -38.947  48.608  -9.486  0.00  0.00    +0.000 OA
ATOM     15  C   UNL     1     -38.421  47.823 -10.275  0.00  0.00    +0.000 C 
BRANCH  15  16
ATOM     16  C   UNL     1     -37.209  47.094  -9.850  0.00  0.00    +0.000 A 
ATOM     17  C   UNL     1     -34.797  45.776  -9.176  0.00  0.00    +0.000 A 
ATOM     18  C   UNL     1     -36.611  47.320  -8.614  0.00  0.00    +0.000 A 
ATOM     19  C   UNL     1     -36.598  46.239 -10.764  0.00  0.00    +0.000 A 
ATOM     20  C   UNL     1     -35.428  46.657  -8.284  0.00  0.00    +0.000 A 
ATOM     21  C   UNL     1     -35.416  45.582 -10.421  0.00  0.00    +0.000 A 
BRANCH  17  22
ATOM     22  N   UNL     1     -33.605  45.094  -8.826  0.00  0.00    +0.000 N 
ATOM     23  C   UNL     1     -33.225  43.862  -9.498  0.00  0.00    +0.000 C 
ATOM     24  C   UNL     1     -32.960  45.322  -7.543  0.00  0.00    +0.000 C 
ENDBRANCH  17  22
ENDBRANCH  15  16
ENDBRANCH   1  15
TORSDOF 6
ENDMDL
MODEL 6
REMARK VINA RESULT:      -5.1     20.092     22.079
REMARK  Name = Trichostatin_A.pdbqt.pdb
REMARK  6 active torsions:
REMARK  status: ('A' for Active; 'I' for Inactive)
REMARK    1  A    between atoms: C_1  and  C_15
REMARK    2  A    between atoms: C_4  and  C_6
REMARK    3  A    between atoms: C_7  and  C_10
REMARK    4  A    between atoms: N_9  and  O_12
REMARK    5  A    between atoms: C_15  and  C_16
REMARK    6  A    between atoms: C_17  and  N_22
REMARK                            x       y       z     vdW  Elec       q    Type
REMARK                         _______ _______ _______ _____ _____    ______ ____
ROOT
ATOM      1  C   UNL     1     -35.501  46.230 -15.572  0.00  0.00    +0.000 C 
ATOM      2  C   UNL     1     -36.588  45.179 -15.676  0.00  0.00    +0.000 C 
ATOM      3  C   UNL     1     -34.569  46.263 -16.637  0.00  0.00    +0.000 C 
ATOM      4  C   UNL     1     -33.688  46.331 -17.580  0.00  0.00    +0.000 C 
ATOM      5  C   UNL     1     -33.867  47.328 -18.685  0.00  0.00    +0.000 C 
ENDROOT
BRANCH   4   6
ATOM      6  C   UNL     1     -32.472  45.619 -17.469  0.00  0.00    +0.000 C 
ATOM      7  C   UNL     1     -31.440  45.010 -17.373  0.00  0.00    +0.000 C 
BRANCH   7  10
ATOM      8  O   UNL     1     -29.720  43.742 -18.255  0.00  0.00    +0.000 OA
ATOM      9  N   UNL     1     -29.634  44.242 -16.025  0.00  0.00    +0.000 N 
ATOM     10  C   UNL     1     -30.203  44.282 -17.267  0.00  0.00    +0.000 C 
ATOM     11  H   UNL     1     -30.023  44.676 -15.197  0.00  0.00    +0.000 HD
BRANCH   9  12
ATOM     12  O   UNL     1     -28.425  43.529 -15.882  0.00  0.00    +0.000 OA
ATOM     13  H   UNL     1     -27.966  43.705 -16.732  0.00  0.00    +0.000 HD
ENDBRANCH   9  12
ENDBRANCH   7  10
ENDBRANCH   4   6
BRANCH   1  15
ATOM     14  O   UNL     1     -35.244  48.238 -14.329  0.00  0.00    +0.000 OA
ATOM     15  C   UNL     1     -35.220  47.007 -14.326  0.00  0.00    +0.000 C 
BRANCH  15  16
ATOM     16  C   UNL     1     -34.919  46.306 -13.062  0.00  0.00    +0.000 A 
ATOM     17  C   UNL     1     -34.497  44.863 -10.664  0.00  0.00    +0.000 A 
ATOM     18  C   UNL     1     -33.781  45.520 -12.910  0.00  0.00    +0.000 A 
ATOM     19  C   UNL     1     -35.863  46.355 -12.039  0.00  0.00    +0.000 A 
ATOM     20  C   UNL     1     -33.573  44.822 -11.720  0.00  0.00    +0.000 A 
ATOM     21  C   UNL     1     -35.643  45.652 -10.854  0.00  0.00    +0.000 A 
BRANCH  17  22
ATOM     22  N   UNL     1     -34.270  44.165  -9.452  0.00  0.00    +0.000 N 
ATOM     23  C   UNL     1     -32.946  43.671  -9.110  0.00  0.00    +0.000 C 
ATOM     24  C   UNL     1     -35.367  43.541  -8.730  0.00  0.00    +0.000 C 
ENDBRANCH  17  22
ENDBRANCH  15  16
ENDBRANCH   1  15
TORSDOF 6
ENDMDL
MODEL 7
REMARK VINA RESULT:      -5.0     19.732     21.268
REMARK  Name = Trichostatin_A.pdbqt.pdb
REMARK  6 active torsions:
REMARK  status: ('A' for Active; 'I' for Inactive)
REMARK    1  A    between atoms: C_1  and  C_15
REMARK    2  A    between atoms: C_4  and  C_6
REMARK    3  A    between atoms: C_7  and  C_10
REMARK    4  A    between atoms: N_9  and  O_12
REMARK    5  A    between atoms: C_15  and  C_16
REMARK    6  A    between atoms: C_17  and  N_22
REMARK                            x       y       z     vdW  Elec       q    Type
REMARK                         _______ _______ _______ _____ _____    ______ ____
ROOT
ATOM      1  C   UNL     1     -33.818  44.871  -6.701  0.00  0.00    +0.000 C 
ATOM      2  C   UNL     1     -32.497  45.137  -6.008  0.00  0.00    +0.000 C 
ATOM      3  C   UNL     1     -33.752  44.087  -7.878  0.00  0.00    +0.000 C 
ATOM      4  C   UNL     1     -33.747  43.382  -8.961  0.00  0.00    +0.000 C 
ATOM      5  C   UNL     1     -34.048  41.916  -8.888  0.00  0.00    +0.000 C 
ENDROOT
BRANCH   4   6
ATOM      6  C   UNL     1     -33.657  44.018 -10.221  0.00  0.00    +0.000 C 
ATOM      7  C   UNL     1     -33.583  44.560 -11.291  0.00  0.00    +0.000 C 
BRANCH   7  10
ATOM      8  O   UNL     1     -34.366  45.981 -12.938  0.00  0.00    +0.000 OA
ATOM      9  N   UNL     1     -32.380  44.913 -13.315  0.00  0.00    +0.000 N 
ATOM     10  C   UNL     1     -33.486  45.211 -12.570  0.00  0.00    +0.000 C 
ATOM     11  H   UNL     1     -31.647  44.274 -13.030  0.00  0.00    +0.000 HD
BRANCH   9  12
ATOM     12  O   UNL     1     -32.258  45.526 -14.580  0.00  0.00    +0.000 OA
ATOM     13  H   UNL     1     -32.437  46.471 -14.383  0.00  0.00    +0.000 HD
ENDBRANCH   9  12
ENDBRANCH   7  10
ENDBRANCH   4   6
BRANCH   1  15
ATOM     14  O   UNL     1     -35.317  45.968  -5.220  0.00  0.00    +0.000 OA
ATOM     15  C   UNL     1     -35.084  45.592  -6.369  0.00  0.00    +0.000 C 
BRANCH  15  16
ATOM     16  C   UNL     1     -36.078  45.877  -7.424  0.00  0.00    +0.000 A 
ATOM     17  C   UNL     1     -38.098  46.477  -9.313  0.00  0.00    +0.000 A 
ATOM     18  C   UNL     1     -35.859  46.847  -8.397  0.00  0.00    +0.000 A 
ATOM     19  C   UNL     1     -37.307  45.224  -7.367  0.00  0.00    +0.000 A 
ATOM     20  C   UNL     1     -36.855  47.129  -9.333  0.00  0.00    +0.000 A 
ATOM     21  C   UNL     1     -38.294  45.515  -8.310  0.00  0.00    +0.000 A 
BRANCH  17  22
ATOM     22  N   UNL     1     -39.098  46.756 -10.278  0.00  0.00    +0.000 N 
ATOM     23  C   UNL     1     -38.916  47.815 -11.258  0.00  0.00    +0.000 C 
ATOM     24  C   UNL     1     -40.473  46.331 -10.077  0.00  0.00    +0.000 C 
ENDBRANCH  17  22
ENDBRANCH  15  16
ENDBRANCH   1  15
TORSDOF 6
ENDMDL
MODEL 8
REMARK VINA RESULT:      -4.9     24.412     26.680
REMARK  Name = Trichostatin_A.pdbqt.pdb
REMARK  6 active torsions:
REMARK  status: ('A' for Active; 'I' for Inactive)
REMARK    1  A    between atoms: C_1  and  C_15
REMARK    2  A    between atoms: C_4  and  C_6
REMARK    3  A    between atoms: C_7  and  C_10
REMARK    4  A    between atoms: N_9  and  O_12
REMARK    5  A    between atoms: C_15  and  C_16
REMARK    6  A    between atoms: C_17  and  N_22
REMARK                            x       y       z     vdW  Elec       q    Type
REMARK                         _______ _______ _______ _____ _____    ______ ____
ROOT
ATOM      1  C   UNL     1     -16.164  47.725   8.450  0.00  0.00    +0.000 C 
ATOM      2  C   UNL     1     -14.763  47.538   8.997  0.00  0.00    +0.000 C 
ATOM      3  C   UNL     1     -16.689  46.638   7.710  0.00  0.00    +0.000 C 
ATOM      4  C   UNL     1     -17.213  45.678   7.022  0.00  0.00    +0.000 C 
ATOM      5  C   UNL     1     -18.131  44.704   7.695  0.00  0.00    +0.000 C 
ENDROOT
BRANCH   4   6
ATOM      6  C   UNL     1     -17.083  45.662   5.614  0.00  0.00    +0.000 C 
ATOM      7  C   UNL     1     -16.976  45.645   4.417  0.00  0.00    +0.000 C 
BRANCH   7  10
ATOM      8  O   UNL     1     -17.794  45.974   2.280  0.00  0.00    +0.000 OA
ATOM      9  N   UNL     1     -15.644  45.222   2.488  0.00  0.00    +0.000 N 
ATOM     10  C   UNL     1     -16.850  45.632   2.984  0.00  0.00    +0.000 C 
ATOM     11  H   UNL     1     -14.857  44.929   3.055  0.00  0.00    +0.000 HD
BRANCH   9  12
ATOM     12  O   UNL     1     -15.490  45.188   1.087  0.00  0.00    +0.000 OA
ATOM     13  H   UNL     1     -14.895  44.419   0.951  0.00  0.00    +0.000 HD
ENDBRANCH   9  12
ENDBRANCH   7  10
ENDBRANCH   4   6
BRANCH   1  15
ATOM     14  O   UNL     1     -17.345  49.527   9.450  0.00  0.00    +0.000 OA
ATOM     15  C   UNL     1     -16.872  49.041   8.423  0.00  0.00    +0.000 C 
BRANCH  15  16
ATOM     16  C   UNL     1     -17.003  49.790   7.156  0.00  0.00    +0.000 A 
ATOM     17  C   UNL     1     -17.137  51.348   4.798  0.00  0.00    +0.000 A 
ATOM     18  C   UNL     1     -16.601  49.251   5.938  0.00  0.00    +0.000 A 
ATOM     19  C   UNL     1     -17.444  51.110   7.213  0.00  0.00    +0.000 A 
ATOM     20  C   UNL     1     -16.682  50.020   4.778  0.00  0.00    +0.000 A 
ATOM     21  C   UNL     1     -17.520  51.869   6.045  0.00  0.00    +0.000 A 
BRANCH  17  22
ATOM     22  N   UNL     1     -17.232  52.118   3.612  0.00  0.00    +0.000 N 
ATOM     23  C   UNL     1     -17.779  53.465   3.637  0.00  0.00    +0.000 C 
ATOM     24  C   UNL     1     -17.212  51.485   2.304  0.00  0.00    +0.000 C 
ENDBRANCH  17  22
ENDBRANCH  15  16
ENDBRANCH   1  15
TORSDOF 6
ENDMDL
MODEL 9
REMARK VINA RESULT:      -4.9     18.724     20.182
REMARK  Name = Trichostatin_A.pdbqt.pdb
REMARK  6 active torsions:
REMARK  status: ('A' for Active; 'I' for Inactive)
REMARK    1  A    between atoms: C_1  and  C_15
REMARK    2  A    between atoms: C_4  and  C_6
REMARK    3  A    between atoms: C_7  and  C_10
REMARK    4  A    between atoms: N_9  and  O_12
REMARK    5  A    between atoms: C_15  and  C_16
REMARK    6  A    between atoms: C_17  and  N_22
REMARK                            x       y       z     vdW  Elec       q    Type
REMARK                         _______ _______ _______ _____ _____    ______ ____
ROOT
ATOM      1  C   UNL     1     -39.207  47.935  -7.557  0.00  0.00    +0.000 C 
ATOM      2  C   UNL     1     -40.243  46.911  -7.141  0.00  0.00    +0.000 C 
ATOM      3  C   UNL     1     -38.195  47.472  -8.431  0.00  0.00    +0.000 C 
ATOM      4  C   UNL     1     -37.245  47.099  -9.224  0.00  0.00    +0.000 C 
ATOM      5  C   UNL     1     -37.371  47.348 -10.696  0.00  0.00    +0.000 C 
ENDROOT
BRANCH   4   6
ATOM      6  C   UNL     1     -36.016  46.643  -8.693  0.00  0.00    +0.000 C 
ATOM      7  C   UNL     1     -34.972  46.253  -8.243  0.00  0.00    +0.000 C 
BRANCH   7  10
ATOM      8  O   UNL     1     -33.342  46.168  -6.605  0.00  0.00    +0.000 OA
ATOM      9  N   UNL     1     -33.006  44.933  -8.500  0.00  0.00    +0.000 N 
ATOM     10  C   UNL     1     -33.718  45.791  -7.709  0.00  0.00    +0.000 C 
ATOM     11  H   UNL     1     -33.298  44.617  -9.418  0.00  0.00    +0.000 HD
BRANCH   9  12
ATOM     12  O   UNL     1     -31.768  44.467  -8.012  0.00  0.00    +0.000 OA
ATOM     13  H   UNL     1     -31.927  43.506  -7.894  0.00  0.00    +0.000 HD
ENDBRANCH   9  12
ENDBRANCH   7  10
ENDBRANCH   4   6
BRANCH   1  15
ATOM     14  O   UNL     1     -38.312  50.128  -7.376  0.00  0.00    +0.000 OA
ATOM     15  C   UNL     1     -39.056  49.270  -6.901  0.00  0.00    +0.000 C 
BRANCH  15  16
ATOM     16  C   UNL     1     -39.812  49.586  -5.672  0.00  0.00    +0.000 A 
ATOM     17  C   UNL     1     -41.107  50.271  -3.251  0.00  0.00    +0.000 A 
ATOM     18  C   UNL     1     -40.913  50.436  -5.685  0.00  0.00    +0.000 A 
ATOM     19  C   UNL     1     -39.333  49.098  -4.459  0.00  0.00    +0.000 A 
ATOM     20  C   UNL     1     -41.555  50.759  -4.489  0.00  0.00    +0.000 A 
ATOM     21  C   UNL     1     -39.984  49.428  -3.270  0.00  0.00    +0.000 A 
BRANCH  17  22
ATOM     22  N   UNL     1     -41.774  50.589  -2.042  0.00  0.00    +0.000 N 
ATOM     23  C   UNL     1     -42.148  51.960  -1.734  0.00  0.00    +0.000 C 
ATOM     24  C   UNL     1     -41.727  49.691  -0.900  0.00  0.00    +0.000 C 
ENDBRANCH  17  22
ENDBRANCH  15  16
ENDBRANCH   1  15
TORSDOF 6
ENDMDL
