MODEL 1
REMARK VINA RESULT:      -5.2      0.000      0.000
REMARK  Name = Trifluridine.pdbqt.pdb
REMARK  5 active torsions:
REMARK  status: ('A' for Active; 'I' for Inactive)
REMARK    1  A    between atoms: N_3  and  C1*_10
REMARK    2  A    between atoms: C_7  and  C_20
REMARK    3  A    between atoms: C4*_12  and  C5*_15
REMARK    4  A    between atoms: C3*_13  and  O3*_18
REMARK    5  A    between atoms: C5*_15  and  O5*_16
REMARK                            x       y       z     vdW  Elec       q    Type
REMARK                         _______ _______ _______ _____ _____    ______ ____
ROOT
ATOM      1  O   UNL     1     -34.146  47.990 -15.532  0.00  0.00    +0.000 OA
ATOM      2  O   UNL     1     -35.718  50.864 -18.746  0.00  0.00    +0.000 OA
ATOM      3  N   UNL     1     -33.832  47.398 -17.804  0.00  0.00    +0.000 N 
ATOM      4  N   UNL     1     -34.903  49.391 -17.185  0.00  0.00    +0.000 N 
ATOM      5  C   UNL     1     -34.081  47.851 -19.048  0.00  0.00    +0.000 A 
ATOM      6  C   UNL     1     -34.266  48.211 -16.731  0.00  0.00    +0.000 A 
ATOM      7  C   UNL     1     -34.649  48.894 -19.556  0.00  0.00    +0.000 A 
ATOM      8  C   UNL     1     -35.142  49.813 -18.499  0.00  0.00    +0.000 A 
ATOM      9  H   UNL     1     -35.234  50.007 -16.456  0.00  0.00    +0.000 HD
ENDROOT
BRANCH   3  10
ATOM     10  C1* UNL     1     -33.195  46.201 -17.646  0.00  0.00    +0.000 A 
ATOM     11  O4* UNL     1     -31.800  46.103 -17.595  0.00  0.00    +0.000 OA
ATOM     12  C4* UNL     1     -31.492  44.744 -17.455  0.00  0.00    +0.000 A 
ATOM     13  C3* UNL     1     -32.717  43.985 -17.414  0.00  0.00    +0.000 A 
ATOM     14  C2* UNL     1     -33.763  44.916 -17.544  0.00  0.00    +0.000 A 
BRANCH  13  15
ATOM     15  O3* UNL     1     -32.766  42.705 -17.888  0.00  0.00    +0.000 OA
ATOM     16  H3* UNL     1     -33.654  42.492 -18.226  0.00  0.00    +0.000 HD
ENDBRANCH  13  15
BRANCH  12  17
ATOM     17  C5* UNL     1     -30.179  44.251 -17.578  0.00  0.00    +0.000 C 
BRANCH  17  18
ATOM     18  O5* UNL     1     -28.937  43.790 -17.696  0.00  0.00    +0.000 OA
ATOM     19  H5* UNL     1     -28.629  43.886 -18.612  0.00  0.00    +0.000 HD
ENDBRANCH  17  18
ENDBRANCH  12  17
ENDBRANCH   3  10
BRANCH   7  20
ATOM     20  C   UNL     1     -34.881  49.256 -20.961  0.00  0.00    +0.000 C 
ATOM     21  F   UNL     1     -34.390  50.481 -21.271  0.00  0.00    +0.000 F 
ATOM     22  F   UNL     1     -34.277  48.381 -21.811  0.00  0.00    +0.000 F 
ATOM     23  F   UNL     1     -36.197  49.250 -21.288  0.00  0.00    +0.000 F 
ENDBRANCH   7  20
TORSDOF 5
ENDMDL
MODEL 2
REMARK VINA RESULT:      -5.1      2.326      3.094
REMARK  Name = Trifluridine.pdbqt.pdb
REMARK  5 active torsions:
REMARK  status: ('A' for Active; 'I' for Inactive)
REMARK    1  A    between atoms: N_3  and  C1*_10
REMARK    2  A    between atoms: C_7  and  C_20
REMARK    3  A    between atoms: C4*_12  and  C5*_15
REMARK    4  A    between atoms: C3*_13  and  O3*_18
REMARK    5  A    between atoms: C5*_15  and  O5*_16
REMARK                            x       y       z     vdW  Elec       q    Type
REMARK                         _______ _______ _______ _____ _____    ______ ____
ROOT
ATOM      1  O   UNL     1     -32.300  44.651 -14.312  0.00  0.00    +0.000 OA
ATOM      2  O   UNL     1     -34.767  48.436 -15.116  0.00  0.00    +0.000 OA
ATOM      3  N   UNL     1     -32.428  45.444 -16.540  0.00  0.00    +0.000 N 
ATOM      4  N   UNL     1     -33.512  46.544 -14.776  0.00  0.00    +0.000 N 
ATOM      5  C   UNL     1     -32.976  46.436 -17.270  0.00  0.00    +0.000 A 
ATOM      6  C   UNL     1     -32.692  45.453 -15.151  0.00  0.00    +0.000 A 
ATOM      7  C   UNL     1     -33.728  47.456 -17.023  0.00  0.00    +0.000 A 
ATOM      8  C   UNL     1     -34.063  47.550 -15.580  0.00  0.00    +0.000 A 
ATOM      9  H   UNL     1     -33.732  46.595 -13.791  0.00  0.00    +0.000 HD
ENDROOT
BRANCH   3  10
ATOM     10  C1* UNL     1     -31.670  44.497 -17.167  0.00  0.00    +0.000 A 
ATOM     11  O4* UNL     1     -30.616  44.837 -18.023  0.00  0.00    +0.000 OA
ATOM     12  C4* UNL     1     -30.080  43.636 -18.506  0.00  0.00    +0.000 A 
ATOM     13  C3* UNL     1     -30.812  42.532 -17.938  0.00  0.00    +0.000 A 
ATOM     14  C2* UNL     1     -31.803  43.096 -17.115  0.00  0.00    +0.000 A 
BRANCH  13  15
ATOM     15  O3* UNL     1     -30.960  41.360 -18.624  0.00  0.00    +0.000 OA
ATOM     16  H3* UNL     1     -31.694  41.419 -19.261  0.00  0.00    +0.000 HD
ENDBRANCH  13  15
BRANCH  12  17
ATOM     17  C5* UNL     1     -29.138  43.596 -19.552  0.00  0.00    +0.000 C 
BRANCH  17  18
ATOM     18  O5* UNL     1     -28.247  43.555 -20.538  0.00  0.00    +0.000 OA
ATOM     19  H5* UNL     1     -28.612  43.079 -21.302  0.00  0.00    +0.000 HD
ENDBRANCH  17  18
ENDBRANCH  12  17
ENDBRANCH   3  10
BRANCH   7  20
ATOM     20  C   UNL     1     -34.286  48.463 -17.937  0.00  0.00    +0.000 C 
ATOM     21  F   UNL     1     -33.865  49.719 -17.647  0.00  0.00    +0.000 F 
ATOM     22  F   UNL     1     -33.917  48.230 -19.227  0.00  0.00    +0.000 F 
ATOM     23  F   UNL     1     -35.642  48.475 -17.931  0.00  0.00    +0.000 F 
ENDBRANCH   7  20
TORSDOF 5
ENDMDL
MODEL 3
REMARK VINA RESULT:      -5.0     19.447     20.729
REMARK  Name = Trifluridine.pdbqt.pdb
REMARK  5 active torsions:
REMARK  status: ('A' for Active; 'I' for Inactive)
REMARK    1  A    between atoms: N_3  and  C1*_10
REMARK    2  A    between atoms: C_7  and  C_20
REMARK    3  A    between atoms: C4*_12  and  C5*_15
REMARK    4  A    between atoms: C3*_13  and  O3*_18
REMARK    5  A    between atoms: C5*_15  and  O5*_16
REMARK                            x       y       z     vdW  Elec       q    Type
REMARK                         _______ _______ _______ _____ _____    ______ ____
ROOT
ATOM      1  O   UNL     1     -19.538  56.499 -33.533  0.00  0.00    +0.000 OA
ATOM      2  O   UNL     1     -17.167  57.340 -29.695  0.00  0.00    +0.000 OA
ATOM      3  N   UNL     1     -19.779  54.992 -31.722  0.00  0.00    +0.000 N 
ATOM      4  N   UNL     1     -18.384  56.871 -31.583  0.00  0.00    +0.000 N 
ATOM      5  C   UNL     1     -19.346  54.789 -30.463  0.00  0.00    +0.000 A 
ATOM      6  C   UNL     1     -19.279  56.132 -32.393  0.00  0.00    +0.000 A 
ATOM      7  C   UNL     1     -18.540  55.394 -29.654  0.00  0.00    +0.000 A 
ATOM      8  C   UNL     1     -17.960  56.611 -30.274  0.00  0.00    +0.000 A 
ATOM      9  H   UNL     1     -17.996  57.697 -32.018  0.00  0.00    +0.000 HD
ENDROOT
BRANCH   3  10
ATOM     10  C1* UNL     1     -20.655  54.103 -32.276  0.00  0.00    +0.000 A 
ATOM     11  O4* UNL     1     -22.035  54.333 -32.297  0.00  0.00    +0.000 OA
ATOM     12  C4* UNL     1     -22.625  53.220 -32.908  0.00  0.00    +0.000 A 
ATOM     13  C3* UNL     1     -21.593  52.283 -33.276  0.00  0.00    +0.000 A 
ATOM     14  C2* UNL     1     -20.376  52.853 -32.863  0.00  0.00    +0.000 A 
BRANCH  13  15
ATOM     15  O3* UNL     1     -21.841  50.940 -33.304  0.00  0.00    +0.000 OA
ATOM     16  H3* UNL     1     -22.795  50.759 -33.239  0.00  0.00    +0.000 HD
ENDBRANCH  13  15
BRANCH  12  17
ATOM     17  C5* UNL     1     -24.018  53.011 -32.914  0.00  0.00    +0.000 C 
BRANCH  17  18
ATOM     18  O5* UNL     1     -25.333  52.817 -32.924  0.00  0.00    +0.000 OA
ATOM     19  H5* UNL     1     -25.606  52.328 -32.130  0.00  0.00    +0.000 HD
ENDBRANCH  17  18
ENDBRANCH  12  17
ENDBRANCH   3  10
BRANCH   7  20
ATOM     20  C   UNL     1     -18.128  55.040 -28.289  0.00  0.00    +0.000 C 
ATOM     21  F   UNL     1     -18.767  53.939 -27.820  0.00  0.00    +0.000 F 
ATOM     22  F   UNL     1     -16.797  54.760 -28.223  0.00  0.00    +0.000 F 
ATOM     23  F   UNL     1     -18.344  56.045 -27.404  0.00  0.00    +0.000 F 
ENDBRANCH   7  20
TORSDOF 5
ENDMDL
MODEL 4
REMARK VINA RESULT:      -5.0      8.589      9.831
REMARK  Name = Trifluridine.pdbqt.pdb
REMARK  5 active torsions:
REMARK  status: ('A' for Active; 'I' for Inactive)
REMARK    1  A    between atoms: N_3  and  C1*_10
REMARK    2  A    between atoms: C_7  and  C_20
REMARK    3  A    between atoms: C4*_12  and  C5*_15
REMARK    4  A    between atoms: C3*_13  and  O3*_18
REMARK    5  A    between atoms: C5*_15  and  O5*_16
REMARK                            x       y       z     vdW  Elec       q    Type
REMARK                         _______ _______ _______ _____ _____    ______ ____
ROOT
ATOM      1  O   UNL     1     -34.713  42.156 -11.137  0.00  0.00    +0.000 OA
ATOM      2  O   UNL     1     -34.151  43.350  -6.741  0.00  0.00    +0.000 OA
ATOM      3  N   UNL     1     -33.902  44.332 -10.669  0.00  0.00    +0.000 N 
ATOM      4  N   UNL     1     -34.403  42.809  -8.958  0.00  0.00    +0.000 N 
ATOM      5  C   UNL     1     -33.579  45.129  -9.632  0.00  0.00    +0.000 A 
ATOM      6  C   UNL     1     -34.365  43.033 -10.355  0.00  0.00    +0.000 A 
ATOM      7  C   UNL     1     -33.584  45.018  -8.345  0.00  0.00    +0.000 A 
ATOM      8  C   UNL     1     -34.060  43.680  -7.916  0.00  0.00    +0.000 A 
ATOM      9  H   UNL     1     -34.729  41.894  -8.680  0.00  0.00    +0.000 HD
ENDROOT
BRANCH   3  10
ATOM     10  C1* UNL     1     -33.775  44.811 -11.941  0.00  0.00    +0.000 A 
ATOM     11  O4* UNL     1     -32.869  44.261 -12.855  0.00  0.00    +0.000 OA
ATOM     12  C4* UNL     1     -32.982  45.003 -14.038  0.00  0.00    +0.000 A 
ATOM     13  C3* UNL     1     -33.978  46.028 -13.857  0.00  0.00    +0.000 A 
ATOM     14  C2* UNL     1     -34.450  45.893 -12.539  0.00  0.00    +0.000 A 
BRANCH  13  15
ATOM     15  O3* UNL     1     -33.891  47.219 -14.521  0.00  0.00    +0.000 OA
ATOM     16  H3* UNL     1     -32.998  47.599 -14.440  0.00  0.00    +0.000 HD
ENDBRANCH  13  15
BRANCH  12  17
ATOM     17  C5* UNL     1     -32.074  44.865 -15.105  0.00  0.00    +0.000 C 
BRANCH  17  18
ATOM     18  O5* UNL     1     -31.220  44.739 -16.116  0.00  0.00    +0.000 OA
ATOM     19  H5* UNL     1     -30.305  44.791 -15.791  0.00  0.00    +0.000 HD
ENDBRANCH  17  18
ENDBRANCH  12  17
ENDBRANCH   3  10
BRANCH   7  20
ATOM     20  C   UNL     1     -33.225  45.997  -7.309  0.00  0.00    +0.000 C 
ATOM     21  F   UNL     1     -32.247  45.547  -6.484  0.00  0.00    +0.000 F 
ATOM     22  F   UNL     1     -32.756  47.154  -7.853  0.00  0.00    +0.000 F 
ATOM     23  F   UNL     1     -34.282  46.347  -6.536  0.00  0.00    +0.000 F 
ENDBRANCH   7  20
TORSDOF 5
ENDMDL
MODEL 5
REMARK VINA RESULT:      -5.0     26.635     27.721
REMARK  Name = Trifluridine.pdbqt.pdb
REMARK  5 active torsions:
REMARK  status: ('A' for Active; 'I' for Inactive)
REMARK    1  A    between atoms: N_3  and  C1*_10
REMARK    2  A    between atoms: C_7  and  C_20
REMARK    3  A    between atoms: C4*_12  and  C5*_15
REMARK    4  A    between atoms: C3*_13  and  O3*_18
REMARK    5  A    between atoms: C5*_15  and  O5*_16
REMARK                            x       y       z     vdW  Elec       q    Type
REMARK                         _______ _______ _______ _____ _____    ______ ____
ROOT
ATOM      1  O   UNL     1     -29.411  53.168   6.396  0.00  0.00    +0.000 OA
ATOM      2  O   UNL     1     -27.838  49.067   7.724  0.00  0.00    +0.000 OA
ATOM      3  N   UNL     1     -30.788  51.849   7.802  0.00  0.00    +0.000 N 
ATOM      4  N   UNL     1     -28.676  51.111   7.101  0.00  0.00    +0.000 N 
ATOM      5  C   UNL     1     -30.805  50.660   8.434  0.00  0.00    +0.000 A 
ATOM      6  C   UNL     1     -29.632  52.153   7.047  0.00  0.00    +0.000 A 
ATOM      7  C   UNL     1     -29.997  49.657   8.539  0.00  0.00    +0.000 A 
ATOM      8  C   UNL     1     -28.746  49.884   7.773  0.00  0.00    +0.000 A 
ATOM      9  H   UNL     1     -27.830  51.279   6.575  0.00  0.00    +0.000 HD
ENDROOT
BRANCH   3  10
ATOM     10  C1* UNL     1     -31.866  52.679   7.914  0.00  0.00    +0.000 A 
ATOM     11  O4* UNL     1     -33.162  52.262   7.587  0.00  0.00    +0.000 OA
ATOM     12  C4* UNL     1     -34.007  53.360   7.792  0.00  0.00    +0.000 A 
ATOM     13  C3* UNL     1     -33.224  54.477   8.258  0.00  0.00    +0.000 A 
ATOM     14  C2* UNL     1     -31.892  54.029   8.316  0.00  0.00    +0.000 A 
BRANCH  13  15
ATOM     15  O3* UNL     1     -33.589  55.761   7.967  0.00  0.00    +0.000 OA
ATOM     16  H3* UNL     1     -33.165  56.067   7.146  0.00  0.00    +0.000 HD
ENDBRANCH  13  15
BRANCH  12  17
ATOM     17  C5* UNL     1     -35.350  53.369   7.368  0.00  0.00    +0.000 C 
BRANCH  17  18
ATOM     18  O5* UNL     1     -36.619  53.381   6.971  0.00  0.00    +0.000 OA
ATOM     19  H5* UNL     1     -36.687  53.063   6.055  0.00  0.00    +0.000 HD
ENDBRANCH  17  18
ENDBRANCH  12  17
ENDBRANCH   3  10
BRANCH   7  20
ATOM     20  C   UNL     1     -30.157  48.384   9.254  0.00  0.00    +0.000 C 
ATOM     21  F   UNL     1     -31.442  48.150   9.621  0.00  0.00    +0.000 F 
ATOM     22  F   UNL     1     -29.787  47.324   8.483  0.00  0.00    +0.000 F 
ATOM     23  F   UNL     1     -29.395  48.318  10.374  0.00  0.00    +0.000 F 
ENDBRANCH   7  20
TORSDOF 5
ENDMDL
MODEL 6
REMARK VINA RESULT:      -4.9     18.770     20.100
REMARK  Name = Trifluridine.pdbqt.pdb
REMARK  5 active torsions:
REMARK  status: ('A' for Active; 'I' for Inactive)
REMARK    1  A    between atoms: N_3  and  C1*_10
REMARK    2  A    between atoms: C_7  and  C_20
REMARK    3  A    between atoms: C4*_12  and  C5*_15
REMARK    4  A    between atoms: C3*_13  and  O3*_18
REMARK    5  A    between atoms: C5*_15  and  O5*_16
REMARK                            x       y       z     vdW  Elec       q    Type
REMARK                         _______ _______ _______ _____ _____    ______ ____
ROOT
ATOM      1  O   UNL     1     -21.877  55.849 -34.371  0.00  0.00    +0.000 OA
ATOM      2  O   UNL     1     -18.437  56.224 -31.357  0.00  0.00    +0.000 OA
ATOM      3  N   UNL     1     -21.549  54.080 -32.831  0.00  0.00    +0.000 N 
ATOM      4  N   UNL     1     -20.178  55.983 -32.834  0.00  0.00    +0.000 N 
ATOM      5  C   UNL     1     -20.747  53.714 -31.811  0.00  0.00    +0.000 A 
ATOM      6  C   UNL     1     -21.280  55.330 -33.436  0.00  0.00    +0.000 A 
ATOM      7  C   UNL     1     -19.732  54.230 -31.203  0.00  0.00    +0.000 A 
ATOM      8  C   UNL     1     -19.370  55.552 -31.774  0.00  0.00    +0.000 A 
ATOM      9  H   UNL     1     -19.943  56.881 -33.232  0.00  0.00    +0.000 HD
ENDROOT
BRANCH   3  10
ATOM     10  C1* UNL     1     -22.553  53.243 -33.223  0.00  0.00    +0.000 A 
ATOM     11  O4* UNL     1     -23.645  52.954 -32.396  0.00  0.00    +0.000 OA
ATOM     12  C4* UNL     1     -24.457  52.052 -33.095  0.00  0.00    +0.000 A 
ATOM     13  C3* UNL     1     -23.861  51.777 -34.378  0.00  0.00    +0.000 A 
ATOM     14  C2* UNL     1     -22.671  52.525 -34.429  0.00  0.00    +0.000 A 
BRANCH  13  15
ATOM     15  O3* UNL     1     -24.034  50.568 -34.989  0.00  0.00    +0.000 OA
ATOM     16  H3* UNL     1     -24.000  50.658 -35.958  0.00  0.00    +0.000 HD
ENDBRANCH  13  15
BRANCH  12  17
ATOM     17  C5* UNL     1     -25.538  51.382 -32.488  0.00  0.00    +0.000 C 
BRANCH  17  18
ATOM     18  O5* UNL     1     -26.560  50.749 -31.921  0.00  0.00    +0.000 OA
ATOM     19  H5* UNL     1     -26.246  50.202 -31.181  0.00  0.00    +0.000 HD
ENDBRANCH  17  18
ENDBRANCH  12  17
ENDBRANCH   3  10
BRANCH   7  20
ATOM     20  C   UNL     1     -18.918  53.698 -30.102  0.00  0.00    +0.000 C 
ATOM     21  F   UNL     1     -17.621  53.514 -30.454  0.00  0.00    +0.000 F 
ATOM     22  F   UNL     1     -18.902  54.544 -29.035  0.00  0.00    +0.000 F 
ATOM     23  F   UNL     1     -19.386  52.513 -29.635  0.00  0.00    +0.000 F 
ENDBRANCH   7  20
TORSDOF 5
ENDMDL
MODEL 7
REMARK VINA RESULT:      -4.7      3.616      6.349
REMARK  Name = Trifluridine.pdbqt.pdb
REMARK  5 active torsions:
REMARK  status: ('A' for Active; 'I' for Inactive)
REMARK    1  A    between atoms: N_3  and  C1*_10
REMARK    2  A    between atoms: C_7  and  C_20
REMARK    3  A    between atoms: C4*_12  and  C5*_15
REMARK    4  A    between atoms: C3*_13  and  O3*_18
REMARK    5  A    between atoms: C5*_15  and  O5*_16
REMARK                            x       y       z     vdW  Elec       q    Type
REMARK                         _______ _______ _______ _____ _____    ______ ____
ROOT
ATOM      1  O   UNL     1     -35.787  45.757 -15.539  0.00  0.00    +0.000 OA
ATOM      2  O   UNL     1     -32.251  42.906 -14.884  0.00  0.00    +0.000 OA
ATOM      3  N   UNL     1     -33.805  46.140 -16.776  0.00  0.00    +0.000 N 
ATOM      4  N   UNL     1     -33.987  44.360 -15.261  0.00  0.00    +0.000 N 
ATOM      5  C   UNL     1     -32.566  45.640 -16.952  0.00  0.00    +0.000 A 
ATOM      6  C   UNL     1     -34.637  45.470 -15.850  0.00  0.00    +0.000 A 
ATOM      7  C   UNL     1     -31.891  44.651 -16.466  0.00  0.00    +0.000 A 
ATOM      8  C   UNL     1     -32.687  43.884 -15.476  0.00  0.00    +0.000 A 
ATOM      9  H   UNL     1     -34.540  43.847 -14.589  0.00  0.00    +0.000 HD
ENDROOT
BRANCH   3  10
ATOM     10  C1* UNL     1     -34.182  47.247 -17.481  0.00  0.00    +0.000 A 
ATOM     11  O4* UNL     1     -34.017  47.337 -18.868  0.00  0.00    +0.000 OA
ATOM     12  C4* UNL     1     -34.480  48.602 -19.252  0.00  0.00    +0.000 A 
ATOM     13  C3* UNL     1     -34.942  49.309 -18.084  0.00  0.00    +0.000 A 
ATOM     14  C2* UNL     1     -34.737  48.446 -16.993  0.00  0.00    +0.000 A 
BRANCH  13  15
ATOM     15  O3* UNL     1     -34.865  50.670 -18.010  0.00  0.00    +0.000 OA
ATOM     16  H3* UNL     1     -35.733  51.079 -18.169  0.00  0.00    +0.000 HD
ENDBRANCH  13  15
BRANCH  12  17
ATOM     17  C5* UNL     1     -34.276  49.120 -20.546  0.00  0.00    +0.000 C 
BRANCH  17  18
ATOM     18  O5* UNL     1     -34.084  49.613 -21.765  0.00  0.00    +0.000 OA
ATOM     19  H5* UNL     1     -33.155  49.506 -22.028  0.00  0.00    +0.000 HD
ENDBRANCH  17  18
ENDBRANCH  12  17
ENDBRANCH   3  10
BRANCH   7  20
ATOM     20  C   UNL     1     -30.510  44.227 -16.732  0.00  0.00    +0.000 C 
ATOM     21  F   UNL     1     -29.917  44.962 -17.705  0.00  0.00    +0.000 F 
ATOM     22  F   UNL     1     -29.723  44.358 -15.628  0.00  0.00    +0.000 F 
ATOM     23  F   UNL     1     -30.428  42.924 -17.098  0.00  0.00    +0.000 F 
ENDBRANCH   7  20
TORSDOF 5
ENDMDL
MODEL 8
REMARK VINA RESULT:      -4.6      9.788     10.953
REMARK  Name = Trifluridine.pdbqt.pdb
REMARK  5 active torsions:
REMARK  status: ('A' for Active; 'I' for Inactive)
REMARK    1  A    between atoms: N_3  and  C1*_10
REMARK    2  A    between atoms: C_7  and  C_20
REMARK    3  A    between atoms: C4*_12  and  C5*_15
REMARK    4  A    between atoms: C3*_13  and  O3*_18
REMARK    5  A    between atoms: C5*_15  and  O5*_16
REMARK                            x       y       z     vdW  Elec       q    Type
REMARK                         _______ _______ _______ _____ _____    ______ ____
ROOT
ATOM      1  O   UNL     1     -36.819  42.970  -9.419  0.00  0.00    +0.000 OA
ATOM      2  O   UNL     1     -35.175  43.891  -5.235  0.00  0.00    +0.000 OA
ATOM      3  N   UNL     1     -34.847  44.272  -9.259  0.00  0.00    +0.000 N 
ATOM      4  N   UNL     1     -35.943  43.457  -7.353  0.00  0.00    +0.000 N 
ATOM      5  C   UNL     1     -34.006  44.792  -8.344  0.00  0.00    +0.000 A 
ATOM      6  C   UNL     1     -35.940  43.522  -8.767  0.00  0.00    +0.000 A 
ATOM      7  C   UNL     1     -33.928  44.791  -7.055  0.00  0.00    +0.000 A 
ATOM      8  C   UNL     1     -35.042  44.024  -6.443  0.00  0.00    +0.000 A 
ATOM      9  H   UNL     1     -36.707  42.932  -6.951  0.00  0.00    +0.000 HD
ENDROOT
BRANCH   3  10
ATOM     10  C1* UNL     1     -34.611  44.497 -10.585  0.00  0.00    +0.000 A 
ATOM     11  O4* UNL     1     -34.010  43.536 -11.406  0.00  0.00    +0.000 OA
ATOM     12  C4* UNL     1     -33.897  44.103 -12.682  0.00  0.00    +0.000 A 
ATOM     13  C3* UNL     1     -34.439  45.438 -12.653  0.00  0.00    +0.000 A 
ATOM     14  C2* UNL     1     -34.868  45.662 -11.333  0.00  0.00    +0.000 A 
BRANCH  13  15
ATOM     15  O3* UNL     1     -33.951  46.413 -13.476  0.00  0.00    +0.000 OA
ATOM     16  H3* UNL     1     -34.547  47.182 -13.499  0.00  0.00    +0.000 HD
ENDBRANCH  13  15
BRANCH  12  17
ATOM     17  C5* UNL     1     -33.151  43.500 -13.713  0.00  0.00    +0.000 C 
BRANCH  17  18
ATOM     18  O5* UNL     1     -32.444  42.935 -14.687  0.00  0.00    +0.000 OA
ATOM     19  H5* UNL     1     -31.565  43.345 -14.745  0.00  0.00    +0.000 HD
ENDBRANCH  17  18
ENDBRANCH  12  17
ENDBRANCH   3  10
BRANCH   7  20
ATOM     20  C   UNL     1     -32.952  45.435  -6.165  0.00  0.00    +0.000 C 
ATOM     21  F   UNL     1     -33.541  46.114  -5.150  0.00  0.00    +0.000 F 
ATOM     22  F   UNL     1     -32.127  44.523  -5.581  0.00  0.00    +0.000 F 
ATOM     23  F   UNL     1     -32.145  46.304  -6.823  0.00  0.00    +0.000 F 
ENDBRANCH   7  20
TORSDOF 5
ENDMDL
MODEL 9
REMARK VINA RESULT:      -4.6      3.735      6.575
REMARK  Name = Trifluridine.pdbqt.pdb
REMARK  5 active torsions:
REMARK  status: ('A' for Active; 'I' for Inactive)
REMARK    1  A    between atoms: N_3  and  C1*_10
REMARK    2  A    between atoms: C_7  and  C_20
REMARK    3  A    between atoms: C4*_12  and  C5*_15
REMARK    4  A    between atoms: C3*_13  and  O3*_18
REMARK    5  A    between atoms: C5*_15  and  O5*_16
REMARK                            x       y       z     vdW  Elec       q    Type
REMARK                         _______ _______ _______ _____ _____    ______ ____
ROOT
ATOM      1  O   UNL     1     -34.599  44.915 -15.834  0.00  0.00    +0.000 OA
ATOM      2  O   UNL     1     -30.891  42.217 -15.642  0.00  0.00    +0.000 OA
ATOM      3  N   UNL     1     -32.867  45.290 -17.405  0.00  0.00    +0.000 N 
ATOM      4  N   UNL     1     -32.723  43.592 -15.794  0.00  0.00    +0.000 N 
ATOM      5  C   UNL     1     -31.655  44.820 -17.762  0.00  0.00    +0.000 A 
ATOM      6  C   UNL     1     -33.506  44.648 -16.320  0.00  0.00    +0.000 A 
ATOM      7  C   UNL     1     -30.870  43.881 -17.348  0.00  0.00    +0.000 A 
ATOM      8  C   UNL     1     -31.459  43.146 -16.200  0.00  0.00    +0.000 A 
ATOM      9  H   UNL     1     -33.136  43.101 -15.014  0.00  0.00    +0.000 HD
ENDROOT
BRANCH   3  10
ATOM     10  C1* UNL     1     -33.400  46.344 -18.090  0.00  0.00    +0.000 A 
ATOM     11  O4* UNL     1     -33.597  47.595 -17.494  0.00  0.00    +0.000 OA
ATOM     12  C4* UNL     1     -34.178  48.421 -18.464  0.00  0.00    +0.000 A 
ATOM     13  C3* UNL     1     -34.343  47.672 -19.684  0.00  0.00    +0.000 A 
ATOM     14  C2* UNL     1     -33.858  46.378 -19.422  0.00  0.00    +0.000 A 
BRANCH  13  15
ATOM     15  O3* UNL     1     -35.366  47.947 -20.546  0.00  0.00    +0.000 OA
ATOM     16  H3* UNL     1     -35.400  48.897 -20.756  0.00  0.00    +0.000 HD
ENDBRANCH  13  15
BRANCH  12  17
ATOM     17  C5* UNL     1     -34.707  49.690 -18.157  0.00  0.00    +0.000 C 
BRANCH  17  18
ATOM     18  O5* UNL     1     -35.204  50.890 -17.872  0.00  0.00    +0.000 OA
ATOM     19  H5* UNL     1     -36.082  50.994 -18.276  0.00  0.00    +0.000 HD
ENDBRANCH  17  18
ENDBRANCH  12  17
ENDBRANCH   3  10
BRANCH   7  20
ATOM     20  C   UNL     1     -29.536  43.487 -17.820  0.00  0.00    +0.000 C 
ATOM     21  F   UNL     1     -29.030  44.352 -18.733  0.00  0.00    +0.000 F 
ATOM     22  F   UNL     1     -28.635  43.444 -16.801  0.00  0.00    +0.000 F 
ATOM     23  F   UNL     1     -29.528  42.251 -18.380  0.00  0.00    +0.000 F 
ENDBRANCH   7  20
TORSDOF 5
ENDMDL
