MODEL 1
REMARK VINA RESULT:      -7.7      0.000      0.000
REMARK  Name = Troglitazone.pdbqt.pdb
REMARK  4 active torsions:
REMARK  status: ('A' for Active; 'I' for Inactive)
REMARK    1  A    between atoms: C_1  and  O_2
REMARK    2  A    between atoms: C_1  and  C_18
REMARK    3  A    between atoms: O_2  and  C_3
REMARK    4  A    between atoms: C_26  and  O_32
REMARK                            x       y       z     vdW  Elec       q    Type
REMARK                         _______ _______ _______ _____ _____    ______ ____
ROOT
ATOM      1  C   UNL     1     -15.081  50.582 -23.266  0.00  0.00    +0.000 C 
ENDROOT
BRANCH   1   2
ATOM      2  C   UNL     1     -14.714  51.945 -23.685  0.00  0.00    +0.000 C 
ATOM      3  O   UNL     1     -15.237  52.869 -22.664  0.00  0.00    +0.000 OA
ATOM      4  C   UNL     1     -15.699  54.159 -22.952  0.00  0.00    +0.000 A 
ATOM      5  C   UNL     1     -16.125  54.582 -24.245  0.00  0.00    +0.000 A 
ATOM      6  C   UNL     1     -15.796  55.057 -21.868  0.00  0.00    +0.000 A 
ATOM      7  C   UNL     1     -16.001  53.593 -25.255  0.00  0.00    +0.000 C 
ATOM      8  C   UNL     1     -16.609  55.877 -24.468  0.00  0.00    +0.000 A 
ATOM      9  C   UNL     1     -15.313  52.302 -24.965  0.00  0.00    +0.000 C 
ATOM     10  C   UNL     1     -16.683  56.768 -23.386  0.00  0.00    +0.000 A 
ATOM     11  C   UNL     1     -17.055  56.301 -25.852  0.00  0.00    +0.000 C 
ATOM     12  C   UNL     1     -16.282  56.363 -22.095  0.00  0.00    +0.000 A 
ATOM     13  C   UNL     1     -16.422  57.412 -20.992  0.00  0.00    +0.000 C 
ATOM     14  C   UNL     1     -15.386  54.580 -20.480  0.00  0.00    +0.000 C 
ATOM     15  C   UNL     1     -13.177  52.137 -23.716  0.00  0.00    +0.000 C 
BRANCH  10  16
ATOM     16  O   UNL     1     -17.160  58.054 -23.580  0.00  0.00    +0.000 OA
ATOM     17  H   UNL     1     -17.948  58.004 -24.164  0.00  0.00    +0.000 HD
ENDBRANCH  10  16
ENDBRANCH   1   2
BRANCH   1  18
ATOM     18  O   UNL     1     -15.405  49.347 -22.882  0.00  0.00    +0.000 OA
BRANCH  18  19
ATOM     19  C   UNL     1     -16.252  48.684 -23.735  0.00  0.00    +0.000 C 
ATOM     20  C   UNL     1     -16.431  49.009 -25.081  0.00  0.00    +0.000 C 
ATOM     21  C   UNL     1     -17.311  48.272 -25.870  0.00  0.00    +0.000 C 
ATOM     22  C   UNL     1     -18.014  47.208 -25.313  0.00  0.00    +0.000 C 
ATOM     23  C   UNL     1     -17.840  46.878 -23.971  0.00  0.00    +0.000 C 
ATOM     24  C   UNL     1     -16.959  47.616 -23.183  0.00  0.00    +0.000 C 
ATOM     25  C   UNL     1     -18.913  46.451 -26.119  0.00  0.00    +0.000 C 
ATOM     26  C   UNL     1     -19.812  45.702 -26.910  0.00  0.00    +0.000 C 
ATOM     27  S   UNL     1     -19.539  45.246 -28.548  0.00  0.00    +0.000 S 
ATOM     28  C   UNL     1     -21.076  44.410 -28.643  0.00  0.00    +0.000 C 
ATOM     29  O   UNL     1     -21.481  43.826 -29.634  0.00  0.00    +0.000 OA
ATOM     30  N   UNL     1     -21.728  44.510 -27.457  0.00  0.00    +0.000 N 
ATOM     31  C   UNL     1     -21.118  45.189 -26.445  0.00  0.00    +0.000 C 
ATOM     32  H   UNL     1     -22.631  44.081 -27.327  0.00  0.00    +0.000 HD
ATOM     33  O   UNL     1     -21.582  45.342 -25.328  0.00  0.00    +0.000 OA
ENDBRANCH  18  19
ENDBRANCH   1  18
TORSDOF 4
ENDMDL
MODEL 2
REMARK VINA RESULT:      -7.5     20.960     23.857
REMARK  Name = Troglitazone.pdbqt.pdb
REMARK  4 active torsions:
REMARK  status: ('A' for Active; 'I' for Inactive)
REMARK    1  A    between atoms: C_1  and  O_2
REMARK    2  A    between atoms: C_1  and  C_18
REMARK    3  A    between atoms: O_2  and  C_3
REMARK    4  A    between atoms: C_26  and  O_32
REMARK                            x       y       z     vdW  Elec       q    Type
REMARK                         _______ _______ _______ _____ _____    ______ ____
ROOT
ATOM      1  C   UNL     1     -38.715  47.873 -12.814  0.00  0.00    +0.000 C 
ENDROOT
BRANCH   1   2
ATOM      2  C   UNL     1     -38.338  47.715 -14.229  0.00  0.00    +0.000 C 
ATOM      3  O   UNL     1     -36.979  47.149 -14.255  0.00  0.00    +0.000 OA
ATOM      4  C   UNL     1     -36.035  47.449 -15.245  0.00  0.00    +0.000 A 
ATOM      5  C   UNL     1     -36.087  48.612 -16.069  0.00  0.00    +0.000 A 
ATOM      6  C   UNL     1     -34.946  46.562 -15.375  0.00  0.00    +0.000 A 
ATOM      7  C   UNL     1     -37.216  49.441 -15.841  0.00  0.00    +0.000 C 
ATOM      8  C   UNL     1     -35.097  48.877 -17.023  0.00  0.00    +0.000 A 
ATOM      9  C   UNL     1     -38.309  48.992 -14.930  0.00  0.00    +0.000 C 
ATOM     10  C   UNL     1     -34.028  47.978 -17.156  0.00  0.00    +0.000 A 
ATOM     11  C   UNL     1     -35.177  50.119 -17.885  0.00  0.00    +0.000 C 
ATOM     12  C   UNL     1     -33.949  46.830 -16.340  0.00  0.00    +0.000 A 
ATOM     13  C   UNL     1     -32.732  45.932 -16.563  0.00  0.00    +0.000 C 
ATOM     14  C   UNL     1     -34.872  45.349 -14.456  0.00  0.00    +0.000 C 
ATOM     15  C   UNL     1     -39.258  46.702 -14.954  0.00  0.00    +0.000 C 
BRANCH  10  16
ATOM     16  O   UNL     1     -33.034  48.218 -18.091  0.00  0.00    +0.000 OA
ATOM     17  H   UNL     1     -33.463  48.403 -18.954  0.00  0.00    +0.000 HD
ENDBRANCH  10  16
ENDBRANCH   1   2
BRANCH   1  18
ATOM     18  O   UNL     1     -39.048  48.008 -11.529  0.00  0.00    +0.000 OA
BRANCH  18  19
ATOM     19  C   UNL     1     -38.111  47.542 -10.642  0.00  0.00    +0.000 C 
ATOM     20  C   UNL     1     -37.789  48.163  -9.433  0.00  0.00    +0.000 C 
ATOM     21  C   UNL     1     -36.826  47.608  -8.593  0.00  0.00    +0.000 C 
ATOM     22  C   UNL     1     -36.181  46.431  -8.962  0.00  0.00    +0.000 C 
ATOM     23  C   UNL     1     -36.497  45.807 -10.167  0.00  0.00    +0.000 C 
ATOM     24  C   UNL     1     -37.462  46.362 -11.005  0.00  0.00    +0.000 C 
ATOM     25  C   UNL     1     -35.197  45.861  -8.105  0.00  0.00    +0.000 C 
ATOM     26  C   UNL     1     -34.214  45.296  -7.263  0.00  0.00    +0.000 C 
ATOM     27  S   UNL     1     -34.307  45.232  -5.544  0.00  0.00    +0.000 S 
ATOM     28  C   UNL     1     -32.764  44.409  -5.424  0.00  0.00    +0.000 C 
ATOM     29  O   UNL     1     -32.252  44.060  -4.374  0.00  0.00    +0.000 OA
ATOM     30  N   UNL     1     -32.244  44.222  -6.663  0.00  0.00    +0.000 N 
ATOM     31  C   UNL     1     -32.963  44.664  -7.733  0.00  0.00    +0.000 C 
ATOM     32  H   UNL     1     -31.358  43.758  -6.786  0.00  0.00    +0.000 HD
ATOM     33  O   UNL     1     -32.623  44.549  -8.899  0.00  0.00    +0.000 OA
ENDBRANCH  18  19
ENDBRANCH   1  18
TORSDOF 4
ENDMDL
MODEL 3
REMARK VINA RESULT:      -7.3     19.022     21.903
REMARK  Name = Troglitazone.pdbqt.pdb
REMARK  4 active torsions:
REMARK  status: ('A' for Active; 'I' for Inactive)
REMARK    1  A    between atoms: C_1  and  O_2
REMARK    2  A    between atoms: C_1  and  C_18
REMARK    3  A    between atoms: O_2  and  C_3
REMARK    4  A    between atoms: C_26  and  O_32
REMARK                            x       y       z     vdW  Elec       q    Type
REMARK                         _______ _______ _______ _____ _____    ______ ____
ROOT
ATOM      1  C   UNL     1     -32.938  44.478 -13.291  0.00  0.00    +0.000 C 
ENDROOT
BRANCH   1   2
ATOM      2  C   UNL     1     -33.919  44.231 -12.221  0.00  0.00    +0.000 C 
ATOM      3  O   UNL     1     -34.895  45.333 -12.265  0.00  0.00    +0.000 OA
ATOM      4  C   UNL     1     -35.528  45.852 -11.129  0.00  0.00    +0.000 A 
ATOM      5  C   UNL     1     -35.025  45.709  -9.802  0.00  0.00    +0.000 A 
ATOM      6  C   UNL     1     -36.700  46.607 -11.342  0.00  0.00    +0.000 A 
ATOM      7  C   UNL     1     -33.833  44.945  -9.707  0.00  0.00    +0.000 C 
ATOM      8  C   UNL     1     -35.684  46.278  -8.705  0.00  0.00    +0.000 A 
ATOM      9  C   UNL     1     -33.297  44.232 -10.903  0.00  0.00    +0.000 C 
ATOM     10  C   UNL     1     -36.859  47.011  -8.928  0.00  0.00    +0.000 A 
ATOM     11  C   UNL     1     -35.128  46.110  -7.307  0.00  0.00    +0.000 C 
ATOM     12  C   UNL     1     -37.365  47.178 -10.234  0.00  0.00    +0.000 A 
ATOM     13  C   UNL     1     -38.641  48.010 -10.356  0.00  0.00    +0.000 C 
ATOM     14  C   UNL     1     -37.202  46.797 -12.768  0.00  0.00    +0.000 C 
ATOM     15  C   UNL     1     -34.710  42.922 -12.463  0.00  0.00    +0.000 C 
BRANCH  10  16
ATOM     16  O   UNL     1     -37.529  47.586  -7.860  0.00  0.00    +0.000 OA
ATOM     17  H   UNL     1     -38.000  48.383  -8.187  0.00  0.00    +0.000 HD
ENDBRANCH  10  16
ENDBRANCH   1   2
BRANCH   1  18
ATOM     18  O   UNL     1     -32.052  44.691 -14.266  0.00  0.00    +0.000 OA
BRANCH  18  19
ATOM     19  C   UNL     1     -32.540  45.393 -15.340  0.00  0.00    +0.000 C 
ATOM     20  C   UNL     1     -32.148  45.184 -16.664  0.00  0.00    +0.000 C 
ATOM     21  C   UNL     1     -32.707  45.943 -17.690  0.00  0.00    +0.000 C 
ATOM     22  C   UNL     1     -33.659  46.914 -17.392  0.00  0.00    +0.000 C 
ATOM     23  C   UNL     1     -34.054  47.128 -16.073  0.00  0.00    +0.000 C 
ATOM     24  C   UNL     1     -33.495  46.366 -15.049  0.00  0.00    +0.000 C 
ATOM     25  C   UNL     1     -34.233  47.691 -18.439  0.00  0.00    +0.000 C 
ATOM     26  C   UNL     1     -34.799  48.470 -19.472  0.00  0.00    +0.000 C 
ATOM     27  S   UNL     1     -35.243  47.875 -21.026  0.00  0.00    +0.000 S 
ATOM     28  C   UNL     1     -35.814  49.449 -21.541  0.00  0.00    +0.000 C 
ATOM     29  O   UNL     1     -36.292  49.681 -22.639  0.00  0.00    +0.000 OA
ATOM     30  N   UNL     1     -35.645  50.350 -20.541  0.00  0.00    +0.000 N 
ATOM     31  C   UNL     1     -35.107  49.912 -19.368  0.00  0.00    +0.000 C 
ATOM     32  H   UNL     1     -35.924  51.311 -20.660  0.00  0.00    +0.000 HD
ATOM     33  O   UNL     1     -34.915  50.608 -18.385  0.00  0.00    +0.000 OA
ENDBRANCH  18  19
ENDBRANCH   1  18
TORSDOF 4
ENDMDL
MODEL 4
REMARK VINA RESULT:      -7.2     18.672     21.764
REMARK  Name = Troglitazone.pdbqt.pdb
REMARK  4 active torsions:
REMARK  status: ('A' for Active; 'I' for Inactive)
REMARK    1  A    between atoms: C_1  and  O_2
REMARK    2  A    between atoms: C_1  and  C_18
REMARK    3  A    between atoms: O_2  and  C_3
REMARK    4  A    between atoms: C_26  and  O_32
REMARK                            x       y       z     vdW  Elec       q    Type
REMARK                         _______ _______ _______ _____ _____    ______ ____
ROOT
ATOM      1  C   UNL     1     -34.969  45.974 -12.523  0.00  0.00    +0.000 C 
ENDROOT
BRANCH   1   2
ATOM      2  C   UNL     1     -35.497  45.239 -11.361  0.00  0.00    +0.000 C 
ATOM      3  O   UNL     1     -34.695  45.642 -10.193  0.00  0.00    +0.000 OA
ATOM      4  C   UNL     1     -34.394  44.783  -9.128  0.00  0.00    +0.000 A 
ATOM      5  C   UNL     1     -34.432  43.360  -9.217  0.00  0.00    +0.000 A 
ATOM      6  C   UNL     1     -33.974  45.386  -7.924  0.00  0.00    +0.000 A 
ATOM      7  C   UNL     1     -34.852  42.864 -10.479  0.00  0.00    +0.000 C 
ATOM      8  C   UNL     1     -34.089  42.550  -8.128  0.00  0.00    +0.000 A 
ATOM      9  C   UNL     1     -35.364  43.797 -11.524  0.00  0.00    +0.000 C 
ATOM     10  C   UNL     1     -33.691  43.162  -6.929  0.00  0.00    +0.000 A 
ATOM     11  C   UNL     1     -34.138  41.042  -8.250  0.00  0.00    +0.000 C 
ATOM     12  C   UNL     1     -33.632  44.567  -6.825  0.00  0.00    +0.000 A 
ATOM     13  C   UNL     1     -33.168  45.119  -5.477  0.00  0.00    +0.000 C 
ATOM     14  C   UNL     1     -33.889  46.906  -7.854  0.00  0.00    +0.000 C 
ATOM     15  C   UNL     1     -36.963  45.633 -11.055  0.00  0.00    +0.000 C 
BRANCH  10  16
ATOM     16  O   UNL     1     -33.345  42.383  -5.837  0.00  0.00    +0.000 OA
ATOM     17  H   UNL     1     -32.629  41.770  -6.113  0.00  0.00    +0.000 HD
ENDBRANCH  10  16
ENDBRANCH   1   2
BRANCH   1  18
ATOM     18  O   UNL     1     -34.501  46.644 -13.577  0.00  0.00    +0.000 OA
BRANCH  18  19
ATOM     19  C   UNL     1     -33.663  45.922 -14.389  0.00  0.00    +0.000 C 
ATOM     20  C   UNL     1     -33.015  44.745 -14.009  0.00  0.00    +0.000 C 
ATOM     21  C   UNL     1     -32.187  44.077 -14.909  0.00  0.00    +0.000 C 
ATOM     22  C   UNL     1     -32.005  44.587 -16.191  0.00  0.00    +0.000 C 
ATOM     23  C   UNL     1     -32.649  45.761 -16.577  0.00  0.00    +0.000 C 
ATOM     24  C   UNL     1     -33.478  46.426 -15.676  0.00  0.00    +0.000 C 
ATOM     25  C   UNL     1     -31.160  43.905 -17.113  0.00  0.00    +0.000 C 
ATOM     26  C   UNL     1     -30.317  43.238 -18.030  0.00  0.00    +0.000 C 
ATOM     27  S   UNL     1     -30.216  41.529 -18.212  0.00  0.00    +0.000 S 
ATOM     28  C   UNL     1     -29.018  41.667 -19.483  0.00  0.00    +0.000 C 
ATOM     29  O   UNL     1     -28.522  40.718 -20.066  0.00  0.00    +0.000 OA
ATOM     30  N   UNL     1     -28.739  42.975 -19.714  0.00  0.00    +0.000 N 
ATOM     31  C   UNL     1     -29.403  43.911 -18.977  0.00  0.00    +0.000 C 
ATOM     32  H   UNL     1     -28.072  43.244 -20.419  0.00  0.00    +0.000 HD
ATOM     33  O   UNL     1     -29.262  45.117 -19.090  0.00  0.00    +0.000 OA
ENDBRANCH  18  19
ENDBRANCH   1  18
TORSDOF 4
ENDMDL
MODEL 5
REMARK VINA RESULT:      -7.0     21.353     24.248
REMARK  Name = Troglitazone.pdbqt.pdb
REMARK  4 active torsions:
REMARK  status: ('A' for Active; 'I' for Inactive)
REMARK    1  A    between atoms: C_1  and  O_2
REMARK    2  A    between atoms: C_1  and  C_18
REMARK    3  A    between atoms: O_2  and  C_3
REMARK    4  A    between atoms: C_26  and  O_32
REMARK                            x       y       z     vdW  Elec       q    Type
REMARK                         _______ _______ _______ _____ _____    ______ ____
ROOT
ATOM      1  C   UNL     1     -34.647  43.433 -10.298  0.00  0.00    +0.000 C 
ENDROOT
BRANCH   1   2
ATOM      2  C   UNL     1     -35.219  43.798  -8.991  0.00  0.00    +0.000 C 
ATOM      3  O   UNL     1     -34.117  43.779  -8.014  0.00  0.00    +0.000 OA
ATOM      4  C   UNL     1     -34.278  43.408  -6.673  0.00  0.00    +0.000 A 
ATOM      5  C   UNL     1     -35.361  42.616  -6.190  0.00  0.00    +0.000 A 
ATOM      6  C   UNL     1     -33.263  43.804  -5.777  0.00  0.00    +0.000 A 
ATOM      7  C   UNL     1     -36.314  42.261  -7.180  0.00  0.00    +0.000 C 
ATOM      8  C   UNL     1     -35.454  42.249  -4.842  0.00  0.00    +0.000 A 
ATOM      9  C   UNL     1     -36.227  42.842  -8.552  0.00  0.00    +0.000 C 
ATOM     10  C   UNL     1     -34.448  42.664  -3.957  0.00  0.00    +0.000 A 
ATOM     11  C   UNL     1     -36.615  41.408  -4.356  0.00  0.00    +0.000 C 
ATOM     12  C   UNL     1     -33.359  43.434  -4.417  0.00  0.00    +0.000 A 
ATOM     13  C   UNL     1     -32.317  43.815  -3.366  0.00  0.00    +0.000 C 
ATOM     14  C   UNL     1     -32.083  44.607  -6.312  0.00  0.00    +0.000 C 
ATOM     15  C   UNL     1     -35.785  45.240  -8.998  0.00  0.00    +0.000 C 
BRANCH  10  16
ATOM     16  O   UNL     1     -34.515  42.312  -2.618  0.00  0.00    +0.000 OA
ATOM     17  H   UNL     1     -34.525  43.136  -2.085  0.00  0.00    +0.000 HD
ENDBRANCH  10  16
ENDBRANCH   1   2
BRANCH   1  18
ATOM     18  O   UNL     1     -34.137  43.095 -11.483  0.00  0.00    +0.000 OA
BRANCH  18  19
ATOM     19  C   UNL     1     -34.311  44.033 -12.470  0.00  0.00    +0.000 C 
ATOM     20  C   UNL     1     -35.552  44.503 -12.904  0.00  0.00    +0.000 C 
ATOM     21  C   UNL     1     -35.627  45.463 -13.910  0.00  0.00    +0.000 C 
ATOM     22  C   UNL     1     -34.459  45.956 -14.485  0.00  0.00    +0.000 C 
ATOM     23  C   UNL     1     -33.217  45.492 -14.056  0.00  0.00    +0.000 C 
ATOM     24  C   UNL     1     -33.144  44.532 -13.049  0.00  0.00    +0.000 C 
ATOM     25  C   UNL     1     -34.533  46.939 -15.512  0.00  0.00    +0.000 C 
ATOM     26  C   UNL     1     -34.599  47.909 -16.538  0.00  0.00    +0.000 C 
ATOM     27  S   UNL     1     -35.705  49.229 -16.576  0.00  0.00    +0.000 S 
ATOM     28  C   UNL     1     -35.056  49.816 -18.094  0.00  0.00    +0.000 C 
ATOM     29  O   UNL     1     -35.458  50.811 -18.674  0.00  0.00    +0.000 OA
ATOM     30  N   UNL     1     -34.052  49.004 -18.511  0.00  0.00    +0.000 N 
ATOM     31  C   UNL     1     -33.721  47.940 -17.726  0.00  0.00    +0.000 C 
ATOM     32  H   UNL     1     -33.558  49.193 -19.369  0.00  0.00    +0.000 HD
ATOM     33  O   UNL     1     -32.833  47.141 -17.972  0.00  0.00    +0.000 OA
ENDBRANCH  18  19
ENDBRANCH   1  18
TORSDOF 4
ENDMDL
MODEL 6
REMARK VINA RESULT:      -7.0     23.079     26.131
REMARK  Name = Troglitazone.pdbqt.pdb
REMARK  4 active torsions:
REMARK  status: ('A' for Active; 'I' for Inactive)
REMARK    1  A    between atoms: C_1  and  O_2
REMARK    2  A    between atoms: C_1  and  C_18
REMARK    3  A    between atoms: O_2  and  C_3
REMARK    4  A    between atoms: C_26  and  O_32
REMARK                            x       y       z     vdW  Elec       q    Type
REMARK                         _______ _______ _______ _____ _____    ______ ____
ROOT
ATOM      1  C   UNL     1     -14.967  45.977   1.843  0.00  0.00    +0.000 C 
ENDROOT
BRANCH   1   2
ATOM      2  C   UNL     1     -16.066  46.537   2.649  0.00  0.00    +0.000 C 
ATOM      3  O   UNL     1     -16.028  47.999   2.476  0.00  0.00    +0.000 OA
ATOM      4  C   UNL     1     -16.384  48.906   3.482  0.00  0.00    +0.000 A 
ATOM      5  C   UNL     1     -16.404  48.587   4.872  0.00  0.00    +0.000 A 
ATOM      6  C   UNL     1     -16.680  50.224   3.075  0.00  0.00    +0.000 A 
ATOM      7  C   UNL     1     -16.074  47.239   5.168  0.00  0.00    +0.000 C 
ATOM      8  C   UNL     1     -16.738  49.544   5.837  0.00  0.00    +0.000 A 
ATOM      9  C   UNL     1     -15.904  46.246   4.068  0.00  0.00    +0.000 C 
ATOM     10  C   UNL     1     -17.048  50.848   5.419  0.00  0.00    +0.000 A 
ATOM     11  C   UNL     1     -16.751  49.179   7.306  0.00  0.00    +0.000 C 
ATOM     12  C   UNL     1     -17.019  51.188   4.050  0.00  0.00    +0.000 A 
ATOM     13  C   UNL     1     -17.358  52.640   3.715  0.00  0.00    +0.000 C 
ATOM     14  C   UNL     1     -16.606  50.568   1.592  0.00  0.00    +0.000 C 
ATOM     15  C   UNL     1     -17.448  46.062   2.137  0.00  0.00    +0.000 C 
BRANCH  10  16
ATOM     16  O   UNL     1     -17.379  51.814   6.354  0.00  0.00    +0.000 OA
ATOM     17  H   UNL     1     -18.019  51.422   6.987  0.00  0.00    +0.000 HD
ENDBRANCH  10  16
ENDBRANCH   1   2
BRANCH   1  18
ATOM     18  O   UNL     1     -13.969  45.463   1.122  0.00  0.00    +0.000 OA
BRANCH  18  19
ATOM     19  C   UNL     1     -13.598  46.219   0.038  0.00  0.00    +0.000 C 
ATOM     20  C   UNL     1     -12.894  47.422   0.118  0.00  0.00    +0.000 C 
ATOM     21  C   UNL     1     -12.555  48.116  -1.042  0.00  0.00    +0.000 C 
ATOM     22  C   UNL     1     -12.921  47.606  -2.285  0.00  0.00    +0.000 C 
ATOM     23  C   UNL     1     -13.624  46.406  -2.371  0.00  0.00    +0.000 C 
ATOM     24  C   UNL     1     -13.960  45.713  -1.210  0.00  0.00    +0.000 C 
ATOM     25  C   UNL     1     -12.574  48.312  -3.472  0.00  0.00    +0.000 C 
ATOM     26  C   UNL     1     -12.241  49.012  -4.653  0.00  0.00    +0.000 C 
ATOM     27  S   UNL     1     -10.748  49.825  -4.928  0.00  0.00    +0.000 S 
ATOM     28  C   UNL     1     -11.240  50.327  -6.534  0.00  0.00    +0.000 C 
ATOM     29  O   UNL     1     -10.545  50.982  -7.292  0.00  0.00    +0.000 OA
ATOM     30  N   UNL     1     -12.492  49.875  -6.794  0.00  0.00    +0.000 N 
ATOM     31  C   UNL     1     -13.121  49.139  -5.834  0.00  0.00    +0.000 C 
ATOM     32  H   UNL     1     -12.937  50.067  -7.678  0.00  0.00    +0.000 HD
ATOM     33  O   UNL     1     -14.237  48.660  -5.940  0.00  0.00    +0.000 OA
ENDBRANCH  18  19
ENDBRANCH   1  18
TORSDOF 4
ENDMDL
MODEL 7
REMARK VINA RESULT:      -7.0     18.395     20.656
REMARK  Name = Troglitazone.pdbqt.pdb
REMARK  4 active torsions:
REMARK  status: ('A' for Active; 'I' for Inactive)
REMARK    1  A    between atoms: C_1  and  O_2
REMARK    2  A    between atoms: C_1  and  C_18
REMARK    3  A    between atoms: O_2  and  C_3
REMARK    4  A    between atoms: C_26  and  O_32
REMARK                            x       y       z     vdW  Elec       q    Type
REMARK                         _______ _______ _______ _____ _____    ______ ____
ROOT
ATOM      1  C   UNL     1     -36.873  51.132 -21.877  0.00  0.00    +0.000 C 
ENDROOT
BRANCH   1   2
ATOM      2  C   UNL     1     -38.099  51.883 -21.557  0.00  0.00    +0.000 C 
ATOM      3  O   UNL     1     -37.836  53.297 -21.876  0.00  0.00    +0.000 OA
ATOM      4  C   UNL     1     -38.387  54.367 -21.161  0.00  0.00    +0.000 A 
ATOM      5  C   UNL     1     -38.890  54.261 -19.830  0.00  0.00    +0.000 A 
ATOM      6  C   UNL     1     -38.379  55.628 -21.794  0.00  0.00    +0.000 A 
ATOM      7  C   UNL     1     -38.834  52.952 -19.286  0.00  0.00    +0.000 C 
ATOM      8  C   UNL     1     -39.402  55.373 -19.151  0.00  0.00    +0.000 A 
ATOM      9  C   UNL     1     -38.436  51.796 -20.142  0.00  0.00    +0.000 C 
ATOM     10  C   UNL     1     -39.406  56.619 -19.798  0.00  0.00    +0.000 A 
ATOM     11  C   UNL     1     -39.930  55.232 -17.739  0.00  0.00    +0.000 C 
ATOM     12  C   UNL     1     -38.898  56.748 -21.108  0.00  0.00    +0.000 A 
ATOM     13  C   UNL     1     -38.938  58.155 -21.705  0.00  0.00    +0.000 C 
ATOM     14  C   UNL     1     -37.793  55.741 -23.196  0.00  0.00    +0.000 C 
ATOM     15  C   UNL     1     -39.288  51.438 -22.443  0.00  0.00    +0.000 C 
BRANCH  10  16
ATOM     16  O   UNL     1     -39.904  57.735 -19.148  0.00  0.00    +0.000 OA
ATOM     17  H   UNL     1     -40.795  57.514 -18.798  0.00  0.00    +0.000 HD
ENDBRANCH  10  16
ENDBRANCH   1   2
BRANCH   1  18
ATOM     18  O   UNL     1     -35.763  50.455 -22.177  0.00  0.00    +0.000 OA
BRANCH  18  19
ATOM     19  C   UNL     1     -35.253  49.706 -21.147  0.00  0.00    +0.000 C 
ATOM     20  C   UNL     1     -35.127  50.154 -19.830  0.00  0.00    +0.000 C 
ATOM     21  C   UNL     1     -34.602  49.315 -18.850  0.00  0.00    +0.000 C 
ATOM     22  C   UNL     1     -34.200  48.025 -19.186  0.00  0.00    +0.000 C 
ATOM     23  C   UNL     1     -34.322  47.572 -20.497  0.00  0.00    +0.000 C 
ATOM     24  C   UNL     1     -34.849  48.412 -21.476  0.00  0.00    +0.000 C 
ATOM     25  C   UNL     1     -33.664  47.166 -18.185  0.00  0.00    +0.000 C 
ATOM     26  C   UNL     1     -33.124  46.310 -17.199  0.00  0.00    +0.000 C 
ATOM     27  S   UNL     1     -33.695  46.190 -15.578  0.00  0.00    +0.000 S 
ATOM     28  C   UNL     1     -32.503  44.969 -15.177  0.00  0.00    +0.000 C 
ATOM     29  O   UNL     1     -32.402  44.442 -14.083  0.00  0.00    +0.000 OA
ATOM     30  N   UNL     1     -31.730  44.707 -16.260  0.00  0.00    +0.000 N 
ATOM     31  C   UNL     1     -31.994  45.382 -17.415  0.00  0.00    +0.000 C 
ATOM     32  H   UNL     1     -30.991  44.023 -16.214  0.00  0.00    +0.000 HD
ATOM     33  O   UNL     1     -31.390  45.234 -18.464  0.00  0.00    +0.000 OA
ENDBRANCH  18  19
ENDBRANCH   1  18
TORSDOF 4
ENDMDL
MODEL 8
REMARK VINA RESULT:      -6.9      6.547     10.826
REMARK  Name = Troglitazone.pdbqt.pdb
REMARK  4 active torsions:
REMARK  status: ('A' for Active; 'I' for Inactive)
REMARK    1  A    between atoms: C_1  and  O_2
REMARK    2  A    between atoms: C_1  and  C_18
REMARK    3  A    between atoms: O_2  and  C_3
REMARK    4  A    between atoms: C_26  and  O_32
REMARK                            x       y       z     vdW  Elec       q    Type
REMARK                         _______ _______ _______ _____ _____    ______ ____
ROOT
ATOM      1  C   UNL     1     -16.629  57.663 -24.775  0.00  0.00    +0.000 C 
ENDROOT
BRANCH   1   2
ATOM      2  C   UNL     1     -16.275  56.769 -25.891  0.00  0.00    +0.000 C 
ATOM      3  O   UNL     1     -17.332  56.906 -26.908  0.00  0.00    +0.000 OA
ATOM      4  C   UNL     1     -17.754  55.854 -27.731  0.00  0.00    +0.000 A 
ATOM      5  C   UNL     1     -17.555  54.475 -27.426  0.00  0.00    +0.000 A 
ATOM      6  C   UNL     1     -18.467  56.206 -28.896  0.00  0.00    +0.000 A 
ATOM      7  C   UNL     1     -16.842  54.238 -26.223  0.00  0.00    +0.000 C 
ATOM      8  C   UNL     1     -18.027  53.464 -28.273  0.00  0.00    +0.000 A 
ATOM      9  C   UNL     1     -16.226  55.373 -25.476  0.00  0.00    +0.000 C 
ATOM     10  C   UNL     1     -18.719  53.826 -29.439  0.00  0.00    +0.000 A 
ATOM     11  C   UNL     1     -17.803  52.008 -27.925  0.00  0.00    +0.000 C 
ATOM     12  C   UNL     1     -18.940  55.185 -29.750  0.00  0.00    +0.000 A 
ATOM     13  C   UNL     1     -19.719  55.458 -31.037  0.00  0.00    +0.000 C 
ATOM     14  C   UNL     1     -18.718  57.680 -29.187  0.00  0.00    +0.000 C 
ATOM     15  C   UNL     1     -14.948  57.197 -26.566  0.00  0.00    +0.000 C 
BRANCH  10  16
ATOM     16  O   UNL     1     -19.198  52.845 -30.292  0.00  0.00    +0.000 OA
ATOM     17  H   UNL     1     -18.464  52.567 -30.882  0.00  0.00    +0.000 HD
ENDBRANCH  10  16
ENDBRANCH   1   2
BRANCH   1  18
ATOM     18  O   UNL     1     -16.939  58.473 -23.762  0.00  0.00    +0.000 OA
BRANCH  18  19
ATOM     19  C   UNL     1     -16.472  58.064 -22.537  0.00  0.00    +0.000 C 
ATOM     20  C   UNL     1     -15.738  58.867 -21.662  0.00  0.00    +0.000 C 
ATOM     21  C   UNL     1     -15.314  58.363 -20.435  0.00  0.00    +0.000 C 
ATOM     22  C   UNL     1     -15.623  57.052 -20.081  0.00  0.00    +0.000 C 
ATOM     23  C   UNL     1     -16.354  56.245 -20.950  0.00  0.00    +0.000 C 
ATOM     24  C   UNL     1     -16.779  56.752 -22.176  0.00  0.00    +0.000 C 
ATOM     25  C   UNL     1     -15.191  56.535 -18.827  0.00  0.00    +0.000 C 
ATOM     26  C   UNL     1     -14.759  56.013 -17.587  0.00  0.00    +0.000 C 
ATOM     27  S   UNL     1     -14.748  56.883 -16.101  0.00  0.00    +0.000 S 
ATOM     28  C   UNL     1     -14.113  55.507 -15.221  0.00  0.00    +0.000 C 
ATOM     29  O   UNL     1     -13.880  55.505 -14.024  0.00  0.00    +0.000 OA
ATOM     30  N   UNL     1     -13.931  54.463 -16.068  0.00  0.00    +0.000 N 
ATOM     31  C   UNL     1     -14.262  54.636 -17.379  0.00  0.00    +0.000 C 
ATOM     32  H   UNL     1     -13.575  53.582 -15.732  0.00  0.00    +0.000 HD
ATOM     33  O   UNL     1     -14.164  53.781 -18.243  0.00  0.00    +0.000 OA
ENDBRANCH  18  19
ENDBRANCH   1  18
TORSDOF 4
ENDMDL
MODEL 9
REMARK VINA RESULT:      -6.9     17.843     20.820
REMARK  Name = Troglitazone.pdbqt.pdb
REMARK  4 active torsions:
REMARK  status: ('A' for Active; 'I' for Inactive)
REMARK    1  A    between atoms: C_1  and  O_2
REMARK    2  A    between atoms: C_1  and  C_18
REMARK    3  A    between atoms: O_2  and  C_3
REMARK    4  A    between atoms: C_26  and  O_32
REMARK                            x       y       z     vdW  Elec       q    Type
REMARK                         _______ _______ _______ _____ _____    ______ ____
ROOT
ATOM      1  C   UNL     1     -33.963  45.729 -14.094  0.00  0.00    +0.000 C 
ENDROOT
BRANCH   1   2
ATOM      2  C   UNL     1     -34.426  45.035 -12.880  0.00  0.00    +0.000 C 
ATOM      3  O   UNL     1     -35.329  45.958 -12.170  0.00  0.00    +0.000 OA
ATOM      4  C   UNL     1     -35.441  46.009 -10.775  0.00  0.00    +0.000 A 
ATOM      5  C   UNL     1     -34.444  45.527  -9.877  0.00  0.00    +0.000 A 
ATOM      6  C   UNL     1     -36.594  46.633 -10.253  0.00  0.00    +0.000 A 
ATOM      7  C   UNL     1     -33.322  44.934 -10.512  0.00  0.00    +0.000 C 
ATOM      8  C   UNL     1     -34.596  45.634  -8.490  0.00  0.00    +0.000 A 
ATOM      9  C   UNL     1     -33.323  44.706 -11.987  0.00  0.00    +0.000 C 
ATOM     10  C   UNL     1     -35.756  46.239  -7.981  0.00  0.00    +0.000 A 
ATOM     11  C   UNL     1     -33.522  45.113  -7.559  0.00  0.00    +0.000 C 
ATOM     12  C   UNL     1     -36.747  46.737  -8.853  0.00  0.00    +0.000 A 
ATOM     13  C   UNL     1     -37.957  47.391  -8.185  0.00  0.00    +0.000 C 
ATOM     14  C   UNL     1     -37.630  47.191 -11.221  0.00  0.00    +0.000 C 
ATOM     15  C   UNL     1     -35.258  43.775 -13.227  0.00  0.00    +0.000 C 
BRANCH  10  16
ATOM     16  O   UNL     1     -35.930  46.359  -6.612  0.00  0.00    +0.000 OA
ATOM     17  H   UNL     1     -36.835  46.051  -6.390  0.00  0.00    +0.000 HD
ENDBRANCH  10  16
ENDBRANCH   1   2
BRANCH   1  18
ATOM     18  O   UNL     1     -33.553  46.355 -15.198  0.00  0.00    +0.000 OA
BRANCH  18  19
ATOM     19  C   UNL     1     -32.725  45.612 -16.003  0.00  0.00    +0.000 C 
ATOM     20  C   UNL     1     -32.914  45.425 -17.373  0.00  0.00    +0.000 C 
ATOM     21  C   UNL     1     -32.013  44.658 -18.109  0.00  0.00    +0.000 C 
ATOM     22  C   UNL     1     -30.920  44.075 -17.473  0.00  0.00    +0.000 C 
ATOM     23  C   UNL     1     -30.726  44.258 -16.105  0.00  0.00    +0.000 C 
ATOM     24  C   UNL     1     -31.627  45.027 -15.372  0.00  0.00    +0.000 C 
ATOM     25  C   UNL     1     -29.997  43.292 -18.222  0.00  0.00    +0.000 C 
ATOM     26  C   UNL     1     -29.082  42.506 -18.959  0.00  0.00    +0.000 C 
ATOM     27  S   UNL     1     -28.530  42.869 -20.549  0.00  0.00    +0.000 S 
ATOM     28  C   UNL     1     -27.508  41.446 -20.591  0.00  0.00    +0.000 C 
ATOM     29  O   UNL     1     -26.800  41.136 -21.535  0.00  0.00    +0.000 OA
ATOM     30  N   UNL     1     -27.625  40.760 -19.426  0.00  0.00    +0.000 N 
ATOM     31  C   UNL     1     -28.454  41.262 -18.468  0.00  0.00    +0.000 C 
ATOM     32  H   UNL     1     -27.102  39.912 -19.272  0.00  0.00    +0.000 HD
ATOM     33  O   UNL     1     -28.641  40.759 -17.373  0.00  0.00    +0.000 OA
ENDBRANCH  18  19
ENDBRANCH   1  18
TORSDOF 4
ENDMDL
