MODEL 1
REMARK VINA RESULT:      -6.4      0.000      0.000
REMARK  Name = 
REMARK  19 active torsions:
REMARK  status: ('A' for Active; 'I' for Inactive)
REMARK    1  A    between atoms: O_1  and  C_20
REMARK    2  A    between atoms: O_1  and  C_36
REMARK    3  A    between atoms: O_2  and  C_18
REMARK    4  A    between atoms: O_3  and  C_28
REMARK    5  A    between atoms: O_3  and  C_42
REMARK    6  A    between atoms: O_5  and  C_34
REMARK    7  A    between atoms: O_5  and  C_50
REMARK    8  A    between atoms: O_7  and  C_40
REMARK    9  A    between atoms: O_7  and  C_56
REMARK   10  A    between atoms: O_9  and  C_46
REMARK   11  A    between atoms: N_11  and  C_30
REMARK   12  A    between atoms: C_17  and  C_23
REMARK   13  A    between atoms: C_18  and  C_28
REMARK   14  A    between atoms: C_23  and  C_32
REMARK   15  A    between atoms: C_33  and  C_35
REMARK   16  A    between atoms: C_35  and  C_40
REMARK   17  A    between atoms: C_36  and  C_41
REMARK   18  A    between atoms: C_46  and  C_53
REMARK   19  A    between atoms: C_53  and  C_57
REMARK                            x       y       z     vdW  Elec       q    Type
REMARK                         _______ _______ _______ _____ _____    ______ ____
ROOT
ATOM      1  N   UNL     1     -39.022  46.703  -9.947  0.00  0.00    +0.000 NA
ATOM      2  N   UNL     1     -34.513  45.140  -9.995  0.00  0.00    +0.000 N 
ATOM      3  C   UNL     1     -36.831  45.907  -9.952  0.00  0.00    +0.000 C 
ATOM      4  C   UNL     1     -38.289  45.428  -9.847  0.00  0.00    +0.000 C 
ATOM      5  C   UNL     1     -35.865  44.813  -9.453  0.00  0.00    +0.000 C 
ATOM      6  C   UNL     1     -38.575  44.518  -8.564  0.00  0.00    +0.000 C 
ATOM      7  C   UNL     1     -35.991  44.433  -7.968  0.00  0.00    +0.000 C 
ATOM      8  C   UNL     1     -36.821  47.304  -9.301  0.00  0.00    +0.000 C 
ATOM      9  C   UNL     1     -37.450  44.641  -7.444  0.00  0.00    +0.000 C 
ATOM     10  C   UNL     1     -36.216  46.067 -11.329  0.00  0.00    +0.000 A 
ATOM     11  C   UNL     1     -38.288  47.711  -9.190  0.00  0.00    +0.000 C 
ATOM     12  C   UNL     1     -34.874  45.667 -11.273  0.00  0.00    +0.000 A 
ATOM     13  C   UNL     1     -39.916  44.869  -7.914  0.00  0.00    +0.000 C 
ATOM     14  C   UNL     1     -40.436  46.623  -9.614  0.00  0.00    +0.000 C 
ATOM     15  C   UNL     1     -40.743  45.804  -8.403  0.00  0.00    +0.000 C 
ATOM     16  C   UNL     1     -36.786  46.574 -12.492  0.00  0.00    +0.000 A 
ATOM     17  C   UNL     1     -33.525  44.063 -10.040  0.00  0.00    +0.000 C 
ATOM     18  C   UNL     1     -34.072  45.812 -12.389  0.00  0.00    +0.000 A 
ATOM     19  C   UNL     1     -35.997  46.730 -13.648  0.00  0.00    +0.000 A 
ATOM     20  C   UNL     1     -34.626  46.347 -13.564  0.00  0.00    +0.000 A 
ENDROOT
BRANCH  19  23
ATOM     21  N   UNL     1     -37.559  49.156 -18.772  0.00  0.00    +0.000 NA
ATOM     22  N   UNL     1     -36.548  44.921 -15.799  0.00  0.00    +0.000 N 
ATOM     23  C   UNL     1     -36.586  47.325 -14.990  0.00  0.00    +0.000 C 
ATOM     24  C   UNL     1     -35.472  48.124 -15.809  0.00  0.00    +0.000 C 
ATOM     25  C   UNL     1     -37.109  46.181 -15.924  0.00  0.00    +0.000 A 
ATOM     26  C   UNL     1     -35.793  48.456 -17.276  0.00  0.00    +0.000 C 
ATOM     27  C   UNL     1     -34.640  49.081 -18.060  0.00  0.00    +0.000 C 
ATOM     28  C   UNL     1     -36.984  49.386 -17.458  0.00  0.00    +0.000 C 
ATOM     29  C   UNL     1     -38.005  46.103 -17.005  0.00  0.00    +0.000 A 
ATOM     30  C   UNL     1     -35.033  49.351 -19.543  0.00  0.00    +0.000 C 
ATOM     31  C   UNL     1     -36.585  49.463 -19.842  0.00  0.00    +0.000 C 
ATOM     32  C   UNL     1     -38.857  47.164 -17.682  0.00  0.00    +0.000 C 
ATOM     33  C   UNL     1     -38.187  47.818 -18.928  0.00  0.00    +0.000 C 
ATOM     34  C   UNL     1     -37.982  44.735 -17.471  0.00  0.00    +0.000 A 
ATOM     35  C   UNL     1     -37.069  44.034 -16.698  0.00  0.00    +0.000 A 
ATOM     36  C   UNL     1     -38.653  44.038 -18.502  0.00  0.00    +0.000 A 
ATOM     37  C   UNL     1     -36.790  42.674 -16.885  0.00  0.00    +0.000 A 
ATOM     38  C   UNL     1     -38.391  42.678 -18.705  0.00  0.00    +0.000 A 
ATOM     39  C   UNL     1     -37.471  42.008 -17.906  0.00  0.00    +0.000 A 
ATOM     40  H   UNL     1     -35.849  44.671 -15.112  0.00  0.00    +0.000 HD
BRANCH  23  42
ATOM     41  O   UNL     1     -38.929  48.048 -14.478  0.00  0.00    +0.000 OA
ATOM     42  C   UNL     1     -37.731  48.291 -14.538  0.00  0.00    +0.000 C 
BRANCH  42  43
ATOM     43  O   UNL     1     -37.199  49.504 -14.167  0.00  0.00    +0.000 OA
ATOM     44  C   UNL     1     -38.146  50.573 -14.157  0.00  0.00    +0.000 C 
ENDBRANCH  42  43
ENDBRANCH  23  42
BRANCH  30  45
ATOM     45  O   UNL     1     -34.441  50.634 -19.867  0.00  0.00    +0.000 OA
ATOM     46  H   UNL     1     -34.790  51.284 -19.231  0.00  0.00    +0.000 HD
ENDBRANCH  30  45
BRANCH  30  47
ATOM     47  C   UNL     1     -34.331  48.366 -20.506  0.00  0.00    +0.000 C 
ATOM     48  C   UNL     1     -34.884  46.952 -20.553  0.00  0.00    +0.000 C 
ENDBRANCH  30  47
ENDBRANCH  19  23
BRANCH   7  49
ATOM     49  O   UNL     1     -35.744  42.991  -7.913  0.00  0.00    +0.000 OA
ATOM     50  H   UNL     1     -34.772  42.886  -7.858  0.00  0.00    +0.000 HD
ENDBRANCH   7  49
BRANCH   7  52
ATOM     51  O   UNL     1     -34.776  46.351  -6.962  0.00  0.00    +0.000 OA
ATOM     52  C   UNL     1     -34.936  45.144  -7.084  0.00  0.00    +0.000 C 
BRANCH  52  53
ATOM     53  O   UNL     1     -34.229  44.209  -6.368  0.00  0.00    +0.000 OA
ATOM     54  C   UNL     1     -32.852  44.540  -6.182  0.00  0.00    +0.000 C 
ENDBRANCH  52  53
ENDBRANCH   7  52
BRANCH  20  55
ATOM     55  O   UNL     1     -33.871  46.462 -14.704  0.00  0.00    +0.000 OA
ATOM     56  C   UNL     1     -33.045  45.340 -15.001  0.00  0.00    +0.000 C 
ENDBRANCH  20  55
BRANCH   6  57
ATOM     57  C   UNL     1     -38.683  43.010  -8.998  0.00  0.00    +0.000 C 
ATOM     58  C   UNL     1     -38.810  42.739 -10.498  0.00  0.00    +0.000 C 
ENDBRANCH   6  57
BRANCH   9  59
ATOM     59  O   UNL     1     -37.612  45.916  -6.778  0.00  0.00    +0.000 OA
BRANCH  59  61
ATOM     60  O   UNL     1     -37.721  45.033  -4.667  0.00  0.00    +0.000 OA
ATOM     61  C   UNL     1     -38.024  45.893  -5.482  0.00  0.00    +0.000 C 
ATOM     62  C   UNL     1     -38.872  47.091  -5.188  0.00  0.00    +0.000 C 
ENDBRANCH  59  61
ENDBRANCH   9  59
TORSDOF 12
ENDMDL
MODEL 2
REMARK VINA RESULT:      -6.1      3.481     10.764
REMARK  Name = 
REMARK  19 active torsions:
REMARK  status: ('A' for Active; 'I' for Inactive)
REMARK    1  A    between atoms: O_1  and  C_20
REMARK    2  A    between atoms: O_1  and  C_36
REMARK    3  A    between atoms: O_2  and  C_18
REMARK    4  A    between atoms: O_3  and  C_28
REMARK    5  A    between atoms: O_3  and  C_42
REMARK    6  A    between atoms: O_5  and  C_34
REMARK    7  A    between atoms: O_5  and  C_50
REMARK    8  A    between atoms: O_7  and  C_40
REMARK    9  A    between atoms: O_7  and  C_56
REMARK   10  A    between atoms: O_9  and  C_46
REMARK   11  A    between atoms: N_11  and  C_30
REMARK   12  A    between atoms: C_17  and  C_23
REMARK   13  A    between atoms: C_18  and  C_28
REMARK   14  A    between atoms: C_23  and  C_32
REMARK   15  A    between atoms: C_33  and  C_35
REMARK   16  A    between atoms: C_35  and  C_40
REMARK   17  A    between atoms: C_36  and  C_41
REMARK   18  A    between atoms: C_46  and  C_53
REMARK   19  A    between atoms: C_53  and  C_57
REMARK                            x       y       z     vdW  Elec       q    Type
REMARK                         _______ _______ _______ _____ _____    ______ ____
ROOT
ATOM      1  N   UNL     1     -33.377  42.776 -14.832  0.00  0.00    +0.000 NA
ATOM      2  N   UNL     1     -36.219  46.247 -13.204  0.00  0.00    +0.000 N 
ATOM      3  C   UNL     1     -34.784  44.472 -14.071  0.00  0.00    +0.000 C 
ATOM      4  C   UNL     1     -34.700  43.357 -15.128  0.00  0.00    +0.000 C 
ATOM      5  C   UNL     1     -35.881  45.488 -14.445  0.00  0.00    +0.000 C 
ATOM      6  C   UNL     1     -34.958  43.865 -16.621  0.00  0.00    +0.000 C 
ATOM      7  C   UNL     1     -35.655  46.272 -15.748  0.00  0.00    +0.000 C 
ATOM      8  C   UNL     1     -33.330  44.942 -13.869  0.00  0.00    +0.000 C 
ATOM      9  C   UNL     1     -34.819  45.444 -16.779  0.00  0.00    +0.000 C 
ATOM     10  C   UNL     1     -35.323  44.131 -12.695  0.00  0.00    +0.000 A 
ATOM     11  C   UNL     1     -32.462  43.866 -14.515  0.00  0.00    +0.000 C 
ATOM     12  C   UNL     1     -36.087  45.210 -12.230  0.00  0.00    +0.000 A 
ATOM     13  C   UNL     1     -33.990  43.214 -17.612  0.00  0.00    +0.000 C 
ATOM     14  C   UNL     1     -32.876  41.853 -15.839  0.00  0.00    +0.000 C 
ATOM     15  C   UNL     1     -33.074  42.306 -17.249  0.00  0.00    +0.000 C 
ATOM     16  C   UNL     1     -35.102  42.997 -11.921  0.00  0.00    +0.000 A 
ATOM     17  C   UNL     1     -37.500  46.952 -13.171  0.00  0.00    +0.000 C 
ATOM     18  C   UNL     1     -36.609  45.175 -10.951  0.00  0.00    +0.000 A 
ATOM     19  C   UNL     1     -35.624  42.928 -10.615  0.00  0.00    +0.000 A 
ATOM     20  C   UNL     1     -36.372  44.048 -10.147  0.00  0.00    +0.000 A 
ENDROOT
BRANCH  19  23
ATOM     21  N   UNL     1     -34.259  38.068  -7.600  0.00  0.00    +0.000 NA
ATOM     22  N   UNL     1     -34.073  43.298  -8.237  0.00  0.00    +0.000 N 
ATOM     23  C   UNL     1     -35.381  41.675  -9.682  0.00  0.00    +0.000 C 
ATOM     24  C   UNL     1     -34.333  40.660 -10.333  0.00  0.00    +0.000 C 
ATOM     25  C   UNL     1     -34.793  42.116  -8.299  0.00  0.00    +0.000 A 
ATOM     26  C   UNL     1     -33.737  39.587  -9.407  0.00  0.00    +0.000 C 
ATOM     27  C   UNL     1     -32.627  38.743 -10.032  0.00  0.00    +0.000 C 
ATOM     28  C   UNL     1     -34.759  38.605  -8.854  0.00  0.00    +0.000 C 
ATOM     29  C   UNL     1     -34.715  41.545  -7.016  0.00  0.00    +0.000 A 
ATOM     30  C   UNL     1     -32.053  37.708  -9.019  0.00  0.00    +0.000 C 
ATOM     31  C   UNL     1     -32.993  37.330  -7.802  0.00  0.00    +0.000 C 
ATOM     32  C   UNL     1     -35.227  40.220  -6.474  0.00  0.00    +0.000 C 
ATOM     33  C   UNL     1     -34.175  39.071  -6.507  0.00  0.00    +0.000 C 
ATOM     34  C   UNL     1     -33.967  42.466  -6.191  0.00  0.00    +0.000 A 
ATOM     35  C   UNL     1     -33.587  43.539  -6.982  0.00  0.00    +0.000 A 
ATOM     36  C   UNL     1     -33.564  42.465  -4.836  0.00  0.00    +0.000 A 
ATOM     37  C   UNL     1     -32.837  44.620  -6.502  0.00  0.00    +0.000 A 
ATOM     38  C   UNL     1     -32.815  43.536  -4.334  0.00  0.00    +0.000 A 
ATOM     39  C   UNL     1     -32.458  44.598  -5.157  0.00  0.00    +0.000 A 
ATOM     40  H   UNL     1     -33.935  43.927  -9.017  0.00  0.00    +0.000 HD
BRANCH  23  42
ATOM     41  O   UNL     1     -37.519  41.004  -8.561  0.00  0.00    +0.000 OA
ATOM     42  C   UNL     1     -36.783  40.995  -9.540  0.00  0.00    +0.000 C 
BRANCH  42  43
ATOM     43  O   UNL     1     -37.125  40.377 -10.720  0.00  0.00    +0.000 OA
ATOM     44  C   UNL     1     -38.481  40.587 -11.113  0.00  0.00    +0.000 C 
ENDBRANCH  42  43
ENDBRANCH  23  42
BRANCH  30  45
ATOM     45  O   UNL     1     -31.841  36.498  -9.789  0.00  0.00    +0.000 OA
ATOM     46  H   UNL     1     -30.966  36.147  -9.543  0.00  0.00    +0.000 HD
ENDBRANCH  30  45
BRANCH  30  47
ATOM     47  C   UNL     1     -30.633  38.101  -8.549  0.00  0.00    +0.000 C 
ATOM     48  C   UNL     1     -29.705  38.681  -9.603  0.00  0.00    +0.000 C 
ENDBRANCH  30  47
ENDBRANCH  19  23
BRANCH   7  49
ATOM     49  O   UNL     1     -36.984  46.433 -16.343  0.00  0.00    +0.000 OA
ATOM     50  H   UNL     1     -37.568  45.806 -15.869  0.00  0.00    +0.000 HD
ENDBRANCH   7  49
BRANCH   7  52
ATOM     51  O   UNL     1     -34.010  47.939 -14.924  0.00  0.00    +0.000 OA
ATOM     52  C   UNL     1     -35.059  47.680 -15.496  0.00  0.00    +0.000 C 
BRANCH  52  53
ATOM     53  O   UNL     1     -35.854  48.630 -16.091  0.00  0.00    +0.000 OA
ATOM     54  C   UNL     1     -36.431  49.560 -15.173  0.00  0.00    +0.000 C 
ENDBRANCH  52  53
ENDBRANCH   7  52
BRANCH  20  55
ATOM     55  O   UNL     1     -36.913  43.960  -8.889  0.00  0.00    +0.000 OA
ATOM     56  C   UNL     1     -37.395  45.187  -8.348  0.00  0.00    +0.000 C 
ENDBRANCH  20  55
BRANCH   6  57
ATOM     57  C   UNL     1     -36.402  43.444 -17.081  0.00  0.00    +0.000 C 
ATOM     58  C   UNL     1     -37.123  42.415 -16.208  0.00  0.00    +0.000 C 
ENDBRANCH   6  57
BRANCH   9  59
ATOM     59  O   UNL     1     -33.412  45.781 -16.734  0.00  0.00    +0.000 OA
BRANCH  59  61
ATOM     60  O   UNL     1     -31.708  45.689 -18.263  0.00  0.00    +0.000 OA
ATOM     61  C   UNL     1     -32.809  46.091 -17.913  0.00  0.00    +0.000 C 
ATOM     62  C   UNL     1     -33.703  46.967 -18.735  0.00  0.00    +0.000 C 
ENDBRANCH  59  61
ENDBRANCH   9  59
TORSDOF 12
ENDMDL
MODEL 3
REMARK VINA RESULT:      -6.0      2.777      9.864
REMARK  Name = 
REMARK  19 active torsions:
REMARK  status: ('A' for Active; 'I' for Inactive)
REMARK    1  A    between atoms: O_1  and  C_20
REMARK    2  A    between atoms: O_1  and  C_36
REMARK    3  A    between atoms: O_2  and  C_18
REMARK    4  A    between atoms: O_3  and  C_28
REMARK    5  A    between atoms: O_3  and  C_42
REMARK    6  A    between atoms: O_5  and  C_34
REMARK    7  A    between atoms: O_5  and  C_50
REMARK    8  A    between atoms: O_7  and  C_40
REMARK    9  A    between atoms: O_7  and  C_56
REMARK   10  A    between atoms: O_9  and  C_46
REMARK   11  A    between atoms: N_11  and  C_30
REMARK   12  A    between atoms: C_17  and  C_23
REMARK   13  A    between atoms: C_18  and  C_28
REMARK   14  A    between atoms: C_23  and  C_32
REMARK   15  A    between atoms: C_33  and  C_35
REMARK   16  A    between atoms: C_35  and  C_40
REMARK   17  A    between atoms: C_36  and  C_41
REMARK   18  A    between atoms: C_46  and  C_53
REMARK   19  A    between atoms: C_53  and  C_57
REMARK                            x       y       z     vdW  Elec       q    Type
REMARK                         _______ _______ _______ _____ _____    ______ ____
ROOT
ATOM      1  N   UNL     1     -39.832  47.886 -16.466  0.00  0.00    +0.000 NA
ATOM      2  N   UNL     1     -35.481  49.230 -17.892  0.00  0.00    +0.000 N 
ATOM      3  C   UNL     1     -37.718  48.580 -17.162  0.00  0.00    +0.000 C 
ATOM      4  C   UNL     1     -38.975  49.086 -16.433  0.00  0.00    +0.000 C 
ATOM      5  C   UNL     1     -36.848  49.766 -17.625  0.00  0.00    +0.000 C 
ATOM      6  C   UNL     1     -39.577  50.432 -17.050  0.00  0.00    +0.000 C 
ATOM      7  C   UNL     1     -37.488  50.702 -18.663  0.00  0.00    +0.000 C 
ATOM      8  C   UNL     1     -38.236  47.553 -18.187  0.00  0.00    +0.000 C 
ATOM      9  C   UNL     1     -39.045  50.742 -18.518  0.00  0.00    +0.000 C 
ATOM     10  C   UNL     1     -36.642  47.880 -16.354  0.00  0.00    +0.000 A 
ATOM     11  C   UNL     1     -39.671  47.247 -17.766  0.00  0.00    +0.000 C 
ATOM     12  C   UNL     1     -35.387  48.247 -16.859  0.00  0.00    +0.000 A 
ATOM     13  C   UNL     1     -41.106  50.388 -17.111  0.00  0.00    +0.000 C 
ATOM     14  C   UNL     1     -41.217  48.114 -16.083  0.00  0.00    +0.000 C 
ATOM     15  C   UNL     1     -41.826  49.350 -16.663  0.00  0.00    +0.000 C 
ATOM     16  C   UNL     1     -36.779  46.965 -15.316  0.00  0.00    +0.000 A 
ATOM     17  C   UNL     1     -34.375  50.186 -17.923  0.00  0.00    +0.000 C 
ATOM     18  C   UNL     1     -34.247  47.661 -16.345  0.00  0.00    +0.000 A 
ATOM     19  C   UNL     1     -35.636  46.353 -14.766  0.00  0.00    +0.000 A 
ATOM     20  C   UNL     1     -34.369  46.715 -15.314  0.00  0.00    +0.000 A 
ENDROOT
BRANCH  19  23
ATOM     21  N   UNL     1     -35.389  42.601 -10.246  0.00  0.00    +0.000 NA
ATOM     22  N   UNL     1     -37.278  46.973 -12.505  0.00  0.00    +0.000 N 
ATOM     23  C   UNL     1     -35.734  45.287 -13.603  0.00  0.00    +0.000 C 
ATOM     24  C   UNL     1     -34.389  45.238 -12.743  0.00  0.00    +0.000 C 
ATOM     25  C   UNL     1     -36.896  45.647 -12.615  0.00  0.00    +0.000 A 
ATOM     26  C   UNL     1     -34.455  44.517 -11.387  0.00  0.00    +0.000 C 
ATOM     27  C   UNL     1     -33.192  44.632 -10.535  0.00  0.00    +0.000 C 
ATOM     28  C   UNL     1     -34.768  43.031 -11.486  0.00  0.00    +0.000 C 
ATOM     29  C   UNL     1     -37.657  44.942 -11.665  0.00  0.00    +0.000 A 
ATOM     30  C   UNL     1     -33.355  43.908  -9.165  0.00  0.00    +0.000 C 
ATOM     31  C   UNL     1     -34.474  42.789  -9.098  0.00  0.00    +0.000 C 
ATOM     32  C   UNL     1     -37.638  43.480 -11.248  0.00  0.00    +0.000 C 
ATOM     33  C   UNL     1     -36.736  43.183 -10.012  0.00  0.00    +0.000 C 
ATOM     34  C   UNL     1     -38.535  45.900 -11.035  0.00  0.00    +0.000 A 
ATOM     35  C   UNL     1     -38.272  47.147 -11.582  0.00  0.00    +0.000 A 
ATOM     36  C   UNL     1     -39.523  45.813 -10.028  0.00  0.00    +0.000 A 
ATOM     37  C   UNL     1     -38.942  48.314 -11.192  0.00  0.00    +0.000 A 
ATOM     38  C   UNL     1     -40.206  46.966  -9.624  0.00  0.00    +0.000 A 
ATOM     39  C   UNL     1     -39.918  48.198 -10.200  0.00  0.00    +0.000 A 
ATOM     40  H   UNL     1     -36.890  47.729 -13.053  0.00  0.00    +0.000 HD
BRANCH  23  42
ATOM     41  O   UNL     1     -37.046  43.392 -14.585  0.00  0.00    +0.000 OA
ATOM     42  C   UNL     1     -35.971  43.918 -14.323  0.00  0.00    +0.000 C 
BRANCH  42  43
ATOM     43  O   UNL     1     -34.765  43.360 -14.675  0.00  0.00    +0.000 OA
ATOM     44  C   UNL     1     -34.719  42.880 -16.018  0.00  0.00    +0.000 C 
ENDBRANCH  42  43
ENDBRANCH  23  42
BRANCH  30  45
ATOM     45  O   UNL     1     -32.083  43.257  -8.924  0.00  0.00    +0.000 OA
ATOM     46  H   UNL     1     -31.820  43.464  -8.010  0.00  0.00    +0.000 HD
ENDBRANCH  30  45
BRANCH  30  47
ATOM     47  C   UNL     1     -33.480  44.918  -8.001  0.00  0.00    +0.000 C 
ATOM     48  C   UNL     1     -34.647  45.888  -8.066  0.00  0.00    +0.000 C 
ENDBRANCH  30  47
ENDBRANCH  19  23
BRANCH   7  49
ATOM     49  O   UNL     1     -37.017  52.046 -18.319  0.00  0.00    +0.000 OA
ATOM     50  H   UNL     1     -37.716  52.662 -18.620  0.00  0.00    +0.000 HD
ENDBRANCH   7  49
BRANCH   7  52
ATOM     51  O   UNL     1     -37.165  49.316 -20.698  0.00  0.00    +0.000 OA
ATOM     52  C   UNL     1     -37.035  50.380 -20.109  0.00  0.00    +0.000 C 
BRANCH  52  53
ATOM     53  O   UNL     1     -36.519  51.512 -20.693  0.00  0.00    +0.000 OA
ATOM     54  C   UNL     1     -37.187  51.901 -21.895  0.00  0.00    +0.000 C 
ENDBRANCH  52  53
ENDBRANCH   7  52
BRANCH  20  55
ATOM     55  O   UNL     1     -33.256  46.148 -14.749  0.00  0.00    +0.000 OA
ATOM     56  C   UNL     1     -32.290  45.656 -15.673  0.00  0.00    +0.000 C 
ENDBRANCH  20  55
BRANCH   6  57
ATOM     57  C   UNL     1     -39.214  51.648 -16.120  0.00  0.00    +0.000 C 
ATOM     58  C   UNL     1     -38.833  51.315 -14.677  0.00  0.00    +0.000 C 
ENDBRANCH   6  57
BRANCH   9  59
ATOM     59  O   UNL     1     -39.700  49.836 -19.437  0.00  0.00    +0.000 OA
BRANCH  59  61
ATOM     60  O   UNL     1     -40.541  51.583 -20.658  0.00  0.00    +0.000 OA
ATOM     61  C   UNL     1     -40.481  50.388 -20.405  0.00  0.00    +0.000 C 
ATOM     62  C   UNL     1     -41.227  49.318 -21.139  0.00  0.00    +0.000 C 
ENDBRANCH  59  61
ENDBRANCH   9  59
TORSDOF 12
ENDMDL
MODEL 4
REMARK VINA RESULT:      -5.9     22.977     27.160
REMARK  Name = 
REMARK  19 active torsions:
REMARK  status: ('A' for Active; 'I' for Inactive)
REMARK    1  A    between atoms: O_1  and  C_20
REMARK    2  A    between atoms: O_1  and  C_36
REMARK    3  A    between atoms: O_2  and  C_18
REMARK    4  A    between atoms: O_3  and  C_28
REMARK    5  A    between atoms: O_3  and  C_42
REMARK    6  A    between atoms: O_5  and  C_34
REMARK    7  A    between atoms: O_5  and  C_50
REMARK    8  A    between atoms: O_7  and  C_40
REMARK    9  A    between atoms: O_7  and  C_56
REMARK   10  A    between atoms: O_9  and  C_46
REMARK   11  A    between atoms: N_11  and  C_30
REMARK   12  A    between atoms: C_17  and  C_23
REMARK   13  A    between atoms: C_18  and  C_28
REMARK   14  A    between atoms: C_23  and  C_32
REMARK   15  A    between atoms: C_33  and  C_35
REMARK   16  A    between atoms: C_35  and  C_40
REMARK   17  A    between atoms: C_36  and  C_41
REMARK   18  A    between atoms: C_46  and  C_53
REMARK   19  A    between atoms: C_53  and  C_57
REMARK                            x       y       z     vdW  Elec       q    Type
REMARK                         _______ _______ _______ _____ _____    ______ ____
ROOT
ATOM      1  N   UNL     1     -15.731  47.938   3.162  0.00  0.00    +0.000 NA
ATOM      2  N   UNL     1     -12.612  51.185   1.580  0.00  0.00    +0.000 N 
ATOM      3  C   UNL     1     -14.197  49.532   2.426  0.00  0.00    +0.000 C 
ATOM      4  C   UNL     1     -14.512  48.624   3.628  0.00  0.00    +0.000 C 
ATOM      5  C   UNL     1     -13.217  50.649   2.835  0.00  0.00    +0.000 C 
ATOM      6  C   UNL     1     -14.599  49.407   5.019  0.00  0.00    +0.000 C 
ATOM      7  C   UNL     1     -13.735  51.645   3.886  0.00  0.00    +0.000 C 
ATOM      8  C   UNL     1     -15.570  49.889   1.824  0.00  0.00    +0.000 C 
ATOM      9  C   UNL     1     -14.778  50.980   4.843  0.00  0.00    +0.000 C 
ATOM     10  C   UNL     1     -13.360  48.973   1.292  0.00  0.00    +0.000 A 
ATOM     11  C   UNL     1     -16.556  48.907   2.452  0.00  0.00    +0.000 C 
ATOM     12  C   UNL     1     -12.516  49.984   0.813  0.00  0.00    +0.000 A 
ATOM     13  C   UNL     1     -15.762  48.901   5.876  0.00  0.00    +0.000 C 
ATOM     14  C   UNL     1     -16.441  47.190   4.188  0.00  0.00    +0.000 C 
ATOM     15  C   UNL     1     -16.569  47.900   5.497  0.00  0.00    +0.000 C 
ATOM     16  C   UNL     1     -13.396  47.707   0.715  0.00  0.00    +0.000 A 
ATOM     17  C   UNL     1     -11.360  51.932   1.699  0.00  0.00    +0.000 C 
ATOM     18  C   UNL     1     -11.719  49.742  -0.290  0.00  0.00    +0.000 A 
ATOM     19  C   UNL     1     -12.592  47.427  -0.408  0.00  0.00    +0.000 A 
ATOM     20  C   UNL     1     -11.763  48.477  -0.901  0.00  0.00    +0.000 A 
ENDROOT
BRANCH  19  23
ATOM     21  N   UNL     1     -13.248  42.063  -2.724  0.00  0.00    +0.000 NA
ATOM     22  N   UNL     1     -13.378  47.315  -3.159  0.00  0.00    +0.000 N 
ATOM     23  C   UNL     1     -12.612  46.015  -1.119  0.00  0.00    +0.000 C 
ATOM     24  C   UNL     1     -13.847  45.132  -0.623  0.00  0.00    +0.000 C 
ATOM     25  C   UNL     1     -12.759  46.176  -2.671  0.00  0.00    +0.000 A 
ATOM     26  C   UNL     1     -14.199  43.894  -1.464  0.00  0.00    +0.000 C 
ATOM     27  C   UNL     1     -15.478  43.172  -1.041  0.00  0.00    +0.000 C 
ATOM     28  C   UNL     1     -13.106  42.836  -1.503  0.00  0.00    +0.000 C 
ATOM     29  C   UNL     1     -12.491  45.369  -3.791  0.00  0.00    +0.000 A 
ATOM     30  C   UNL     1     -15.782  41.955  -1.965  0.00  0.00    +0.000 C 
ATOM     31  C   UNL     1     -14.550  41.362  -2.764  0.00  0.00    +0.000 C 
ATOM     32  C   UNL     1     -11.904  43.971  -3.903  0.00  0.00    +0.000 C 
ATOM     33  C   UNL     1     -12.971  42.836  -3.963  0.00  0.00    +0.000 C 
ATOM     34  C   UNL     1     -12.929  46.105  -4.954  0.00  0.00    +0.000 A 
ATOM     35  C   UNL     1     -13.472  47.306  -4.522  0.00  0.00    +0.000 A 
ATOM     36  C   UNL     1     -12.926  45.840  -6.342  0.00  0.00    +0.000 A 
ATOM     37  C   UNL     1     -14.004  48.265  -5.393  0.00  0.00    +0.000 A 
ATOM     38  C   UNL     1     -13.451  46.785  -7.231  0.00  0.00    +0.000 A 
ATOM     39  C   UNL     1     -13.982  47.981  -6.761  0.00  0.00    +0.000 A 
ATOM     40  H   UNL     1     -13.706  48.080  -2.584  0.00  0.00    +0.000 HD
BRANCH  23  42
ATOM     41  O   UNL     1     -10.249  45.235  -1.402  0.00  0.00    +0.000 OA
ATOM     42  C   UNL     1     -11.260  45.338  -0.719  0.00  0.00    +0.000 C 
BRANCH  42  43
ATOM     43  O   UNL     1     -11.335  44.873   0.574  0.00  0.00    +0.000 OA
ATOM     44  C   UNL     1     -10.286  43.971   0.926  0.00  0.00    +0.000 C 
ENDBRANCH  42  43
ENDBRANCH  23  42
BRANCH  30  45
ATOM     45  O   UNL     1     -16.260  40.913  -1.078  0.00  0.00    +0.000 OA
ATOM     46  H   UNL     1     -16.655  41.350  -0.303  0.00  0.00    +0.000 HD
ENDBRANCH  30  45
BRANCH  30  47
ATOM     47  C   UNL     1     -16.989  42.233  -2.892  0.00  0.00    +0.000 C 
ATOM     48  C   UNL     1     -17.805  43.478  -2.588  0.00  0.00    +0.000 C 
ENDBRANCH  30  47
ENDBRANCH  19  23
BRANCH   7  49
ATOM     49  O   UNL     1     -12.575  51.973   4.718  0.00  0.00    +0.000 OA
ATOM     50  H   UNL     1     -12.033  51.159   4.757  0.00  0.00    +0.000 HD
ENDBRANCH   7  49
BRANCH   7  52
ATOM     51  O   UNL     1     -14.883  53.060   2.199  0.00  0.00    +0.000 OA
ATOM     52  C   UNL     1     -14.266  52.954   3.249  0.00  0.00    +0.000 C 
BRANCH  52  53
ATOM     53  O   UNL     1     -14.012  54.011   4.090  0.00  0.00    +0.000 OA
ATOM     54  C   UNL     1     -14.951  55.082   3.975  0.00  0.00    +0.000 C 
ENDBRANCH  52  53
ENDBRANCH   7  52
BRANCH  20  55
ATOM     55  O   UNL     1     -10.952  48.188  -1.969  0.00  0.00    +0.000 OA
ATOM     56  C   UNL     1      -9.859  49.081  -2.161  0.00  0.00    +0.000 C 
ENDBRANCH  20  55
BRANCH   6  57
ATOM     57  C   UNL     1     -13.294  49.144   5.857  0.00  0.00    +0.000 C 
ATOM     58  C   UNL     1     -12.394  48.002   5.379  0.00  0.00    +0.000 C 
ENDBRANCH   6  57
BRANCH   9  59
ATOM     59  O   UNL     1     -16.140  51.236   4.427  0.00  0.00    +0.000 OA
BRANCH  59  61
ATOM     60  O   UNL     1     -16.684  52.307   6.378  0.00  0.00    +0.000 OA
ATOM     61  C   UNL     1     -16.873  52.092   5.189  0.00  0.00    +0.000 C 
ATOM     62  C   UNL     1     -17.920  52.760   4.353  0.00  0.00    +0.000 C 
ENDBRANCH  59  61
ENDBRANCH   9  59
TORSDOF 12
ENDMDL
MODEL 5
REMARK VINA RESULT:      -5.9      2.188      4.845
REMARK  Name = 
REMARK  19 active torsions:
REMARK  status: ('A' for Active; 'I' for Inactive)
REMARK    1  A    between atoms: O_1  and  C_20
REMARK    2  A    between atoms: O_1  and  C_36
REMARK    3  A    between atoms: O_2  and  C_18
REMARK    4  A    between atoms: O_3  and  C_28
REMARK    5  A    between atoms: O_3  and  C_42
REMARK    6  A    between atoms: O_5  and  C_34
REMARK    7  A    between atoms: O_5  and  C_50
REMARK    8  A    between atoms: O_7  and  C_40
REMARK    9  A    between atoms: O_7  and  C_56
REMARK   10  A    between atoms: O_9  and  C_46
REMARK   11  A    between atoms: N_11  and  C_30
REMARK   12  A    between atoms: C_17  and  C_23
REMARK   13  A    between atoms: C_18  and  C_28
REMARK   14  A    between atoms: C_23  and  C_32
REMARK   15  A    between atoms: C_33  and  C_35
REMARK   16  A    between atoms: C_35  and  C_40
REMARK   17  A    between atoms: C_36  and  C_41
REMARK   18  A    between atoms: C_46  and  C_53
REMARK   19  A    between atoms: C_53  and  C_57
REMARK                            x       y       z     vdW  Elec       q    Type
REMARK                         _______ _______ _______ _____ _____    ______ ____
ROOT
ATOM      1  N   UNL     1     -34.046  44.113 -10.050  0.00  0.00    +0.000 NA
ATOM      2  N   UNL     1     -38.101  46.597 -10.457  0.00  0.00    +0.000 N 
ATOM      3  C   UNL     1     -36.018  45.346 -10.216  0.00  0.00    +0.000 C 
ATOM      4  C   UNL     1     -34.617  45.389  -9.581  0.00  0.00    +0.000 C 
ATOM      5  C   UNL     1     -36.953  46.362  -9.532  0.00  0.00    +0.000 C 
ATOM      6  C   UNL     1     -34.635  45.647  -8.003  0.00  0.00    +0.000 C 
ATOM      7  C   UNL     1     -37.248  46.108  -8.044  0.00  0.00    +0.000 C 
ATOM      8  C   UNL     1     -36.394  43.852 -10.254  0.00  0.00    +0.000 C 
ATOM      9  C   UNL     1     -36.057  45.378  -7.340  0.00  0.00    +0.000 C 
ATOM     10  C   UNL     1     -36.192  45.871 -11.628  0.00  0.00    +0.000 A 
ATOM     11  C   UNL     1     -35.092  43.098  -9.994  0.00  0.00    +0.000 C 
ATOM     12  C   UNL     1     -37.429  46.526 -11.716  0.00  0.00    +0.000 A 
ATOM     13  C   UNL     1     -33.612  44.768  -7.279  0.00  0.00    +0.000 C 
ATOM     14  C   UNL     1     -32.805  43.723  -9.399  0.00  0.00    +0.000 C 
ATOM     15  C   UNL     1     -32.792  43.923  -7.918  0.00  0.00    +0.000 C 
ATOM     16  C   UNL     1     -35.355  45.725 -12.729  0.00  0.00    +0.000 A 
ATOM     17  C   UNL     1     -38.891  47.811 -10.259  0.00  0.00    +0.000 C 
ATOM     18  C   UNL     1     -37.858  47.010 -12.937  0.00  0.00    +0.000 A 
ATOM     19  C   UNL     1     -35.762  46.212 -13.987  0.00  0.00    +0.000 A 
ATOM     20  C   UNL     1     -37.037  46.847 -14.065  0.00  0.00    +0.000 A 
ENDROOT
BRANCH  19  23
ATOM     21  N   UNL     1     -31.978  45.280 -18.390  0.00  0.00    +0.000 NA
ATOM     22  N   UNL     1     -36.511  44.229 -15.912  0.00  0.00    +0.000 N 
ATOM     23  C   UNL     1     -34.863  46.050 -15.277  0.00  0.00    +0.000 C 
ATOM     24  C   UNL     1     -33.474  45.341 -14.933  0.00  0.00    +0.000 C 
ATOM     25  C   UNL     1     -35.580  45.158 -16.347  0.00  0.00    +0.000 A 
ATOM     26  C   UNL     1     -32.654  44.805 -16.117  0.00  0.00    +0.000 C 
ATOM     27  C   UNL     1     -31.415  44.000 -15.730  0.00  0.00    +0.000 C 
ATOM     28  C   UNL     1     -32.177  45.881 -17.083  0.00  0.00    +0.000 C 
ATOM     29  C   UNL     1     -35.458  44.966 -17.735  0.00  0.00    +0.000 A 
ATOM     30  C   UNL     1     -30.663  43.462 -16.984  0.00  0.00    +0.000 C 
ATOM     31  C   UNL     1     -30.936  44.231 -18.342  0.00  0.00    +0.000 C 
ATOM     32  C   UNL     1     -34.544  45.616 -18.762  0.00  0.00    +0.000 C 
ATOM     33  C   UNL     1     -33.233  44.820 -19.039  0.00  0.00    +0.000 C 
ATOM     34  C   UNL     1     -36.393  43.927 -18.099  0.00  0.00    +0.000 A 
ATOM     35  C   UNL     1     -37.027  43.496 -16.944  0.00  0.00    +0.000 A 
ATOM     36  C   UNL     1     -36.740  43.302 -19.318  0.00  0.00    +0.000 A 
ATOM     37  C   UNL     1     -37.996  42.485 -16.931  0.00  0.00    +0.000 A 
ATOM     38  C   UNL     1     -37.707  42.289 -19.330  0.00  0.00    +0.000 A 
ATOM     39  C   UNL     1     -38.325  41.888 -18.150  0.00  0.00    +0.000 A 
ATOM     40  H   UNL     1     -36.798  44.114 -14.949  0.00  0.00    +0.000 HD
BRANCH  23  42
ATOM     41  O   UNL     1     -33.908  48.366 -15.280  0.00  0.00    +0.000 OA
ATOM     42  C   UNL     1     -34.619  47.509 -15.789  0.00  0.00    +0.000 C 
BRANCH  42  43
ATOM     43  O   UNL     1     -35.311  47.716 -16.959  0.00  0.00    +0.000 OA
ATOM     44  C   UNL     1     -35.162  49.030 -17.495  0.00  0.00    +0.000 C 
ENDBRANCH  42  43
ENDBRANCH  23  42
BRANCH  30  45
ATOM     45  O   UNL     1     -29.254  43.619 -16.680  0.00  0.00    +0.000 OA
ATOM     46  H   UNL     1     -28.849  44.104 -17.421  0.00  0.00    +0.000 HD
ENDBRANCH  30  45
BRANCH  30  47
ATOM     47  C   UNL     1     -30.840  41.934 -17.141  0.00  0.00    +0.000 C 
ATOM     48  C   UNL     1     -32.145  41.462 -17.758  0.00  0.00    +0.000 C 
ENDBRANCH  30  47
ENDBRANCH  19  23
BRANCH   7  49
ATOM     49  O   UNL     1     -37.326  47.435  -7.430  0.00  0.00    +0.000 OA
ATOM     50  H   UNL     1     -38.200  47.798  -7.684  0.00  0.00    +0.000 HD
ENDBRANCH   7  49
BRANCH   7  52
ATOM     51  O   UNL     1     -39.059  44.469  -8.491  0.00  0.00    +0.000 OA
ATOM     52  C   UNL     1     -38.600  45.386  -7.824  0.00  0.00    +0.000 C 
BRANCH  52  53
ATOM     53  O   UNL     1     -39.205  45.876  -6.691  0.00  0.00    +0.000 OA
ATOM     54  C   UNL     1     -40.610  46.096  -6.832  0.00  0.00    +0.000 C 
ENDBRANCH  52  53
ENDBRANCH   7  52
BRANCH  20  55
ATOM     55  O   UNL     1     -37.411  47.356 -15.283  0.00  0.00    +0.000 OA
ATOM     56  C   UNL     1     -38.331  48.443 -15.230  0.00  0.00    +0.000 C 
ENDBRANCH  20  55
BRANCH   6  57
ATOM     57  C   UNL     1     -34.220  47.135  -7.706  0.00  0.00    +0.000 C 
ATOM     58  C   UNL     1     -32.725  47.453  -7.776  0.00  0.00    +0.000 C 
ENDBRANCH   6  57
BRANCH   9  59
ATOM     59  O   UNL     1     -36.261  43.946  -7.272  0.00  0.00    +0.000 OA
BRANCH  59  61
ATOM     60  O   UNL     1     -36.657  43.958  -5.016  0.00  0.00    +0.000 OA
ATOM     61  C   UNL     1     -36.305  43.382  -6.036  0.00  0.00    +0.000 C 
ATOM     62  C   UNL     1     -35.895  41.944  -6.109  0.00  0.00    +0.000 C 
ENDBRANCH  59  61
ENDBRANCH   9  59
TORSDOF 12
ENDMDL
MODEL 6
REMARK VINA RESULT:      -5.8      2.923      5.293
REMARK  Name = 
REMARK  19 active torsions:
REMARK  status: ('A' for Active; 'I' for Inactive)
REMARK    1  A    between atoms: O_1  and  C_20
REMARK    2  A    between atoms: O_1  and  C_36
REMARK    3  A    between atoms: O_2  and  C_18
REMARK    4  A    between atoms: O_3  and  C_28
REMARK    5  A    between atoms: O_3  and  C_42
REMARK    6  A    between atoms: O_5  and  C_34
REMARK    7  A    between atoms: O_5  and  C_50
REMARK    8  A    between atoms: O_7  and  C_40
REMARK    9  A    between atoms: O_7  and  C_56
REMARK   10  A    between atoms: O_9  and  C_46
REMARK   11  A    between atoms: N_11  and  C_30
REMARK   12  A    between atoms: C_17  and  C_23
REMARK   13  A    between atoms: C_18  and  C_28
REMARK   14  A    between atoms: C_23  and  C_32
REMARK   15  A    between atoms: C_33  and  C_35
REMARK   16  A    between atoms: C_35  and  C_40
REMARK   17  A    between atoms: C_36  and  C_41
REMARK   18  A    between atoms: C_46  and  C_53
REMARK   19  A    between atoms: C_53  and  C_57
REMARK                            x       y       z     vdW  Elec       q    Type
REMARK                         _______ _______ _______ _____ _____    ______ ____
ROOT
ATOM      1  N   UNL     1     -33.763  45.108  -9.054  0.00  0.00    +0.000 NA
ATOM      2  N   UNL     1     -35.549  40.748  -9.812  0.00  0.00    +0.000 N 
ATOM      3  C   UNL     1     -34.663  42.985  -9.398  0.00  0.00    +0.000 C 
ATOM      4  C   UNL     1     -35.037  44.386  -8.882  0.00  0.00    +0.000 C 
ATOM      5  C   UNL     1     -35.699  41.944  -8.930  0.00  0.00    +0.000 C 
ATOM      6  C   UNL     1     -35.683  44.381  -7.420  0.00  0.00    +0.000 C 
ATOM      7  C   UNL     1     -35.798  41.730  -7.411  0.00  0.00    +0.000 C 
ATOM      8  C   UNL     1     -33.174  42.811  -9.040  0.00  0.00    +0.000 C 
ATOM      9  C   UNL     1     -35.421  43.027  -6.623  0.00  0.00    +0.000 C 
ATOM     10  C   UNL     1     -34.787  42.701 -10.882  0.00  0.00    +0.000 A 
ATOM     11  C   UNL     1     -32.676  44.209  -8.683  0.00  0.00    +0.000 C 
ATOM     12  C   UNL     1     -35.242  41.386 -11.053  0.00  0.00    +0.000 A 
ATOM     13  C   UNL     1     -35.149  45.533  -6.565  0.00  0.00    +0.000 C 
ATOM     14  C   UNL     1     -33.706  46.409  -8.405  0.00  0.00    +0.000 C 
ATOM     15  C   UNL     1     -34.275  46.439  -7.024  0.00  0.00    +0.000 C 
ATOM     16  C   UNL     1     -34.469  43.517 -11.963  0.00  0.00    +0.000 A 
ATOM     17  C   UNL     1     -36.668  39.809  -9.872  0.00  0.00    +0.000 C 
ATOM     18  C   UNL     1     -35.344  40.860 -12.327  0.00  0.00    +0.000 A 
ATOM     19  C   UNL     1     -34.567  43.012 -13.274  0.00  0.00    +0.000 A 
ATOM     20  C   UNL     1     -35.001  41.662 -13.428  0.00  0.00    +0.000 A 
ENDROOT
BRANCH  19  23
ATOM     21  N   UNL     1     -33.511  45.803 -18.341  0.00  0.00    +0.000 NA
ATOM     22  N   UNL     1     -36.049  45.418 -13.736  0.00  0.00    +0.000 N 
ATOM     23  C   UNL     1     -34.193  43.886 -14.537  0.00  0.00    +0.000 C 
ATOM     24  C   UNL     1     -34.691  43.196 -15.889  0.00  0.00    +0.000 C 
ATOM     25  C   UNL     1     -34.877  45.293 -14.463  0.00  0.00    +0.000 A 
ATOM     26  C   UNL     1     -34.713  44.075 -17.151  0.00  0.00    +0.000 C 
ATOM     27  C   UNL     1     -35.342  43.419 -18.379  0.00  0.00    +0.000 C 
ATOM     28  C   UNL     1     -33.343  44.572 -17.588  0.00  0.00    +0.000 C 
ATOM     29  C   UNL     1     -34.652  46.548 -15.057  0.00  0.00    +0.000 A 
ATOM     30  C   UNL     1     -35.360  44.387 -19.601  0.00  0.00    +0.000 C 
ATOM     31  C   UNL     1     -34.315  45.576 -19.562  0.00  0.00    +0.000 C 
ATOM     32  C   UNL     1     -33.583  47.022 -16.029  0.00  0.00    +0.000 C 
ATOM     33  C   UNL     1     -34.006  46.943 -17.527  0.00  0.00    +0.000 C 
ATOM     34  C   UNL     1     -35.710  47.422 -14.605  0.00  0.00    +0.000 A 
ATOM     35  C   UNL     1     -36.554  46.687 -13.788  0.00  0.00    +0.000 A 
ATOM     36  C   UNL     1     -36.030  48.779 -14.840  0.00  0.00    +0.000 A 
ATOM     37  C   UNL     1     -37.696  47.225 -13.181  0.00  0.00    +0.000 A 
ATOM     38  C   UNL     1     -37.165  49.338 -14.242  0.00  0.00    +0.000 A 
ATOM     39  C   UNL     1     -37.986  48.569 -13.424  0.00  0.00    +0.000 A 
ATOM     40  H   UNL     1     -36.478  44.669 -13.207  0.00  0.00    +0.000 HD
BRANCH  23  42
ATOM     41  O   UNL     1     -31.950  44.940 -14.169  0.00  0.00    +0.000 OA
ATOM     42  C   UNL     1     -32.631  43.983 -14.517  0.00  0.00    +0.000 C 
BRANCH  42  43
ATOM     43  O   UNL     1     -32.083  42.791 -14.931  0.00  0.00    +0.000 OA
ATOM     44  C   UNL     1     -30.874  42.938 -15.674  0.00  0.00    +0.000 C 
ENDBRANCH  42  43
ENDBRANCH  23  42
BRANCH  30  45
ATOM     45  O   UNL     1     -35.027  43.562 -20.746  0.00  0.00    +0.000 OA
ATOM     46  H   UNL     1     -35.447  43.965 -21.526  0.00  0.00    +0.000 HD
ENDBRANCH  30  45
BRANCH  30  47
ATOM     47  C   UNL     1     -36.790  44.887 -19.909  0.00  0.00    +0.000 C 
ATOM     48  C   UNL     1     -37.309  46.030 -19.053  0.00  0.00    +0.000 C 
ENDBRANCH  30  47
ENDBRANCH  19  23
BRANCH   7  49
ATOM     49  O   UNL     1     -37.218  41.493  -7.142  0.00  0.00    +0.000 OA
ATOM     50  H   UNL     1     -37.689  41.712  -7.972  0.00  0.00    +0.000 HD
ENDBRANCH   7  49
BRANCH   7  52
ATOM     51  O   UNL     1     -33.846  40.204  -7.234  0.00  0.00    +0.000 OA
ATOM     52  C   UNL     1     -34.997  40.492  -6.934  0.00  0.00    +0.000 C 
BRANCH  52  53
ATOM     53  O   UNL     1     -35.748  39.776  -6.034  0.00  0.00    +0.000 OA
ATOM     54  C   UNL     1     -35.081  39.518  -4.797  0.00  0.00    +0.000 C 
ENDBRANCH  52  53
ENDBRANCH   7  52
BRANCH  20  55
ATOM     55  O   UNL     1     -35.134  41.187 -14.708  0.00  0.00    +0.000 OA
ATOM     56  C   UNL     1     -35.169  39.768 -14.829  0.00  0.00    +0.000 C 
ENDBRANCH  20  55
BRANCH   6  57
ATOM     57  C   UNL     1     -37.237  44.602  -7.528  0.00  0.00    +0.000 C 
ATOM     58  C   UNL     1     -37.766  45.082  -8.881  0.00  0.00    +0.000 C 
ENDBRANCH   6  57
BRANCH   9  59
ATOM     59  O   UNL     1     -34.039  43.019  -6.189  0.00  0.00    +0.000 OA
BRANCH  59  61
ATOM     60  O   UNL     1     -34.568  42.860  -3.966  0.00  0.00    +0.000 OA
ATOM     61  C   UNL     1     -33.803  43.192  -4.861  0.00  0.00    +0.000 C 
ATOM     62  C   UNL     1     -32.458  43.814  -4.653  0.00  0.00    +0.000 C 
ENDBRANCH  59  61
ENDBRANCH   9  59
TORSDOF 12
ENDMDL
MODEL 7
REMARK VINA RESULT:      -5.8     20.767     25.222
REMARK  Name = 
REMARK  19 active torsions:
REMARK  status: ('A' for Active; 'I' for Inactive)
REMARK    1  A    between atoms: O_1  and  C_20
REMARK    2  A    between atoms: O_1  and  C_36
REMARK    3  A    between atoms: O_2  and  C_18
REMARK    4  A    between atoms: O_3  and  C_28
REMARK    5  A    between atoms: O_3  and  C_42
REMARK    6  A    between atoms: O_5  and  C_34
REMARK    7  A    between atoms: O_5  and  C_50
REMARK    8  A    between atoms: O_7  and  C_40
REMARK    9  A    between atoms: O_7  and  C_56
REMARK   10  A    between atoms: O_9  and  C_46
REMARK   11  A    between atoms: N_11  and  C_30
REMARK   12  A    between atoms: C_17  and  C_23
REMARK   13  A    between atoms: C_18  and  C_28
REMARK   14  A    between atoms: C_23  and  C_32
REMARK   15  A    between atoms: C_33  and  C_35
REMARK   16  A    between atoms: C_35  and  C_40
REMARK   17  A    between atoms: C_36  and  C_41
REMARK   18  A    between atoms: C_46  and  C_53
REMARK   19  A    between atoms: C_53  and  C_57
REMARK                            x       y       z     vdW  Elec       q    Type
REMARK                         _______ _______ _______ _____ _____    ______ ____
ROOT
ATOM      1  N   UNL     1     -29.387  49.973  10.249  0.00  0.00    +0.000 NA
ATOM      2  N   UNL     1     -33.379  48.192   8.333  0.00  0.00    +0.000 N 
ATOM      3  C   UNL     1     -31.330  49.122   9.280  0.00  0.00    +0.000 C 
ATOM      4  C   UNL     1     -29.962  49.725   8.914  0.00  0.00    +0.000 C 
ATOM      5  C   UNL     1     -32.283  49.171   8.069  0.00  0.00    +0.000 C 
ATOM      6  C   UNL     1     -30.055  50.970   7.915  0.00  0.00    +0.000 C 
ATOM      7  C   UNL     1     -32.655  50.575   7.564  0.00  0.00    +0.000 C 
ATOM      8  C   UNL     1     -31.725  49.804  10.604  0.00  0.00    +0.000 C 
ATOM      9  C   UNL     1     -31.513  51.607   7.840  0.00  0.00    +0.000 C 
ATOM     10  C   UNL     1     -31.425  47.628   9.517  0.00  0.00    +0.000 A 
ATOM     11  C   UNL     1     -30.449  50.466  11.118  0.00  0.00    +0.000 C 
ATOM     12  C   UNL     1     -32.645  47.166   9.005  0.00  0.00    +0.000 A 
ATOM     13  C   UNL     1     -29.083  52.083   8.312  0.00  0.00    +0.000 C 
ATOM     14  C   UNL     1     -28.186  50.794  10.254  0.00  0.00    +0.000 C 
ATOM     15  C   UNL     1     -28.244  51.985   9.353  0.00  0.00    +0.000 C 
ATOM     16  C   UNL     1     -30.536  46.784  10.175  0.00  0.00    +0.000 A 
ATOM     17  C   UNL     1     -34.160  47.729   7.187  0.00  0.00    +0.000 C 
ATOM     18  C   UNL     1     -33.006  45.845   9.188  0.00  0.00    +0.000 A 
ATOM     19  C   UNL     1     -30.872  45.430  10.373  0.00  0.00    +0.000 A 
ATOM     20  C   UNL     1     -32.131  44.986   9.873  0.00  0.00    +0.000 A 
ENDROOT
BRANCH  19  23
ATOM     21  N   UNL     1     -27.854  41.356  13.350  0.00  0.00    +0.000 NA
ATOM     22  N   UNL     1     -29.272  43.638   8.815  0.00  0.00    +0.000 N 
ATOM     23  C   UNL     1     -29.911  44.434  11.137  0.00  0.00    +0.000 C 
ATOM     24  C   UNL     1     -30.734  43.257  11.837  0.00  0.00    +0.000 C 
ATOM     25  C   UNL     1     -28.904  43.760  10.144  0.00  0.00    +0.000 A 
ATOM     26  C   UNL     1     -29.930  42.036  12.314  0.00  0.00    +0.000 C 
ATOM     27  C   UNL     1     -30.775  40.873  12.833  0.00  0.00    +0.000 C 
ATOM     28  C   UNL     1     -28.916  42.345  13.405  0.00  0.00    +0.000 C 
ATOM     29  C   UNL     1     -27.661  43.112  10.265  0.00  0.00    +0.000 A 
ATOM     30  C   UNL     1     -29.889  39.665  13.261  0.00  0.00    +0.000 C 
ATOM     31  C   UNL     1     -28.378  39.995  13.600  0.00  0.00    +0.000 C 
ATOM     32  C   UNL     1     -26.786  42.836  11.477  0.00  0.00    +0.000 C 
ATOM     33  C   UNL     1     -27.019  41.436  12.123  0.00  0.00    +0.000 C 
ATOM     34  C   UNL     1     -27.296  42.654   8.944  0.00  0.00    +0.000 A 
ATOM     35  C   UNL     1     -28.318  43.000   8.073  0.00  0.00    +0.000 A 
ATOM     36  C   UNL     1     -26.185  41.956   8.419  0.00  0.00    +0.000 A 
ATOM     37  C   UNL     1     -28.296  42.700   6.705  0.00  0.00    +0.000 A 
ATOM     38  C   UNL     1     -26.140  41.646   7.055  0.00  0.00    +0.000 A 
ATOM     39  C   UNL     1     -27.183  42.015   6.211  0.00  0.00    +0.000 A 
ATOM     40  H   UNL     1     -30.134  43.995   8.424  0.00  0.00    +0.000 HD
BRANCH  23  42
ATOM     41  O   UNL     1     -28.069  45.801  12.141  0.00  0.00    +0.000 OA
ATOM     42  C   UNL     1     -29.188  45.309  12.213  0.00  0.00    +0.000 C 
BRANCH  42  43
ATOM     43  O   UNL     1     -30.014  45.497  13.296  0.00  0.00    +0.000 OA
ATOM     44  C   UNL     1     -29.609  46.562  14.155  0.00  0.00    +0.000 C 
ENDBRANCH  42  43
ENDBRANCH  23  42
BRANCH  30  45
ATOM     45  O   UNL     1     -30.499  39.154  14.473  0.00  0.00    +0.000 OA
ATOM     46  H   UNL     1     -31.217  39.766  14.716  0.00  0.00    +0.000 HD
ENDBRANCH  30  45
BRANCH  30  47
ATOM     47  C   UNL     1     -30.012  38.490  12.262  0.00  0.00    +0.000 C 
ATOM     48  C   UNL     1     -29.243  38.624  10.959  0.00  0.00    +0.000 C 
ENDBRANCH  30  47
ENDBRANCH  19  23
BRANCH   7  49
ATOM     49  O   UNL     1     -32.745  50.454   6.107  0.00  0.00    +0.000 OA
ATOM     50  H   UNL     1     -32.338  51.267   5.744  0.00  0.00    +0.000 HD
ENDBRANCH   7  49
BRANCH   7  52
ATOM     51  O   UNL     1     -34.447  50.939   9.244  0.00  0.00    +0.000 OA
ATOM     52  C   UNL     1     -34.028  51.052   8.100  0.00  0.00    +0.000 C 
BRANCH  52  53
ATOM     53  O   UNL     1     -34.707  51.713   7.105  0.00  0.00    +0.000 OA
ATOM     54  C   UNL     1     -35.272  52.959   7.518  0.00  0.00    +0.000 C 
ENDBRANCH  52  53
ENDBRANCH   7  52
BRANCH  20  55
ATOM     55  O   UNL     1     -32.436  43.658  10.032  0.00  0.00    +0.000 OA
ATOM     56  C   UNL     1     -32.922  43.003   8.864  0.00  0.00    +0.000 C 
ENDBRANCH  20  55
BRANCH   6  57
ATOM     57  C   UNL     1     -29.633  50.519   6.468  0.00  0.00    +0.000 C 
ATOM     58  C   UNL     1     -29.741  51.575   5.366  0.00  0.00    +0.000 C 
ENDBRANCH   6  57
BRANCH   9  59
ATOM     59  O   UNL     1     -31.741  52.358   9.057  0.00  0.00    +0.000 OA
BRANCH  59  61
ATOM     60  O   UNL     1     -32.026  54.316   7.903  0.00  0.00    +0.000 OA
ATOM     61  C   UNL     1     -31.822  53.711   8.946  0.00  0.00    +0.000 C 
ATOM     62  C   UNL     1     -31.663  54.349  10.291  0.00  0.00    +0.000 C 
ENDBRANCH  59  61
ENDBRANCH   9  59
TORSDOF 12
ENDMDL
MODEL 8
REMARK VINA RESULT:      -5.7      2.045     10.246
REMARK  Name = 
REMARK  19 active torsions:
REMARK  status: ('A' for Active; 'I' for Inactive)
REMARK    1  A    between atoms: O_1  and  C_20
REMARK    2  A    between atoms: O_1  and  C_36
REMARK    3  A    between atoms: O_2  and  C_18
REMARK    4  A    between atoms: O_3  and  C_28
REMARK    5  A    between atoms: O_3  and  C_42
REMARK    6  A    between atoms: O_5  and  C_34
REMARK    7  A    between atoms: O_5  and  C_50
REMARK    8  A    between atoms: O_7  and  C_40
REMARK    9  A    between atoms: O_7  and  C_56
REMARK   10  A    between atoms: O_9  and  C_46
REMARK   11  A    between atoms: N_11  and  C_30
REMARK   12  A    between atoms: C_17  and  C_23
REMARK   13  A    between atoms: C_18  and  C_28
REMARK   14  A    between atoms: C_23  and  C_32
REMARK   15  A    between atoms: C_33  and  C_35
REMARK   16  A    between atoms: C_35  and  C_40
REMARK   17  A    between atoms: C_36  and  C_41
REMARK   18  A    between atoms: C_46  and  C_53
REMARK   19  A    between atoms: C_53  and  C_57
REMARK                            x       y       z     vdW  Elec       q    Type
REMARK                         _______ _______ _______ _____ _____    ______ ____
ROOT
ATOM      1  N   UNL     1     -34.135  46.439 -17.519  0.00  0.00    +0.000 NA
ATOM      2  N   UNL     1     -37.922  49.163 -16.509  0.00  0.00    +0.000 N 
ATOM      3  C   UNL     1     -36.002  47.759 -17.059  0.00  0.00    +0.000 C 
ATOM      4  C   UNL     1     -35.553  46.557 -17.909  0.00  0.00    +0.000 C 
ATOM      5  C   UNL     1     -37.323  48.339 -17.601  0.00  0.00    +0.000 C 
ATOM      6  C   UNL     1     -35.872  46.715 -19.467  0.00  0.00    +0.000 C 
ATOM      7  C   UNL     1     -37.266  48.929 -19.020  0.00  0.00    +0.000 C 
ATOM      8  C   UNL     1     -34.753  48.655 -16.943  0.00  0.00    +0.000 C 
ATOM      9  C   UNL     1     -36.180  48.218 -19.894  0.00  0.00    +0.000 C 
ATOM     10  C   UNL     1     -36.488  47.509 -15.645  0.00  0.00    +0.000 A 
ATOM     11  C   UNL     1     -33.584  47.783 -17.395  0.00  0.00    +0.000 C 
ATOM     12  C   UNL     1     -37.549  48.383 -15.371  0.00  0.00    +0.000 A 
ATOM     13  C   UNL     1     -34.713  46.216 -20.332  0.00  0.00    +0.000 C 
ATOM     14  C   UNL     1     -33.345  45.546 -18.352  0.00  0.00    +0.000 C 
ATOM     15  C   UNL     1     -33.594  45.684 -19.819  0.00  0.00    +0.000 C 
ATOM     16  C   UNL     1     -35.991  46.631 -14.688  0.00  0.00    +0.000 A 
ATOM     17  C   UNL     1     -39.350  49.464 -16.596  0.00  0.00    +0.000 C 
ATOM     18  C   UNL     1     -38.100  48.411 -14.104  0.00  0.00    +0.000 A 
ATOM     19  C   UNL     1     -36.535  46.631 -13.388  0.00  0.00    +0.000 A 
ATOM     20  C   UNL     1     -37.592  47.549 -13.118  0.00  0.00    +0.000 A 
ENDROOT
BRANCH  19  23
ATOM     21  N   UNL     1     -34.599  43.589  -8.743  0.00  0.00    +0.000 NA
ATOM     22  N   UNL     1     -38.308  44.643 -12.338  0.00  0.00    +0.000 N 
ATOM     23  C   UNL     1     -35.991  45.673 -12.254  0.00  0.00    +0.000 C 
ATOM     24  C   UNL     1     -35.859  46.440 -10.859  0.00  0.00    +0.000 C 
ATOM     25  C   UNL     1     -36.970  44.471 -12.024  0.00  0.00    +0.000 A 
ATOM     26  C   UNL     1     -35.682  45.573  -9.602  0.00  0.00    +0.000 C 
ATOM     27  C   UNL     1     -35.717  46.341  -8.281  0.00  0.00    +0.000 C 
ATOM     28  C   UNL     1     -34.398  44.755  -9.585  0.00  0.00    +0.000 C 
ATOM     29  C   UNL     1     -36.866  43.190 -11.453  0.00  0.00    +0.000 A 
ATOM     30  C   UNL     1     -35.568  45.386  -7.059  0.00  0.00    +0.000 C 
ATOM     31  C   UNL     1     -34.896  43.982  -7.349  0.00  0.00    +0.000 C 
ATOM     32  C   UNL     1     -35.684  42.459 -10.837  0.00  0.00    +0.000 C 
ATOM     33  C   UNL     1     -35.577  42.613  -9.290  0.00  0.00    +0.000 C 
ATOM     34  C   UNL     1     -38.184  42.602 -11.496  0.00  0.00    +0.000 A 
ATOM     35  C   UNL     1     -39.050  43.531 -12.052  0.00  0.00    +0.000 A 
ATOM     36  C   UNL     1     -38.718  41.358 -11.091  0.00  0.00    +0.000 A 
ATOM     37  C   UNL     1     -40.418  43.292 -12.238  0.00  0.00    +0.000 A 
ATOM     38  C   UNL     1     -40.082  41.096 -11.267  0.00  0.00    +0.000 A 
ATOM     39  C   UNL     1     -40.918  42.052 -11.833  0.00  0.00    +0.000 A 
ATOM     40  H   UNL     1     -38.697  45.480 -12.752  0.00  0.00    +0.000 HD
BRANCH  23  42
ATOM     41  O   UNL     1     -33.496  45.690 -12.474  0.00  0.00    +0.000 OA
ATOM     42  C   UNL     1     -34.585  45.205 -12.755  0.00  0.00    +0.000 C 
BRANCH  42  43
ATOM     43  O   UNL     1     -34.721  44.105 -13.570  0.00  0.00    +0.000 OA
ATOM     44  C   UNL     1     -33.506  43.386 -13.778  0.00  0.00    +0.000 C 
ENDBRANCH  42  43
ENDBRANCH  23  42
BRANCH  30  45
ATOM     45  O   UNL     1     -34.707  46.090  -6.129  0.00  0.00    +0.000 OA
ATOM     46  H   UNL     1     -34.437  46.922  -6.555  0.00  0.00    +0.000 HD
ENDBRANCH  30  45
BRANCH  30  47
ATOM     47  C   UNL     1     -36.901  45.239  -6.288  0.00  0.00    +0.000 C 
ATOM     48  C   UNL     1     -37.952  44.341  -6.917  0.00  0.00    +0.000 C 
ENDBRANCH  30  47
ENDBRANCH  19  23
BRANCH   7  49
ATOM     49  O   UNL     1     -38.555  48.599 -19.632  0.00  0.00    +0.000 OA
ATOM     50  H   UNL     1     -38.399  48.587 -20.599  0.00  0.00    +0.000 HD
ENDBRANCH   7  49
BRANCH   7  52
ATOM     51  O   UNL     1     -36.364  51.127 -18.300  0.00  0.00    +0.000 OA
ATOM     52  C   UNL     1     -37.107  50.470 -19.015  0.00  0.00    +0.000 C 
BRANCH  52  53
ATOM     53  O   UNL     1     -37.882  51.016 -20.009  0.00  0.00    +0.000 OA
ATOM     54  C   UNL     1     -38.777  52.033 -19.555  0.00  0.00    +0.000 C 
ENDBRANCH  52  53
ENDBRANCH   7  52
BRANCH  20  55
ATOM     55  O   UNL     1     -38.146  47.518 -11.864  0.00  0.00    +0.000 OA
ATOM     56  C   UNL     1     -39.223  48.426 -11.653  0.00  0.00    +0.000 C 
ENDBRANCH  20  55
BRANCH   6  57
ATOM     57  C   UNL     1     -37.113  45.825 -19.845  0.00  0.00    +0.000 C 
ATOM     58  C   UNL     1     -37.546  44.783 -18.813  0.00  0.00    +0.000 C 
ENDBRANCH   6  57
BRANCH   9  59
ATOM     59  O   UNL     1     -34.930  48.949 -19.909  0.00  0.00    +0.000 OA
BRANCH  59  61
ATOM     60  O   UNL     1     -34.423  50.940 -20.923  0.00  0.00    +0.000 OA
ATOM     61  C   UNL     1     -34.690  49.747 -20.984  0.00  0.00    +0.000 C 
ATOM     62  C   UNL     1     -34.765  48.949 -22.248  0.00  0.00    +0.000 C 
ENDBRANCH  59  61
ENDBRANCH   9  59
TORSDOF 12
ENDMDL
MODEL 9
REMARK VINA RESULT:      -5.7      2.325     10.346
REMARK  Name = 
REMARK  19 active torsions:
REMARK  status: ('A' for Active; 'I' for Inactive)
REMARK    1  A    between atoms: O_1  and  C_20
REMARK    2  A    between atoms: O_1  and  C_36
REMARK    3  A    between atoms: O_2  and  C_18
REMARK    4  A    between atoms: O_3  and  C_28
REMARK    5  A    between atoms: O_3  and  C_42
REMARK    6  A    between atoms: O_5  and  C_34
REMARK    7  A    between atoms: O_5  and  C_50
REMARK    8  A    between atoms: O_7  and  C_40
REMARK    9  A    between atoms: O_7  and  C_56
REMARK   10  A    between atoms: O_9  and  C_46
REMARK   11  A    between atoms: N_11  and  C_30
REMARK   12  A    between atoms: C_17  and  C_23
REMARK   13  A    between atoms: C_18  and  C_28
REMARK   14  A    between atoms: C_23  and  C_32
REMARK   15  A    between atoms: C_33  and  C_35
REMARK   16  A    between atoms: C_35  and  C_40
REMARK   17  A    between atoms: C_36  and  C_41
REMARK   18  A    between atoms: C_46  and  C_53
REMARK   19  A    between atoms: C_53  and  C_57
REMARK                            x       y       z     vdW  Elec       q    Type
REMARK                         _______ _______ _______ _____ _____    ______ ____
ROOT
ATOM      1  N   UNL     1     -34.301  46.595 -15.733  0.00  0.00    +0.000 NA
ATOM      2  N   UNL     1     -38.925  47.656 -16.252  0.00  0.00    +0.000 N 
ATOM      3  C   UNL     1     -36.559  47.098 -16.022  0.00  0.00    +0.000 C 
ATOM      4  C   UNL     1     -35.454  46.164 -16.546  0.00  0.00    +0.000 C 
ATOM      5  C   UNL     1     -37.747  47.132 -17.004  0.00  0.00    +0.000 C 
ATOM      6  C   UNL     1     -35.282  46.199 -18.134  0.00  0.00    +0.000 C 
ATOM      7  C   UNL     1     -37.448  47.708 -18.399  0.00  0.00    +0.000 C 
ATOM      8  C   UNL     1     -35.833  48.402 -15.640  0.00  0.00    +0.000 C 
ATOM      9  C   UNL     1     -35.958  47.473 -18.811  0.00  0.00    +0.000 C 
ATOM     10  C   UNL     1     -37.353  46.672 -14.803  0.00  0.00    +0.000 A 
ATOM     11  C   UNL     1     -34.348  48.047 -15.608  0.00  0.00    +0.000 C 
ATOM     12  C   UNL     1     -38.686  47.072 -14.970  0.00  0.00    +0.000 A 
ATOM     13  C   UNL     1     -33.807  46.187 -18.541  0.00  0.00    +0.000 C 
ATOM     14  C   UNL     1     -33.015  46.078 -16.175  0.00  0.00    +0.000 C 
ATOM     15  C   UNL     1     -32.804  46.119 -17.654  0.00  0.00    +0.000 C 
ATOM     16  C   UNL     1     -36.912  46.044 -13.642  0.00  0.00    +0.000 A 
ATOM     17  C   UNL     1     -40.252  47.389 -16.804  0.00  0.00    +0.000 C 
ATOM     18  C   UNL     1     -39.590  46.879 -13.943  0.00  0.00    +0.000 A 
ATOM     19  C   UNL     1     -37.811  45.827 -12.579  0.00  0.00    +0.000 A 
ATOM     20  C   UNL     1     -39.155  46.270 -12.754  0.00  0.00    +0.000 A 
ENDROOT
BRANCH  19  23
ATOM     21  N   UNL     1     -35.491  43.430  -7.737  0.00  0.00    +0.000 NA
ATOM     22  N   UNL     1     -38.145  47.297 -10.145  0.00  0.00    +0.000 N 
ATOM     23  C   UNL     1     -37.358  45.143 -11.228  0.00  0.00    +0.000 C 
ATOM     24  C   UNL     1     -35.766  45.098 -11.104  0.00  0.00    +0.000 C 
ATOM     25  C   UNL     1     -37.891  45.944  -9.992  0.00  0.00    +0.000 A 
ATOM     26  C   UNL     1     -35.185  44.787  -9.715  0.00  0.00    +0.000 C 
ATOM     27  C   UNL     1     -33.666  44.909  -9.612  0.00  0.00    +0.000 C 
ATOM     28  C   UNL     1     -35.538  43.403  -9.188  0.00  0.00    +0.000 C 
ATOM     29  C   UNL     1     -38.114  45.657  -8.633  0.00  0.00    +0.000 A 
ATOM     30  C   UNL     1     -33.163  44.614  -8.166  0.00  0.00    +0.000 C 
ATOM     31  C   UNL     1     -34.133  43.760  -7.252  0.00  0.00    +0.000 C 
ATOM     32  C   UNL     1     -37.927  44.378  -7.833  0.00  0.00    +0.000 C 
ATOM     33  C   UNL     1     -36.547  44.273  -7.116  0.00  0.00    +0.000 C 
ATOM     34  C   UNL     1     -38.559  46.883  -8.012  0.00  0.00    +0.000 A 
ATOM     35  C   UNL     1     -38.567  47.876  -8.980  0.00  0.00    +0.000 A 
ATOM     36  C   UNL     1     -38.940  47.236  -6.698  0.00  0.00    +0.000 A 
ATOM     37  C   UNL     1     -38.941  49.200  -8.720  0.00  0.00    +0.000 A 
ATOM     38  C   UNL     1     -39.320  48.553  -6.414  0.00  0.00    +0.000 A 
ATOM     39  C   UNL     1     -39.320  49.521  -7.414  0.00  0.00    +0.000 A 
ATOM     40  H   UNL     1     -38.054  47.803 -11.016  0.00  0.00    +0.000 HD
BRANCH  23  42
ATOM     41  O   UNL     1     -37.454  42.718 -11.850  0.00  0.00    +0.000 OA
ATOM     42  C   UNL     1     -37.941  43.692 -11.291  0.00  0.00    +0.000 C 
BRANCH  42  43
ATOM     43  O   UNL     1     -39.117  43.630 -10.579  0.00  0.00    +0.000 OA
ATOM     44  C   UNL     1     -39.695  42.326 -10.529  0.00  0.00    +0.000 C 
ENDBRANCH  42  43
ENDBRANCH  23  42
BRANCH  30  45
ATOM     45  O   UNL     1     -31.946  43.845  -8.336  0.00  0.00    +0.000 OA
ATOM     46  H   UNL     1     -32.032  43.042  -7.792  0.00  0.00    +0.000 HD
ENDBRANCH  30  45
BRANCH  30  47
ATOM     47  C   UNL     1     -32.689  45.904  -7.456  0.00  0.00    +0.000 C 
ATOM     48  C   UNL     1     -32.798  45.924  -5.941  0.00  0.00    +0.000 C 
ENDBRANCH  30  47
ENDBRANCH  19  23
BRANCH   7  49
ATOM     49  O   UNL     1     -38.254  46.914 -19.329  0.00  0.00    +0.000 OA
ATOM     50  H   UNL     1     -39.103  47.394 -19.427  0.00  0.00    +0.000 HD
ENDBRANCH   7  49
BRANCH   7  52
ATOM     51  O   UNL     1     -37.774  50.060 -17.672  0.00  0.00    +0.000 OA
ATOM     52  C   UNL     1     -37.872  49.193 -18.529  0.00  0.00    +0.000 C 
BRANCH  52  53
ATOM     53  O   UNL     1     -38.317  49.435 -19.806  0.00  0.00    +0.000 OA
ATOM     54  C   UNL     1     -38.631  50.805 -20.061  0.00  0.00    +0.000 C 
ENDBRANCH  52  53
ENDBRANCH   7  52
BRANCH  20  55
ATOM     55  O   UNL     1     -40.036  46.020 -11.733  0.00  0.00    +0.000 OA
ATOM     56  C   UNL     1     -41.313  46.639 -11.867  0.00  0.00    +0.000 C 
ENDBRANCH  20  55
BRANCH   6  57
ATOM     57  C   UNL     1     -35.918  44.904 -18.763  0.00  0.00    +0.000 C 
ATOM     58  C   UNL     1     -35.024  43.664 -18.821  0.00  0.00    +0.000 C 
ENDBRANCH   6  57
BRANCH   9  59
ATOM     59  O   UNL     1     -35.128  48.626 -18.533  0.00  0.00    +0.000 OA
BRANCH  59  61
ATOM     60  O   UNL     1     -34.835  50.696 -19.469  0.00  0.00    +0.000 OA
ATOM     61  C   UNL     1     -34.881  49.477 -19.564  0.00  0.00    +0.000 C 
ATOM     62  C   UNL     1     -34.639  48.706 -20.824  0.00  0.00    +0.000 C 
ENDBRANCH  59  61
ENDBRANCH   9  59
TORSDOF 12
ENDMDL
