MODEL 1
REMARK VINA RESULT:      -5.5      0.000      0.000
REMARK  Name = Vorinostat.pdbqt.pdb
REMARK  6 active torsions:
REMARK  status: ('A' for Active; 'I' for Inactive)
REMARK    1  A    between atoms: C_1  and  C_2
REMARK    2  A    between atoms: C_3  and  C_4
REMARK    3  A    between atoms: C_5  and  C_8
REMARK    4  A    between atoms: N_7  and  O_10
REMARK    5  A    between atoms: C_12  and  C_15
REMARK    6  A    between atoms: N_14  and  C_17
REMARK                            x       y       z     vdW  Elec       q    Type
REMARK                         _______ _______ _______ _____ _____    ______ ____
ROOT
ATOM      1  C   UNL     1     -34.013  45.346 -11.352  0.00  0.00    +0.000 C 
ATOM      2  C   UNL     1     -34.337  45.638 -12.820  0.00  0.00    +0.000 C 
ENDROOT
BRANCH   2   5
ATOM      3  O   UNL     1     -35.722  45.548 -14.645  0.00  0.00    +0.000 OA
ATOM      4  N   UNL     1     -33.646  46.581 -14.877  0.00  0.00    +0.000 N 
ATOM      5  C   UNL     1     -34.644  45.914 -14.204  0.00  0.00    +0.000 C 
ATOM      6  H   UNL     1     -32.808  46.812 -14.356  0.00  0.00    +0.000 HD
BRANCH   4   7
ATOM      7  C   UNL     1     -33.687  46.971 -16.227  0.00  0.00    +0.000 A 
ATOM      8  C   UNL     1     -34.173  48.246 -16.522  0.00  0.00    +0.000 A 
ATOM      9  C   UNL     1     -33.266  46.142 -17.266  0.00  0.00    +0.000 A 
ATOM     10  C   UNL     1     -34.238  48.687 -17.841  0.00  0.00    +0.000 A 
ATOM     11  C   UNL     1     -33.330  46.581 -18.587  0.00  0.00    +0.000 A 
ATOM     12  C   UNL     1     -33.815  47.854 -18.874  0.00  0.00    +0.000 A 
ENDBRANCH   4   7
ENDBRANCH   2   5
BRANCH   1  13
ATOM     13  C   UNL     1     -33.688  45.055  -9.884  0.00  0.00    +0.000 C 
ATOM     14  C   UNL     1     -33.363  44.766  -8.415  0.00  0.00    +0.000 C 
BRANCH  14  15
ATOM     15  C   UNL     1     -33.037  44.477  -6.947  0.00  0.00    +0.000 C 
ATOM     16  C   UNL     1     -32.712  44.187  -5.479  0.00  0.00    +0.000 C 
BRANCH  16  19
ATOM     17  O   UNL     1     -31.573  43.064  -3.805  0.00  0.00    +0.000 OA
ATOM     18  N   UNL     1     -33.091  44.652  -3.178  0.00  0.00    +0.000 N 
ATOM     19  C   UNL     1     -32.406  43.912  -4.100  0.00  0.00    +0.000 C 
ATOM     20  H   UNL     1     -33.753  45.384  -3.403  0.00  0.00    +0.000 HD
BRANCH  18  21
ATOM     21  O   UNL     1     -32.795  44.435  -1.814  0.00  0.00    +0.000 OA
ATOM     22  H   UNL     1     -32.564  45.335  -1.498  0.00  0.00    +0.000 HD
ENDBRANCH  18  21
ENDBRANCH  16  19
ENDBRANCH  14  15
ENDBRANCH   1  13
TORSDOF 6
ENDMDL
MODEL 2
REMARK VINA RESULT:      -5.3      3.493     11.703
REMARK  Name = Vorinostat.pdbqt.pdb
REMARK  6 active torsions:
REMARK  status: ('A' for Active; 'I' for Inactive)
REMARK    1  A    between atoms: C_1  and  C_2
REMARK    2  A    between atoms: C_3  and  C_4
REMARK    3  A    between atoms: C_5  and  C_8
REMARK    4  A    between atoms: N_7  and  O_10
REMARK    5  A    between atoms: C_12  and  C_15
REMARK    6  A    between atoms: N_14  and  C_17
REMARK                            x       y       z     vdW  Elec       q    Type
REMARK                         _______ _______ _______ _____ _____    ______ ____
ROOT
ATOM      1  C   UNL     1     -34.353  45.878 -12.816  0.00  0.00    +0.000 C 
ATOM      2  C   UNL     1     -34.351  45.369 -11.371  0.00  0.00    +0.000 C 
ENDROOT
BRANCH   2   5
ATOM      3  O   UNL     1     -34.922  43.840  -9.762  0.00  0.00    +0.000 OA
ATOM      4  N   UNL     1     -33.669  45.701  -9.130  0.00  0.00    +0.000 N 
ATOM      5  C   UNL     1     -34.347  44.888 -10.009  0.00  0.00    +0.000 C 
ATOM      6  H   UNL     1     -33.246  46.541  -9.506  0.00  0.00    +0.000 HD
BRANCH   4   7
ATOM      7  C   UNL     1     -33.513  45.467  -7.753  0.00  0.00    +0.000 A 
ATOM      8  C   UNL     1     -34.512  45.933  -6.897  0.00  0.00    +0.000 A 
ATOM      9  C   UNL     1     -32.414  44.796  -7.220  0.00  0.00    +0.000 A 
ATOM     10  C   UNL     1     -34.412  45.731  -5.522  0.00  0.00    +0.000 A 
ATOM     11  C   UNL     1     -32.312  44.592  -5.844  0.00  0.00    +0.000 A 
ATOM     12  C   UNL     1     -33.312  45.060  -4.996  0.00  0.00    +0.000 A 
ENDBRANCH   4   7
ENDBRANCH   2   5
BRANCH   1  13
ATOM     13  C   UNL     1     -34.354  46.389 -14.259  0.00  0.00    +0.000 C 
ATOM     14  C   UNL     1     -34.356  46.900 -15.704  0.00  0.00    +0.000 C 
BRANCH  14  15
ATOM     15  C   UNL     1     -34.358  47.410 -17.147  0.00  0.00    +0.000 C 
ATOM     16  C   UNL     1     -34.361  47.921 -18.591  0.00  0.00    +0.000 C 
BRANCH  16  19
ATOM     17  O   UNL     1     -34.407  47.618 -20.886  0.00  0.00    +0.000 OA
ATOM     18  N   UNL     1     -34.323  49.761 -20.097  0.00  0.00    +0.000 N 
ATOM     19  C   UNL     1     -34.364  48.403 -19.946  0.00  0.00    +0.000 C 
ATOM     20  H   UNL     1     -34.329  50.426 -19.334  0.00  0.00    +0.000 HD
BRANCH  18  21
ATOM     21  O   UNL     1     -34.358  50.275 -21.412  0.00  0.00    +0.000 OA
ATOM     22  H   UNL     1     -35.319  50.283 -21.615  0.00  0.00    +0.000 HD
ENDBRANCH  18  21
ENDBRANCH  16  19
ENDBRANCH  14  15
ENDBRANCH   1  13
TORSDOF 6
ENDMDL
MODEL 3
REMARK VINA RESULT:      -5.0      2.978     11.639
REMARK  Name = Vorinostat.pdbqt.pdb
REMARK  6 active torsions:
REMARK  status: ('A' for Active; 'I' for Inactive)
REMARK    1  A    between atoms: C_1  and  C_2
REMARK    2  A    between atoms: C_3  and  C_4
REMARK    3  A    between atoms: C_5  and  C_8
REMARK    4  A    between atoms: N_7  and  O_10
REMARK    5  A    between atoms: C_12  and  C_15
REMARK    6  A    between atoms: N_14  and  C_17
REMARK                            x       y       z     vdW  Elec       q    Type
REMARK                         _______ _______ _______ _____ _____    ______ ____
ROOT
ATOM      1  C   UNL     1     -33.967  44.941 -11.175  0.00  0.00    +0.000 C 
ATOM      2  C   UNL     1     -33.738  44.172  -9.870  0.00  0.00    +0.000 C 
ENDROOT
BRANCH   2   5
ATOM      3  O   UNL     1     -33.168  42.281  -8.705  0.00  0.00    +0.000 OA
ATOM      4  N   UNL     1     -33.754  44.191  -7.504  0.00  0.00    +0.000 N 
ATOM      5  C   UNL     1     -33.524  43.448  -8.639  0.00  0.00    +0.000 C 
ATOM      6  H   UNL     1     -34.047  45.152  -7.630  0.00  0.00    +0.000 HD
BRANCH   4   7
ATOM      7  C   UNL     1     -33.621  43.730  -6.183  0.00  0.00    +0.000 A 
ATOM      8  C   UNL     1     -32.612  44.290  -5.397  0.00  0.00    +0.000 A 
ATOM      9  C   UNL     1     -34.448  42.750  -5.636  0.00  0.00    +0.000 A 
ATOM     10  C   UNL     1     -32.431  43.873  -4.080  0.00  0.00    +0.000 A 
ATOM     11  C   UNL     1     -34.270  42.332  -4.319  0.00  0.00    +0.000 A 
ATOM     12  C   UNL     1     -33.261  42.894  -3.541  0.00  0.00    +0.000 A 
ENDBRANCH   4   7
ENDBRANCH   2   5
BRANCH   1  13
ATOM     13  C   UNL     1     -34.197  45.708 -12.480  0.00  0.00    +0.000 C 
ATOM     14  C   UNL     1     -34.429  46.475 -13.786  0.00  0.00    +0.000 C 
BRANCH  14  15
ATOM     15  C   UNL     1     -34.659  47.240 -15.091  0.00  0.00    +0.000 C 
ATOM     16  C   UNL     1     -34.891  48.006 -16.398  0.00  0.00    +0.000 C 
BRANCH  16  19
ATOM     17  O   UNL     1     -36.114  48.521 -18.294  0.00  0.00    +0.000 OA
ATOM     18  N   UNL     1     -34.145  49.632 -17.965  0.00  0.00    +0.000 N 
ATOM     19  C   UNL     1     -35.110  48.727 -17.623  0.00  0.00    +0.000 C 
ATOM     20  H   UNL     1     -33.330  49.844 -17.403  0.00  0.00    +0.000 HD
BRANCH  18  21
ATOM     21  O   UNL     1     -34.341  50.383 -19.144  0.00  0.00    +0.000 OA
ATOM     22  H   UNL     1     -35.011  49.853 -19.629  0.00  0.00    +0.000 HD
ENDBRANCH  18  21
ENDBRANCH  16  19
ENDBRANCH  14  15
ENDBRANCH   1  13
TORSDOF 6
ENDMDL
MODEL 4
REMARK VINA RESULT:      -5.0     22.144     23.114
REMARK  Name = Vorinostat.pdbqt.pdb
REMARK  6 active torsions:
REMARK  status: ('A' for Active; 'I' for Inactive)
REMARK    1  A    between atoms: C_1  and  C_2
REMARK    2  A    between atoms: C_3  and  C_4
REMARK    3  A    between atoms: C_5  and  C_8
REMARK    4  A    between atoms: N_7  and  O_10
REMARK    5  A    between atoms: C_12  and  C_15
REMARK    6  A    between atoms: N_14  and  C_17
REMARK                            x       y       z     vdW  Elec       q    Type
REMARK                         _______ _______ _______ _____ _____    ______ ____
ROOT
ATOM      1  C   UNL     1     -15.968  54.367 -24.208  0.00  0.00    +0.000 C 
ATOM      2  C   UNL     1     -16.300  54.231 -25.697  0.00  0.00    +0.000 C 
ENDROOT
BRANCH   2   5
ATOM      3  O   UNL     1     -15.752  53.679 -27.854  0.00  0.00    +0.000 OA
ATOM      4  N   UNL     1     -17.895  54.489 -27.425  0.00  0.00    +0.000 N 
ATOM      5  C   UNL     1     -16.615  54.103 -27.101  0.00  0.00    +0.000 C 
ATOM      6  H   UNL     1     -18.486  54.820 -26.672  0.00  0.00    +0.000 HD
BRANCH   4   7
ATOM      7  C   UNL     1     -18.456  54.466 -28.714  0.00  0.00    +0.000 A 
ATOM      8  C   UNL     1     -18.802  53.225 -29.251  0.00  0.00    +0.000 A 
ATOM      9  C   UNL     1     -18.676  55.621 -29.464  0.00  0.00    +0.000 A 
ATOM     10  C   UNL     1     -19.362  53.139 -30.524  0.00  0.00    +0.000 A 
ATOM     11  C   UNL     1     -19.236  55.537 -30.738  0.00  0.00    +0.000 A 
ATOM     12  C   UNL     1     -19.579  54.296 -31.267  0.00  0.00    +0.000 A 
ENDBRANCH   4   7
ENDBRANCH   2   5
BRANCH   1  13
ATOM     13  C   UNL     1     -15.635  54.505 -22.720  0.00  0.00    +0.000 C 
ATOM     14  C   UNL     1     -15.303  54.643 -21.231  0.00  0.00    +0.000 C 
BRANCH  14  15
ATOM     15  C   UNL     1     -14.972  54.782 -19.743  0.00  0.00    +0.000 C 
ATOM     16  C   UNL     1     -14.641  54.921 -18.253  0.00  0.00    +0.000 C 
BRANCH  16  19
ATOM     17  O   UNL     1     -13.186  55.288 -16.490  0.00  0.00    +0.000 OA
ATOM     18  N   UNL     1     -15.382  54.894 -15.993  0.00  0.00    +0.000 N 
ATOM     19  C   UNL     1     -14.331  55.049 -16.854  0.00  0.00    +0.000 C 
ATOM     20  H   UNL     1     -16.341  54.736 -16.278  0.00  0.00    +0.000 HD
BRANCH  18  21
ATOM     21  O   UNL     1     -15.125  55.046 -14.613  0.00  0.00    +0.000 OA
ATOM     22  H   UNL     1     -15.632  54.304 -14.217  0.00  0.00    +0.000 HD
ENDBRANCH  18  21
ENDBRANCH  16  19
ENDBRANCH  14  15
ENDBRANCH   1  13
TORSDOF 6
ENDMDL
MODEL 5
REMARK VINA RESULT:      -4.8     22.327     23.321
REMARK  Name = Vorinostat.pdbqt.pdb
REMARK  6 active torsions:
REMARK  status: ('A' for Active; 'I' for Inactive)
REMARK    1  A    between atoms: C_1  and  C_2
REMARK    2  A    between atoms: C_3  and  C_4
REMARK    3  A    between atoms: C_5  and  C_8
REMARK    4  A    between atoms: N_7  and  O_10
REMARK    5  A    between atoms: C_12  and  C_15
REMARK    6  A    between atoms: N_14  and  C_17
REMARK                            x       y       z     vdW  Elec       q    Type
REMARK                         _______ _______ _______ _____ _____    ______ ____
ROOT
ATOM      1  C   UNL     1     -16.731  56.232 -23.937  0.00  0.00    +0.000 C 
ATOM      2  C   UNL     1     -16.781  55.736 -25.385  0.00  0.00    +0.000 C 
ENDROOT
BRANCH   2   5
ATOM      3  O   UNL     1     -15.788  54.914 -27.281  0.00  0.00    +0.000 OA
ATOM      4  N   UNL     1     -18.089  55.285 -27.305  0.00  0.00    +0.000 N 
ATOM      5  C   UNL     1     -16.829  55.270 -26.752  0.00  0.00    +0.000 C 
ATOM      6  H   UNL     1     -18.848  55.614 -26.722  0.00  0.00    +0.000 HD
BRANCH   4   7
ATOM      7  C   UNL     1     -18.413  54.885 -28.613  0.00  0.00    +0.000 A 
ATOM      8  C   UNL     1     -18.506  55.875 -29.592  0.00  0.00    +0.000 A 
ATOM      9  C   UNL     1     -18.642  53.554 -28.961  0.00  0.00    +0.000 A 
ATOM     10  C   UNL     1     -18.825  55.538 -30.906  0.00  0.00    +0.000 A 
ATOM     11  C   UNL     1     -18.961  53.215 -30.275  0.00  0.00    +0.000 A 
ATOM     12  C   UNL     1     -19.052  54.208 -31.247  0.00  0.00    +0.000 A 
ENDBRANCH   4   7
ENDBRANCH   2   5
BRANCH   1  13
ATOM     13  C   UNL     1     -16.681  56.729 -22.490  0.00  0.00    +0.000 C 
ATOM     14  C   UNL     1     -16.629  57.225 -21.042  0.00  0.00    +0.000 C 
BRANCH  14  15
ATOM     15  C   UNL     1     -16.579  57.721 -19.594  0.00  0.00    +0.000 C 
ATOM     16  C   UNL     1     -16.530  58.218 -18.145  0.00  0.00    +0.000 C 
BRANCH  16  19
ATOM     17  O   UNL     1     -15.419  58.995 -16.269  0.00  0.00    +0.000 OA
ATOM     18  N   UNL     1     -17.688  58.756 -16.140  0.00  0.00    +0.000 N 
ATOM     19  C   UNL     1     -16.485  58.684 -16.786  0.00  0.00    +0.000 C 
ATOM     20  H   UNL     1     -18.582  58.542 -16.562  0.00  0.00    +0.000 HD
BRANCH  18  21
ATOM     21  O   UNL     1     -17.690  59.241 -14.813  0.00  0.00    +0.000 OA
ATOM     22  H   UNL     1     -18.502  59.793 -14.787  0.00  0.00    +0.000 HD
ENDBRANCH  18  21
ENDBRANCH  16  19
ENDBRANCH  14  15
ENDBRANCH   1  13
TORSDOF 6
ENDMDL
MODEL 6
REMARK VINA RESULT:      -4.7     23.882     26.224
REMARK  Name = Vorinostat.pdbqt.pdb
REMARK  6 active torsions:
REMARK  status: ('A' for Active; 'I' for Inactive)
REMARK    1  A    between atoms: C_1  and  C_2
REMARK    2  A    between atoms: C_3  and  C_4
REMARK    3  A    between atoms: C_5  and  C_8
REMARK    4  A    between atoms: N_7  and  O_10
REMARK    5  A    between atoms: C_12  and  C_15
REMARK    6  A    between atoms: N_14  and  C_17
REMARK                            x       y       z     vdW  Elec       q    Type
REMARK                         _______ _______ _______ _____ _____    ______ ____
ROOT
ATOM      1  C   UNL     1     -17.372  54.508 -27.360  0.00  0.00    +0.000 C 
ATOM      2  C   UNL     1     -16.607  54.951 -26.109  0.00  0.00    +0.000 C 
ENDROOT
BRANCH   2   5
ATOM      3  O   UNL     1     -14.707  55.667 -25.046  0.00  0.00    +0.000 OA
ATOM      4  N   UNL     1     -16.645  55.380 -23.783  0.00  0.00    +0.000 N 
ATOM      5  C   UNL     1     -15.885  55.369 -24.930  0.00  0.00    +0.000 C 
ATOM      6  H   UNL     1     -17.615  55.102 -23.865  0.00  0.00    +0.000 HD
BRANCH   4   7
ATOM      7  C   UNL     1     -16.190  55.745 -22.504  0.00  0.00    +0.000 A 
ATOM      8  C   UNL     1     -16.482  57.033 -22.052  0.00  0.00    +0.000 A 
ATOM      9  C   UNL     1     -15.468  54.880 -21.683  0.00  0.00    +0.000 A 
ATOM     10  C   UNL     1     -16.057  57.451 -20.793  0.00  0.00    +0.000 A 
ATOM     11  C   UNL     1     -15.042  55.295 -20.422  0.00  0.00    +0.000 A 
ATOM     12  C   UNL     1     -15.337  56.581 -19.978  0.00  0.00    +0.000 A 
ENDBRANCH   4   7
ENDBRANCH   2   5
BRANCH   1  13
ATOM     13  C   UNL     1     -18.138  54.068 -28.611  0.00  0.00    +0.000 C 
ATOM     14  C   UNL     1     -18.906  53.627 -29.861  0.00  0.00    +0.000 C 
BRANCH  14  15
ATOM     15  C   UNL     1     -19.672  53.186 -31.111  0.00  0.00    +0.000 C 
ATOM     16  C   UNL     1     -20.439  52.745 -32.362  0.00  0.00    +0.000 C 
BRANCH  16  19
ATOM     17  O   UNL     1     -20.855  52.776 -34.639  0.00  0.00    +0.000 OA
ATOM     18  N   UNL     1     -22.165  51.431 -33.336  0.00  0.00    +0.000 N 
ATOM     19  C   UNL     1     -21.157  52.332 -33.538  0.00  0.00    +0.000 C 
ATOM     20  H   UNL     1     -22.402  51.023 -32.440  0.00  0.00    +0.000 HD
BRANCH  18  21
ATOM     21  O   UNL     1     -22.872  50.975 -34.470  0.00  0.00    +0.000 OA
ATOM     22  H   UNL     1     -22.589  51.606 -35.169  0.00  0.00    +0.000 HD
ENDBRANCH  18  21
ENDBRANCH  16  19
ENDBRANCH  14  15
ENDBRANCH   1  13
TORSDOF 6
ENDMDL
MODEL 7
REMARK VINA RESULT:      -4.6      5.657     13.627
REMARK  Name = Vorinostat.pdbqt.pdb
REMARK  6 active torsions:
REMARK  status: ('A' for Active; 'I' for Inactive)
REMARK    1  A    between atoms: C_1  and  C_2
REMARK    2  A    between atoms: C_3  and  C_4
REMARK    3  A    between atoms: C_5  and  C_8
REMARK    4  A    between atoms: N_7  and  O_10
REMARK    5  A    between atoms: C_12  and  C_15
REMARK    6  A    between atoms: N_14  and  C_17
REMARK                            x       y       z     vdW  Elec       q    Type
REMARK                         _______ _______ _______ _____ _____    ______ ____
ROOT
ATOM      1  C   UNL     1     -34.743  48.174 -18.020  0.00  0.00    +0.000 C 
ATOM      2  C   UNL     1     -34.816  47.920 -16.511  0.00  0.00    +0.000 C 
ENDROOT
BRANCH   2   5
ATOM      3  O   UNL     1     -35.253  48.594 -14.364  0.00  0.00    +0.000 OA
ATOM      4  N   UNL     1     -34.513  46.412 -14.714  0.00  0.00    +0.000 N 
ATOM      5  C   UNL     1     -34.885  47.683 -15.088  0.00  0.00    +0.000 C 
ATOM      6  H   UNL     1     -34.231  45.775 -15.449  0.00  0.00    +0.000 HD
BRANCH   4   7
ATOM      7  C   UNL     1     -34.488  45.920 -13.397  0.00  0.00    +0.000 A 
ATOM      8  C   UNL     1     -33.327  45.281 -12.963  0.00  0.00    +0.000 A 
ATOM      9  C   UNL     1     -35.567  46.047 -12.523  0.00  0.00    +0.000 A 
ATOM     10  C   UNL     1     -33.244  44.773 -11.668  0.00  0.00    +0.000 A 
ATOM     11  C   UNL     1     -35.487  45.540 -11.227  0.00  0.00    +0.000 A 
ATOM     12  C   UNL     1     -34.325  44.903 -10.800  0.00  0.00    +0.000 A 
ENDBRANCH   4   7
ENDBRANCH   2   5
BRANCH   1  13
ATOM     13  C   UNL     1     -34.671  48.429 -19.528  0.00  0.00    +0.000 C 
ATOM     14  C   UNL     1     -34.600  48.684 -21.037  0.00  0.00    +0.000 C 
BRANCH  14  15
ATOM     15  C   UNL     1     -34.528  48.937 -22.545  0.00  0.00    +0.000 C 
ATOM     16  C   UNL     1     -34.454  49.192 -24.054  0.00  0.00    +0.000 C 
BRANCH  16  19
ATOM     17  O   UNL     1     -35.264  49.020 -26.216  0.00  0.00    +0.000 OA
ATOM     18  N   UNL     1     -33.296  50.138 -25.903  0.00  0.00    +0.000 N 
ATOM     19  C   UNL     1     -34.384  49.432 -25.470  0.00  0.00    +0.000 C 
ATOM     20  H   UNL     1     -32.580  50.521 -25.298  0.00  0.00    +0.000 HD
BRANCH  18  21
ATOM     21  O   UNL     1     -33.207  50.423 -27.283  0.00  0.00    +0.000 OA
ATOM     22  H   UNL     1     -33.454  51.373 -27.324  0.00  0.00    +0.000 HD
ENDBRANCH  18  21
ENDBRANCH  16  19
ENDBRANCH  14  15
ENDBRANCH   1  13
TORSDOF 6
ENDMDL
MODEL 8
REMARK VINA RESULT:      -4.6     19.326     19.803
REMARK  Name = Vorinostat.pdbqt.pdb
REMARK  6 active torsions:
REMARK  status: ('A' for Active; 'I' for Inactive)
REMARK    1  A    between atoms: C_1  and  C_2
REMARK    2  A    between atoms: C_3  and  C_4
REMARK    3  A    between atoms: C_5  and  C_8
REMARK    4  A    between atoms: N_7  and  O_10
REMARK    5  A    between atoms: C_12  and  C_15
REMARK    6  A    between atoms: N_14  and  C_17
REMARK                            x       y       z     vdW  Elec       q    Type
REMARK                         _______ _______ _______ _____ _____    ______ ____
ROOT
ATOM      1  C   UNL     1     -31.059  64.916  -5.590  0.00  0.00    +0.000 C 
ATOM      2  C   UNL     1     -31.524  65.419  -6.960  0.00  0.00    +0.000 C 
ENDROOT
BRANCH   2   5
ATOM      3  O   UNL     1     -32.631  66.915  -8.298  0.00  0.00    +0.000 OA
ATOM      4  N   UNL     1     -31.558  65.108  -9.305  0.00  0.00    +0.000 N 
ATOM      5  C   UNL     1     -31.963  65.894  -8.251  0.00  0.00    +0.000 C 
ATOM      6  H   UNL     1     -31.004  64.289  -9.088  0.00  0.00    +0.000 HD
BRANCH   4   7
ATOM      7  C   UNL     1     -31.847  65.343 -10.661  0.00  0.00    +0.000 A 
ATOM      8  C   UNL     1     -30.827  65.853 -11.465  0.00  0.00    +0.000 A 
ATOM      9  C   UNL     1     -33.097  65.089 -11.222  0.00  0.00    +0.000 A 
ATOM     10  C   UNL     1     -31.054  66.106 -12.816  0.00  0.00    +0.000 A 
ATOM     11  C   UNL     1     -33.328  65.341 -12.573  0.00  0.00    +0.000 A 
ATOM     12  C   UNL     1     -32.305  65.850 -13.370  0.00  0.00    +0.000 A 
ENDBRANCH   4   7
ENDBRANCH   2   5
BRANCH   1  13
ATOM     13  C   UNL     1     -30.593  64.415  -4.220  0.00  0.00    +0.000 C 
ATOM     14  C   UNL     1     -30.127  63.914  -2.849  0.00  0.00    +0.000 C 
BRANCH  14  15
ATOM     15  C   UNL     1     -29.661  63.414  -1.479  0.00  0.00    +0.000 C 
ATOM     16  C   UNL     1     -29.194  62.914  -0.109  0.00  0.00    +0.000 C 
BRANCH  16  19
ATOM     17  O   UNL     1     -28.785  63.183   2.154  0.00  0.00    +0.000 OA
ATOM     18  N   UNL     1     -28.317  61.150   1.223  0.00  0.00    +0.000 N 
ATOM     19  C   UNL     1     -28.753  62.444   1.177  0.00  0.00    +0.000 C 
ATOM     20  H   UNL     1     -28.321  60.512   0.436  0.00  0.00    +0.000 HD
BRANCH  18  21
ATOM     21  O   UNL     1     -27.907  60.641   2.475  0.00  0.00    +0.000 OA
ATOM     22  H   UNL     1     -27.502  61.426   2.904  0.00  0.00    +0.000 HD
ENDBRANCH  18  21
ENDBRANCH  16  19
ENDBRANCH  14  15
ENDBRANCH   1  13
TORSDOF 6
ENDMDL
MODEL 9
REMARK VINA RESULT:      -4.5      1.856      2.476
REMARK  Name = Vorinostat.pdbqt.pdb
REMARK  6 active torsions:
REMARK  status: ('A' for Active; 'I' for Inactive)
REMARK    1  A    between atoms: C_1  and  C_2
REMARK    2  A    between atoms: C_3  and  C_4
REMARK    3  A    between atoms: C_5  and  C_8
REMARK    4  A    between atoms: N_7  and  O_10
REMARK    5  A    between atoms: C_12  and  C_15
REMARK    6  A    between atoms: N_14  and  C_17
REMARK                            x       y       z     vdW  Elec       q    Type
REMARK                         _______ _______ _______ _____ _____    ______ ____
ROOT
ATOM      1  C   UNL     1     -33.796  45.375 -12.980  0.00  0.00    +0.000 C 
ATOM      2  C   UNL     1     -33.777  45.341 -14.511  0.00  0.00    +0.000 C 
ENDROOT
BRANCH   2   5
ATOM      3  O   UNL     1     -33.203  44.374 -16.509  0.00  0.00    +0.000 OA
ATOM      4  N   UNL     1     -34.391  46.379 -16.547  0.00  0.00    +0.000 N 
ATOM      5  C   UNL     1     -33.758  45.310 -15.956  0.00  0.00    +0.000 C 
ATOM      6  H   UNL     1     -34.802  47.073 -15.935  0.00  0.00    +0.000 HD
BRANCH   4   7
ATOM      7  C   UNL     1     -34.517  46.592 -17.931  0.00  0.00    +0.000 A 
ATOM      8  C   UNL     1     -35.192  45.628 -18.680  0.00  0.00    +0.000 A 
ATOM      9  C   UNL     1     -33.999  47.717 -18.572  0.00  0.00    +0.000 A 
ATOM     10  C   UNL     1     -35.347  45.784 -20.055  0.00  0.00    +0.000 A 
ATOM     11  C   UNL     1     -34.154  47.877 -19.948  0.00  0.00    +0.000 A 
ATOM     12  C   UNL     1     -34.828  46.910 -20.689  0.00  0.00    +0.000 A 
ENDBRANCH   4   7
ENDBRANCH   2   5
BRANCH   1  13
ATOM     13  C   UNL     1     -33.814  45.407 -11.450  0.00  0.00    +0.000 C 
ATOM     14  C   UNL     1     -33.832  45.438  -9.918  0.00  0.00    +0.000 C 
BRANCH  14  15
ATOM     15  C   UNL     1     -33.850  45.470  -8.388  0.00  0.00    +0.000 C 
ATOM     16  C   UNL     1     -33.869  45.500  -6.856  0.00  0.00    +0.000 C 
BRANCH  16  19
ATOM     17  O   UNL     1     -34.718  46.197  -4.818  0.00  0.00    +0.000 OA
ATOM     18  N   UNL     1     -32.938  44.764  -4.795  0.00  0.00    +0.000 N 
ATOM     19  C   UNL     1     -33.887  45.526  -5.418  0.00  0.00    +0.000 C 
ATOM     20  H   UNL     1     -32.270  44.173  -5.273  0.00  0.00    +0.000 HD
BRANCH  18  21
ATOM     21  O   UNL     1     -32.944  44.738  -3.383  0.00  0.00    +0.000 OA
ATOM     22  H   UNL     1     -32.997  45.690  -3.150  0.00  0.00    +0.000 HD
ENDBRANCH  18  21
ENDBRANCH  16  19
ENDBRANCH  14  15
ENDBRANCH   1  13
TORSDOF 6
ENDMDL
