MODEL 1
REMARK VINA RESULT:      -6.5      0.000      0.000
REMARK  Name = 101808842_CandidaspongiolideB.pdbqt.pdb
REMARK  12 active torsions:
REMARK  status: ('A' for Active; 'I' for Inactive)
REMARK    1  A    between atoms: C_6  and  C_42
REMARK    2  A    between atoms: C_7  and  O_28
REMARK    3  A    between atoms: C_10  and  O_30
REMARK    4  A    between atoms: C_13  and  O_32
REMARK    5  A    between atoms: C_19  and  O_34
REMARK    6  A    between atoms: C_20  and  O_38
REMARK    7  A    between atoms: C_21  and  O_36
REMARK    8  A    between atoms: O_38  and  C_40
REMARK    9  A    between atoms: C_42  and  C_44
REMARK   10  A    between atoms: C_42  and  O_52
REMARK   11  A    between atoms: C_45  and  C_47
REMARK   12  A    between atoms: C_47  and  C_49
REMARK                            x       y       z     vdW  Elec       q    Type
REMARK                         _______ _______ _______ _____ _____    ______ ____
ROOT
ATOM      1  O   UNL     1     -32.767  96.509  20.560  0.00  0.00    +0.000 OA
ATOM      2  O   UNL     1     -38.573  98.880  17.753  0.00  0.00    +0.000 OA
ATOM      3  O   UNL     1     -35.761  98.833  20.932  0.00  0.00    +0.000 OA
ATOM      4  O   UNL     1     -36.499  99.869  17.550  0.00  0.00    +0.000 OA
ATOM      5  O   UNL     1     -34.657  98.588  15.617  0.00  0.00    +0.000 OA
ATOM      6  C   UNL     1     -37.723  97.822  20.152  0.00  0.00    +0.000 C 
ATOM      7  C   UNL     1     -35.458  96.587  19.969  0.00  0.00    +0.000 C 
ATOM      8  C   UNL     1     -36.254  97.839  20.397  0.00  0.00    +0.000 C 
ATOM      9  C   UNL     1     -38.210  98.384  18.937  0.00  0.00    +0.000 C 
ATOM     10  C   UNL     1     -35.008  96.705  18.499  0.00  0.00    +0.000 C 
ATOM     11  C   UNL     1     -33.600  96.628  18.285  0.00  0.00    +0.000 C 
ATOM     12  C   UNL     1     -34.114  96.527  20.628  0.00  0.00    +0.000 C 
ATOM     13  C   UNL     1     -32.369  96.518  19.128  0.00  0.00    +0.000 C 
ATOM     14  C   UNL     1     -31.415  97.695  18.874  0.00  0.00    +0.000 C 
ATOM     15  C   UNL     1     -31.849  98.854  18.165  0.00  0.00    +0.000 C 
ATOM     16  C   UNL     1     -29.930  97.740  19.220  0.00  0.00    +0.000 C 
ATOM     17  C   UNL     1     -37.584  99.542  17.092  0.00  0.00    +0.000 C 
ATOM     18  C   UNL     1     -32.304  99.864  17.489  0.00  0.00    +0.000 C 
ATOM     19  C   UNL     1     -37.957  99.748  15.673  0.00  0.00    +0.000 C 
ATOM     20  C   UNL     1     -32.107  99.972  16.062  0.00  0.00    +0.000 C 
ATOM     21  C   UNL     1     -36.957 100.045  14.666  0.00  0.00    +0.000 C 
ATOM     22  C   UNL     1     -33.123 100.325  15.073  0.00  0.00    +0.000 C 
ATOM     23  C   UNL     1     -35.649 100.646  14.885  0.00  0.00    +0.000 C 
ATOM     24  C   UNL     1     -34.500  99.752  15.232  0.00  0.00    +0.000 C 
ATOM     25  C   UNL     1     -33.213 100.808  18.223  0.00  0.00    +0.000 C 
ATOM     26  C   UNL     1     -32.693 100.826  13.695  0.00  0.00    +0.000 C 
ATOM     27  C   UNL     1     -35.553 102.164  14.999  0.00  0.00    +0.000 C 
ENDROOT
BRANCH   7  28
ATOM     28  O   UNL     1     -36.108  95.345  20.150  0.00  0.00    +0.000 OA
ATOM     29  H   UNL     1     -35.772  94.978  20.987  0.00  0.00    +0.000 HD
ENDBRANCH   7  28
BRANCH  10  30
ATOM     30  O   UNL     1     -35.893  96.855  17.463  0.00  0.00    +0.000 OA
ATOM     31  H   UNL     1     -35.532  96.483  16.631  0.00  0.00    +0.000 HD
ENDBRANCH  10  30
BRANCH  13  32
ATOM     32  O   UNL     1     -31.742  95.275  18.824  0.00  0.00    +0.000 OA
ATOM     33  H   UNL     1     -32.066  94.647  19.489  0.00  0.00    +0.000 HD
ENDBRANCH  13  32
BRANCH  19  34
ATOM     34  O   UNL     1     -39.242  99.529  15.213  0.00  0.00    +0.000 OA
ATOM     35  H   UNL     1     -39.909  99.508  15.930  0.00  0.00    +0.000 HD
ENDBRANCH  19  34
BRANCH  21  36
ATOM     36  O   UNL     1     -37.438 100.090  13.368  0.00  0.00    +0.000 OA
ATOM     37  C   UNL     1     -36.438  99.726  12.449  0.00  0.00    +0.000 C 
ENDBRANCH  21  36
BRANCH  20  38
ATOM     38  O   UNL     1     -30.753 100.012  15.651  0.00  0.00    +0.000 OA
BRANCH  38  40
ATOM     39  O   UNL     1     -30.421 102.295  15.978  0.00  0.00    +0.000 OA
ATOM     40  C   UNL     1     -30.136 101.122  16.132  0.00  0.00    +0.000 C 
ATOM     41  C   UNL     1     -28.892 100.867  16.900  0.00  0.00    +0.000 C 
ENDBRANCH  38  40
ENDBRANCH  20  38
BRANCH   6  42
ATOM     42  C   UNL     1     -38.600  97.442  21.237  0.00  0.00    +0.000 C 
BRANCH  42  44
ATOM     43  O   UNL     1     -39.190  95.158  20.325  0.00  0.00    +0.000 OA
ATOM     44  C   UNL     1     -39.560  96.313  21.117  0.00  0.00    +0.000 C 
ATOM     45  C   UNL     1     -39.049  95.069  21.683  0.00  0.00    +0.000 C 
ATOM     46  C   UNL     1     -41.072  96.634  20.869  0.00  0.00    +0.000 C 
BRANCH  45  47
ATOM     47  C   UNL     1     -39.853  94.097  22.361  0.00  0.00    +0.000 C 
ATOM     48  C   UNL     1     -40.369  94.374  23.750  0.00  0.00    +0.000 C 
BRANCH  47  49
ATOM     49  C   UNL     1     -40.542  93.100  21.625  0.00  0.00    +0.000 C 
ATOM     50  C   UNL     1     -41.118  92.296  20.948  0.00  0.00    +0.000 C 
ATOM     51  C   UNL     1     -41.853  91.352  19.992  0.00  0.00    +0.000 C 
ENDBRANCH  47  49
ENDBRANCH  45  47
ENDBRANCH  42  44
BRANCH  42  52
ATOM     52  O   UNL     1     -38.459  98.182  22.403  0.00  0.00    +0.000 OA
ATOM     53  H   UNL     1     -38.355  99.138  22.222  0.00  0.00    +0.000 HD
ENDBRANCH  42  52
ENDBRANCH   6  42
TORSDOF 12
ENDMDL
MODEL 2
REMARK VINA RESULT:      -6.3      1.649      2.953
REMARK  Name = 101808842_CandidaspongiolideB.pdbqt.pdb
REMARK  12 active torsions:
REMARK  status: ('A' for Active; 'I' for Inactive)
REMARK    1  A    between atoms: C_6  and  C_42
REMARK    2  A    between atoms: C_7  and  O_28
REMARK    3  A    between atoms: C_10  and  O_30
REMARK    4  A    between atoms: C_13  and  O_32
REMARK    5  A    between atoms: C_19  and  O_34
REMARK    6  A    between atoms: C_20  and  O_38
REMARK    7  A    between atoms: C_21  and  O_36
REMARK    8  A    between atoms: O_38  and  C_40
REMARK    9  A    between atoms: C_42  and  C_44
REMARK   10  A    between atoms: C_42  and  O_52
REMARK   11  A    between atoms: C_45  and  C_47
REMARK   12  A    between atoms: C_47  and  C_49
REMARK                            x       y       z     vdW  Elec       q    Type
REMARK                         _______ _______ _______ _____ _____    ______ ____
ROOT
ATOM      1  O   UNL     1     -32.773  96.504  20.598  0.00  0.00    +0.000 OA
ATOM      2  O   UNL     1     -38.607  98.883  17.858  0.00  0.00    +0.000 OA
ATOM      3  O   UNL     1     -35.760  98.830  21.005  0.00  0.00    +0.000 OA
ATOM      4  O   UNL     1     -36.534  99.870  17.632  0.00  0.00    +0.000 OA
ATOM      5  O   UNL     1     -34.716  98.589  15.679  0.00  0.00    +0.000 OA
ATOM      6  C   UNL     1     -37.732  97.822  20.246  0.00  0.00    +0.000 C 
ATOM      7  C   UNL     1     -35.470  96.585  20.037  0.00  0.00    +0.000 C 
ATOM      8  C   UNL     1     -36.260  97.837  20.475  0.00  0.00    +0.000 C 
ATOM      9  C   UNL     1     -38.232  98.385  19.038  0.00  0.00    +0.000 C 
ATOM     10  C   UNL     1     -35.037  96.704  18.563  0.00  0.00    +0.000 C 
ATOM     11  C   UNL     1     -33.630  96.626  18.333  0.00  0.00    +0.000 C 
ATOM     12  C   UNL     1     -34.119  96.523  20.681  0.00  0.00    +0.000 C 
ATOM     13  C   UNL     1     -32.390  96.514  19.162  0.00  0.00    +0.000 C 
ATOM     14  C   UNL     1     -31.439  97.690  18.899  0.00  0.00    +0.000 C 
ATOM     15  C   UNL     1     -31.879  98.850  18.195  0.00  0.00    +0.000 C 
ATOM     16  C   UNL     1     -29.950  97.734  19.228  0.00  0.00    +0.000 C 
ATOM     17  C   UNL     1     -37.625  99.544  17.186  0.00  0.00    +0.000 C 
ATOM     18  C   UNL     1     -32.341  99.861  17.525  0.00  0.00    +0.000 C 
ATOM     19  C   UNL     1     -38.014  99.752  15.772  0.00  0.00    +0.000 C 
ATOM     20  C   UNL     1     -32.159  99.970  16.096  0.00  0.00    +0.000 C 
ATOM     21  C   UNL     1     -37.024 100.049  14.754  0.00  0.00    +0.000 C 
ATOM     22  C   UNL     1     -33.186 100.325  15.119  0.00  0.00    +0.000 C 
ATOM     23  C   UNL     1     -35.714 100.648  14.959  0.00  0.00    +0.000 C 
ATOM     24  C   UNL     1     -34.562  99.753  15.293  0.00  0.00    +0.000 C 
ATOM     25  C   UNL     1     -33.240 100.805  18.270  0.00  0.00    +0.000 C 
ATOM     26  C   UNL     1     -32.771 100.827  13.737  0.00  0.00    +0.000 C 
ATOM     27  C   UNL     1     -35.615 102.166  15.074  0.00  0.00    +0.000 C 
ENDROOT
BRANCH   7  28
ATOM     28  O   UNL     1     -36.119  95.343  20.224  0.00  0.00    +0.000 OA
ATOM     29  H   UNL     1     -36.066  95.146  21.177  0.00  0.00    +0.000 HD
ENDBRANCH   7  28
BRANCH  10  30
ATOM     30  O   UNL     1     -35.933  96.856  17.537  0.00  0.00    +0.000 OA
ATOM     31  H   UNL     1     -35.514  97.282  16.760  0.00  0.00    +0.000 HD
ENDBRANCH  10  30
BRANCH  13  32
ATOM     32  O   UNL     1     -31.768  95.270  18.850  0.00  0.00    +0.000 OA
ATOM     33  H   UNL     1     -30.931  95.264  19.341  0.00  0.00    +0.000 HD
ENDBRANCH  13  32
BRANCH  19  34
ATOM     34  O   UNL     1     -39.304  99.534  15.326  0.00  0.00    +0.000 OA
ATOM     35  H   UNL     1     -39.798 100.362  15.155  0.00  0.00    +0.000 HD
ENDBRANCH  19  34
BRANCH  21  36
ATOM     36  O   UNL     1     -37.520 100.095  13.461  0.00  0.00    +0.000 OA
ATOM     37  C   UNL     1     -36.515  99.788  12.527  0.00  0.00    +0.000 C 
ENDBRANCH  21  36
BRANCH  20  38
ATOM     38  O   UNL     1     -30.810 100.009  15.670  0.00  0.00    +0.000 OA
BRANCH  38  40
ATOM     39  O   UNL     1     -30.467 102.280  16.067  0.00  0.00    +0.000 OA
ATOM     40  C   UNL     1     -30.178 101.102  16.171  0.00  0.00    +0.000 C 
ATOM     41  C   UNL     1     -28.912 100.821  16.891  0.00  0.00    +0.000 C 
ENDBRANCH  38  40
ENDBRANCH  20  38
BRANCH   6  42
ATOM     42  C   UNL     1     -38.597  97.441  21.341  0.00  0.00    +0.000 C 
BRANCH  42  44
ATOM     43  O   UNL     1     -40.347  98.504  22.824  0.00  0.00    +0.000 OA
ATOM     44  C   UNL     1     -39.952  98.026  21.515  0.00  0.00    +0.000 C 
ATOM     45  C   UNL     1     -39.920  99.430  21.911  0.00  0.00    +0.000 C 
ATOM     46  C   UNL     1     -41.173  97.309  20.848  0.00  0.00    +0.000 C 
BRANCH  45  47
ATOM     47  C   UNL     1     -40.868 100.415  21.486  0.00  0.00    +0.000 C 
ATOM     48  C   UNL     1     -41.720 101.135  22.500  0.00  0.00    +0.000 C 
BRANCH  47  49
ATOM     49  C   UNL     1     -40.724 101.050  20.227  0.00  0.00    +0.000 C 
ATOM     50  C   UNL     1     -40.535 101.589  19.173  0.00  0.00    +0.000 C 
ATOM     51  C   UNL     1     -40.178 102.298  17.864  0.00  0.00    +0.000 C 
ENDBRANCH  47  49
ENDBRANCH  45  47
ENDBRANCH  42  44
BRANCH  42  52
ATOM     52  O   UNL     1     -38.085  96.472  22.194  0.00  0.00    +0.000 OA
ATOM     53  H   UNL     1     -38.704  95.724  22.315  0.00  0.00    +0.000 HD
ENDBRANCH  42  52
ENDBRANCH   6  42
TORSDOF 12
ENDMDL
MODEL 3
REMARK VINA RESULT:      -5.9      2.139      2.531
REMARK  Name = 101808842_CandidaspongiolideB.pdbqt.pdb
REMARK  12 active torsions:
REMARK  status: ('A' for Active; 'I' for Inactive)
REMARK    1  A    between atoms: C_6  and  C_42
REMARK    2  A    between atoms: C_7  and  O_28
REMARK    3  A    between atoms: C_10  and  O_30
REMARK    4  A    between atoms: C_13  and  O_32
REMARK    5  A    between atoms: C_19  and  O_34
REMARK    6  A    between atoms: C_20  and  O_38
REMARK    7  A    between atoms: C_21  and  O_36
REMARK    8  A    between atoms: O_38  and  C_40
REMARK    9  A    between atoms: C_42  and  C_44
REMARK   10  A    between atoms: C_42  and  O_52
REMARK   11  A    between atoms: C_45  and  C_47
REMARK   12  A    between atoms: C_47  and  C_49
REMARK                            x       y       z     vdW  Elec       q    Type
REMARK                         _______ _______ _______ _____ _____    ______ ____
ROOT
ATOM      1  O   UNL     1     -33.567  96.276  20.339  0.00  0.00    +0.000 OA
ATOM      2  O   UNL     1     -38.347  99.958  17.052  0.00  0.00    +0.000 OA
ATOM      3  O   UNL     1     -35.961  99.233  20.488  0.00  0.00    +0.000 OA
ATOM      4  O   UNL     1     -36.090 100.436  17.083  0.00  0.00    +0.000 OA
ATOM      5  O   UNL     1     -34.409  98.772  15.301  0.00  0.00    +0.000 OA
ATOM      6  C   UNL     1     -38.015  98.714  19.490  0.00  0.00    +0.000 C 
ATOM      7  C   UNL     1     -36.092  96.985  19.491  0.00  0.00    +0.000 C 
ATOM      8  C   UNL     1     -36.614  98.385  19.878  0.00  0.00    +0.000 C 
ATOM      9  C   UNL     1     -38.231  99.383  18.251  0.00  0.00    +0.000 C 
ATOM     10  C   UNL     1     -35.479  97.005  18.077  0.00  0.00    +0.000 C 
ATOM     11  C   UNL     1     -34.113  96.602  17.999  0.00  0.00    +0.000 C 
ATOM     12  C   UNL     1     -34.873  96.608  20.276  0.00  0.00    +0.000 C 
ATOM     13  C   UNL     1     -33.033  96.201  18.954  0.00  0.00    +0.000 C 
ATOM     14  C   UNL     1     -31.812  97.124  18.830  0.00  0.00    +0.000 C 
ATOM     15  C   UNL     1     -31.890  98.357  18.117  0.00  0.00    +0.000 C 
ATOM     16  C   UNL     1     -30.400  96.818  19.320  0.00  0.00    +0.000 C 
ATOM     17  C   UNL     1     -37.169 100.374  16.511  0.00  0.00    +0.000 C 
ATOM     18  C   UNL     1     -32.027  99.449  17.431  0.00  0.00    +0.000 C 
ATOM     19  C   UNL     1     -37.337 100.672  15.070  0.00  0.00    +0.000 C 
ATOM     20  C   UNL     1     -31.666  99.518  16.034  0.00  0.00    +0.000 C 
ATOM     21  C   UNL     1     -36.198 100.734  14.175  0.00  0.00    +0.000 C 
ATOM     22  C   UNL     1     -32.466 100.106  14.961  0.00  0.00    +0.000 C 
ATOM     23  C   UNL     1     -34.816 101.010  14.538  0.00  0.00    +0.000 C 
ATOM     24  C   UNL     1     -33.948  99.869  14.969  0.00  0.00    +0.000 C 
ATOM     25  C   UNL     1     -32.762 100.575  18.101  0.00  0.00    +0.000 C 
ATOM     26  C   UNL     1     -31.794 100.502  13.648  0.00  0.00    +0.000 C 
ATOM     27  C   UNL     1     -34.383 102.462  14.707  0.00  0.00    +0.000 C 
ENDROOT
BRANCH   7  28
ATOM     28  O   UNL     1     -37.027  95.929  19.570  0.00  0.00    +0.000 OA
ATOM     29  H   UNL     1     -36.998  95.470  18.710  0.00  0.00    +0.000 HD
ENDBRANCH   7  28
BRANCH  10  30
ATOM     30  O   UNL     1     -36.195  97.365  16.964  0.00  0.00    +0.000 OA
ATOM     31  H   UNL     1     -35.885  96.880  16.170  0.00  0.00    +0.000 HD
ENDBRANCH  10  30
BRANCH  13  32
ATOM     32  O   UNL     1     -32.685  94.848  18.674  0.00  0.00    +0.000 OA
ATOM     33  H   UNL     1     -33.210  94.308  19.288  0.00  0.00    +0.000 HD
ENDBRANCH  13  32
BRANCH  19  34
ATOM     34  O   UNL     1     -38.585 100.762  14.481  0.00  0.00    +0.000 OA
ATOM     35  H   UNL     1     -38.580 101.272  13.644  0.00  0.00    +0.000 HD
ENDBRANCH  19  34
BRANCH  21  36
ATOM     36  O   UNL     1     -36.522 100.899  12.838  0.00  0.00    +0.000 OA
ATOM     37  C   UNL     1     -36.242  99.731  12.106  0.00  0.00    +0.000 C 
ENDBRANCH  21  36
BRANCH  20  38
ATOM     38  O   UNL     1     -30.306  99.243  15.758  0.00  0.00    +0.000 OA
BRANCH  38  40
ATOM     39  O   UNL     1     -28.835  99.784  17.482  0.00  0.00    +0.000 OA
ATOM     40  C   UNL     1     -29.493 100.046  16.492  0.00  0.00    +0.000 C 
ATOM     41  C   UNL     1     -29.456 101.466  16.063  0.00  0.00    +0.000 C 
ENDBRANCH  38  40
ENDBRANCH  20  38
BRANCH   6  42
ATOM     42  C   UNL     1     -39.062  98.543  20.472  0.00  0.00    +0.000 C 
BRANCH  42  44
ATOM     43  O   UNL     1     -41.225  98.748  19.180  0.00  0.00    +0.000 OA
ATOM     44  C   UNL     1     -40.408  99.151  20.305  0.00  0.00    +0.000 C 
ATOM     45  C   UNL     1     -41.488  98.174  20.393  0.00  0.00    +0.000 C 
ATOM     46  C   UNL     1     -40.570 100.692  20.523  0.00  0.00    +0.000 C 
BRANCH  45  47
ATOM     47  C   UNL     1     -42.771  98.434  20.975  0.00  0.00    +0.000 C 
ATOM     48  C   UNL     1     -43.939  98.808  20.099  0.00  0.00    +0.000 C 
BRANCH  47  49
ATOM     49  C   UNL     1     -43.090  97.925  22.259  0.00  0.00    +0.000 C 
ATOM     50  C   UNL     1     -43.293  97.489  23.357  0.00  0.00    +0.000 C 
ATOM     51  C   UNL     1     -43.433  96.906  24.766  0.00  0.00    +0.000 C 
ENDBRANCH  47  49
ENDBRANCH  45  47
ENDBRANCH  42  44
BRANCH  42  52
ATOM     52  O   UNL     1     -38.731  97.746  21.561  0.00  0.00    +0.000 OA
ATOM     53  H   UNL     1     -39.377  97.832  22.291  0.00  0.00    +0.000 HD
ENDBRANCH  42  52
ENDBRANCH   6  42
TORSDOF 12
ENDMDL
MODEL 4
REMARK VINA RESULT:      -5.7     14.757     18.457
REMARK  Name = 101808842_CandidaspongiolideB.pdbqt.pdb
REMARK  12 active torsions:
REMARK  status: ('A' for Active; 'I' for Inactive)
REMARK    1  A    between atoms: C_6  and  C_42
REMARK    2  A    between atoms: C_7  and  O_28
REMARK    3  A    between atoms: C_10  and  O_30
REMARK    4  A    between atoms: C_13  and  O_32
REMARK    5  A    between atoms: C_19  and  O_34
REMARK    6  A    between atoms: C_20  and  O_38
REMARK    7  A    between atoms: C_21  and  O_36
REMARK    8  A    between atoms: O_38  and  C_40
REMARK    9  A    between atoms: C_42  and  C_44
REMARK   10  A    between atoms: C_42  and  O_52
REMARK   11  A    between atoms: C_45  and  C_47
REMARK   12  A    between atoms: C_47  and  C_49
REMARK                            x       y       z     vdW  Elec       q    Type
REMARK                         _______ _______ _______ _____ _____    ______ ____
ROOT
ATOM      1  O   UNL     1     -48.048 103.038   6.759  0.00  0.00    +0.000 OA
ATOM      2  O   UNL     1     -44.800 100.594   1.219  0.00  0.00    +0.000 OA
ATOM      3  O   UNL     1     -47.969 102.820   2.957  0.00  0.00    +0.000 OA
ATOM      4  O   UNL     1     -44.448 102.673   2.156  0.00  0.00    +0.000 OA
ATOM      5  O   UNL     1     -42.794 102.703   4.612  0.00  0.00    +0.000 OA
ATOM      6  C   UNL     1     -47.358 100.676   2.242  0.00  0.00    +0.000 C 
ATOM      7  C   UNL     1     -47.423 101.240   4.765  0.00  0.00    +0.000 C 
ATOM      8  C   UNL     1     -47.613 101.692   3.302  0.00  0.00    +0.000 C 
ATOM      9  C   UNL     1     -46.058 100.617   1.665  0.00  0.00    +0.000 C 
ATOM     10  C   UNL     1     -45.960 101.441   5.211  0.00  0.00    +0.000 C 
ATOM     11  C   UNL     1     -45.779 102.290   6.343  0.00  0.00    +0.000 C 
ATOM     12  C   UNL     1     -48.097 102.168   5.729  0.00  0.00    +0.000 C 
ATOM     13  C   UNL     1     -46.642 103.129   7.231  0.00  0.00    +0.000 C 
ATOM     14  C   UNL     1     -46.194 104.598   7.212  0.00  0.00    +0.000 C 
ATOM     15  C   UNL     1     -45.286 105.079   6.223  0.00  0.00    +0.000 C 
ATOM     16  C   UNL     1     -46.543 105.658   8.252  0.00  0.00    +0.000 C 
ATOM     17  C   UNL     1     -44.043 101.655   1.614  0.00  0.00    +0.000 C 
ATOM     18  C   UNL     1     -44.437 105.438   5.311  0.00  0.00    +0.000 C 
ATOM     19  C   UNL     1     -42.606 101.382   1.378  0.00  0.00    +0.000 C 
ATOM     20  C   UNL     1     -43.015 105.469   5.567  0.00  0.00    +0.000 C 
ATOM     21  C   UNL     1     -41.574 102.137   2.061  0.00  0.00    +0.000 C 
ATOM     22  C   UNL     1     -41.968 104.933   4.700  0.00  0.00    +0.000 C 
ATOM     23  C   UNL     1     -41.697 103.474   2.623  0.00  0.00    +0.000 C 
ATOM     24  C   UNL     1     -42.211 103.618   4.021  0.00  0.00    +0.000 C 
ATOM     25  C   UNL     1     -44.981 105.626   3.923  0.00  0.00    +0.000 C 
ATOM     26  C   UNL     1     -40.528 105.415   4.870  0.00  0.00    +0.000 C 
ATOM     27  C   UNL     1     -41.542 104.674   1.694  0.00  0.00    +0.000 C 
ENDROOT
BRANCH   7  28
ATOM     28  O   UNL     1     -47.813  99.915   5.063  0.00  0.00    +0.000 OA
ATOM     29  H   UNL     1     -48.744  99.960   5.349  0.00  0.00    +0.000 HD
ENDBRANCH   7  28
BRANCH  10  30
ATOM     30  O   UNL     1     -44.904 100.836   4.580  0.00  0.00    +0.000 OA
ATOM     31  H   UNL     1     -44.515 100.129   5.137  0.00  0.00    +0.000 HD
ENDBRANCH  10  30
BRANCH  13  32
ATOM     32  O   UNL     1     -46.570 102.587   8.547  0.00  0.00    +0.000 OA
ATOM     33  H   UNL     1     -47.364 102.038   8.650  0.00  0.00    +0.000 HD
ENDBRANCH  13  32
BRANCH  19  34
ATOM     34  O   UNL     1     -42.178 100.311   0.615  0.00  0.00    +0.000 OA
ATOM     35  H   UNL     1     -41.797 100.580  -0.246  0.00  0.00    +0.000 HD
ENDBRANCH  19  34
BRANCH  21  36
ATOM     36  O   UNL     1     -40.283 101.689   1.834  0.00  0.00    +0.000 OA
ATOM     37  C   UNL     1     -39.459 101.951   2.942  0.00  0.00    +0.000 C 
ENDBRANCH  21  36
BRANCH  20  38
ATOM     38  O   UNL     1     -42.618 106.343   6.607  0.00  0.00    +0.000 OA
BRANCH  38  40
ATOM     39  O   UNL     1     -42.612 104.609   8.163  0.00  0.00    +0.000 OA
ATOM     40  C   UNL     1     -42.182 105.643   7.686  0.00  0.00    +0.000 C 
ATOM     41  C   UNL     1     -41.062 106.267   8.431  0.00  0.00    +0.000 C 
ENDBRANCH  38  40
ENDBRANCH  20  38
BRANCH   6  42
ATOM     42  C   UNL     1     -48.484  99.951   1.696  0.00  0.00    +0.000 C 
BRANCH  42  44
ATOM     43  O   UNL     1     -48.866  98.091   3.366  0.00  0.00    +0.000 OA
ATOM     44  C   UNL     1     -48.711  98.511   1.989  0.00  0.00    +0.000 C 
ATOM     45  C   UNL     1     -50.001  98.257   2.622  0.00  0.00    +0.000 C 
ATOM     46  C   UNL     1     -47.859  97.444   1.225  0.00  0.00    +0.000 C 
BRANCH  45  47
ATOM     47  C   UNL     1     -50.804  97.095   2.387  0.00  0.00    +0.000 C 
ATOM     48  C   UNL     1     -51.441  96.872   1.039  0.00  0.00    +0.000 C 
BRANCH  47  49
ATOM     49  C   UNL     1     -50.659  95.947   3.207  0.00  0.00    +0.000 C 
ATOM     50  C   UNL     1     -50.528  95.019   3.953  0.00  0.00    +0.000 C 
ATOM     51  C   UNL     1     -50.324  93.913   4.993  0.00  0.00    +0.000 C 
ENDBRANCH  47  49
ENDBRANCH  45  47
ENDBRANCH  42  44
BRANCH  42  52
ATOM     52  O   UNL     1     -49.348 100.700   0.909  0.00  0.00    +0.000 OA
ATOM     53  H   UNL     1     -49.102 100.673  -0.038  0.00  0.00    +0.000 HD
ENDBRANCH  42  52
ENDBRANCH   6  42
TORSDOF 12
ENDMDL
MODEL 5
REMARK VINA RESULT:      -5.7     16.045     19.533
REMARK  Name = 101808842_CandidaspongiolideB.pdbqt.pdb
REMARK  12 active torsions:
REMARK  status: ('A' for Active; 'I' for Inactive)
REMARK    1  A    between atoms: C_6  and  C_42
REMARK    2  A    between atoms: C_7  and  O_28
REMARK    3  A    between atoms: C_10  and  O_30
REMARK    4  A    between atoms: C_13  and  O_32
REMARK    5  A    between atoms: C_19  and  O_34
REMARK    6  A    between atoms: C_20  and  O_38
REMARK    7  A    between atoms: C_21  and  O_36
REMARK    8  A    between atoms: O_38  and  C_40
REMARK    9  A    between atoms: C_42  and  C_44
REMARK   10  A    between atoms: C_42  and  O_52
REMARK   11  A    between atoms: C_45  and  C_47
REMARK   12  A    between atoms: C_47  and  C_49
REMARK                            x       y       z     vdW  Elec       q    Type
REMARK                         _______ _______ _______ _____ _____    ______ ____
ROOT
ATOM      1  O   UNL     1     -18.628  93.197  20.499  0.00  0.00    +0.000 OA
ATOM      2  O   UNL     1     -22.543  87.550  20.581  0.00  0.00    +0.000 OA
ATOM      3  O   UNL     1     -18.887  89.494  19.647  0.00  0.00    +0.000 OA
ATOM      4  O   UNL     1     -21.034  88.145  22.222  0.00  0.00    +0.000 OA
ATOM      5  O   UNL     1     -21.936  90.268  24.077  0.00  0.00    +0.000 OA
ATOM      6  C   UNL     1     -20.999  88.965  18.788  0.00  0.00    +0.000 C 
ATOM      7  C   UNL     1     -20.478  91.372  19.578  0.00  0.00    +0.000 C 
ATOM      8  C   UNL     1     -20.011  89.914  19.373  0.00  0.00    +0.000 C 
ATOM      9  C   UNL     1     -21.799  88.192  19.678  0.00  0.00    +0.000 C 
ATOM     10  C   UNL     1     -21.148  91.539  20.956  0.00  0.00    +0.000 C 
ATOM     11  C   UNL     1     -20.546  92.509  21.813  0.00  0.00    +0.000 C 
ATOM     12  C   UNL     1     -19.322  92.308  19.758  0.00  0.00    +0.000 C 
ATOM     13  C   UNL     1     -19.356  93.414  21.775  0.00  0.00    +0.000 C 
ATOM     14  C   UNL     1     -18.410  93.135  22.953  0.00  0.00    +0.000 C 
ATOM     15  C   UNL     1     -18.547  91.956  23.744  0.00  0.00    +0.000 C 
ATOM     16  C   UNL     1     -17.333  94.076  23.483  0.00  0.00    +0.000 C 
ATOM     17  C   UNL     1     -22.105  87.676  21.864  0.00  0.00    +0.000 C 
ATOM     18  C   UNL     1     -18.747  90.877  24.436  0.00  0.00    +0.000 C 
ATOM     19  C   UNL     1     -23.154  87.242  22.815  0.00  0.00    +0.000 C 
ATOM     20  C   UNL     1     -19.535  90.889  25.647  0.00  0.00    +0.000 C 
ATOM     21  C   UNL     1     -23.122  87.643  24.208  0.00  0.00    +0.000 C 
ATOM     22  C   UNL     1     -20.582  89.935  26.007  0.00  0.00    +0.000 C 
ATOM     23  C   UNL     1     -21.951  88.043  24.974  0.00  0.00    +0.000 C 
ATOM     24  C   UNL     1     -21.527  89.478  24.934  0.00  0.00    +0.000 C 
ATOM     25  C   UNL     1     -18.293  89.587  23.815  0.00  0.00    +0.000 C 
ATOM     26  C   UNL     1     -21.012  89.801  27.467  0.00  0.00    +0.000 C 
ATOM     27  C   UNL     1     -21.066  86.957  25.576  0.00  0.00    +0.000 C 
ENDROOT
BRANCH   7  28
ATOM     28  O   UNL     1     -21.336  91.895  18.585  0.00  0.00    +0.000 OA
ATOM     29  H   UNL     1     -21.475  91.181  17.937  0.00  0.00    +0.000 HD
ENDBRANCH   7  28
BRANCH  10  30
ATOM     30  O   UNL     1     -22.255  90.824  21.334  0.00  0.00    +0.000 OA
ATOM     31  H   UNL     1     -23.077  91.336  21.183  0.00  0.00    +0.000 HD
ENDBRANCH  10  30
BRANCH  13  32
ATOM     32  O   UNL     1     -19.830  94.758  21.805  0.00  0.00    +0.000 OA
ATOM     33  H   UNL     1     -19.732  95.091  20.898  0.00  0.00    +0.000 HD
ENDBRANCH  13  32
BRANCH  19  34
ATOM     34  O   UNL     1     -24.284  86.561  22.400  0.00  0.00    +0.000 OA
ATOM     35  H   UNL     1     -25.021  87.155  22.148  0.00  0.00    +0.000 HD
ENDBRANCH  19  34
BRANCH  21  36
ATOM     36  O   UNL     1     -24.232  87.264  24.945  0.00  0.00    +0.000 OA
ATOM     37  C   UNL     1     -24.969  88.388  25.356  0.00  0.00    +0.000 C 
ENDBRANCH  21  36
BRANCH  20  38
ATOM     38  O   UNL     1     -19.037  91.729  26.672  0.00  0.00    +0.000 OA
BRANCH  38  40
ATOM     39  O   UNL     1     -17.474  90.233  27.536  0.00  0.00    +0.000 OA
ATOM     40  C   UNL     1     -17.813  91.312  27.086  0.00  0.00    +0.000 C 
ATOM     41  C   UNL     1     -16.749  92.345  27.047  0.00  0.00    +0.000 C 
ENDBRANCH  38  40
ENDBRANCH  20  38
BRANCH   6  42
ATOM     42  C   UNL     1     -20.952  88.709  17.366  0.00  0.00    +0.000 C 
BRANCH  42  44
ATOM     43  O   UNL     1     -19.618  88.424  15.237  0.00  0.00    +0.000 OA
ATOM     44  C   UNL     1     -19.699  88.302  16.678  0.00  0.00    +0.000 C 
ATOM     45  C   UNL     1     -19.042  89.409  15.991  0.00  0.00    +0.000 C 
ATOM     46  C   UNL     1     -18.998  86.973  17.114  0.00  0.00    +0.000 C 
BRANCH  45  47
ATOM     47  C   UNL     1     -17.623  89.569  15.883  0.00  0.00    +0.000 C 
ATOM     48  C   UNL     1     -16.938  89.385  14.553  0.00  0.00    +0.000 C 
BRANCH  47  49
ATOM     49  C   UNL     1     -16.912  90.317  16.855  0.00  0.00    +0.000 C 
ATOM     50  C   UNL     1     -16.333  90.907  17.723  0.00  0.00    +0.000 C 
ATOM     51  C   UNL     1     -15.655  91.589  18.914  0.00  0.00    +0.000 C 
ENDBRANCH  47  49
ENDBRANCH  45  47
ENDBRANCH  42  44
BRANCH  42  52
ATOM     52  O   UNL     1     -22.163  88.840  16.698  0.00  0.00    +0.000 OA
ATOM     53  H   UNL     1     -22.927  88.785  17.307  0.00  0.00    +0.000 HD
ENDBRANCH  42  52
ENDBRANCH   6  42
TORSDOF 12
ENDMDL
MODEL 6
REMARK VINA RESULT:      -5.7     17.219     20.858
REMARK  Name = 101808842_CandidaspongiolideB.pdbqt.pdb
REMARK  12 active torsions:
REMARK  status: ('A' for Active; 'I' for Inactive)
REMARK    1  A    between atoms: C_6  and  C_42
REMARK    2  A    between atoms: C_7  and  O_28
REMARK    3  A    between atoms: C_10  and  O_30
REMARK    4  A    between atoms: C_13  and  O_32
REMARK    5  A    between atoms: C_19  and  O_34
REMARK    6  A    between atoms: C_20  and  O_38
REMARK    7  A    between atoms: C_21  and  O_36
REMARK    8  A    between atoms: O_38  and  C_40
REMARK    9  A    between atoms: C_42  and  C_44
REMARK   10  A    between atoms: C_42  and  O_52
REMARK   11  A    between atoms: C_45  and  C_47
REMARK   12  A    between atoms: C_47  and  C_49
REMARK                            x       y       z     vdW  Elec       q    Type
REMARK                         _______ _______ _______ _____ _____    ______ ____
ROOT
ATOM      1  O   UNL     1     -23.071 101.006   3.214  0.00  0.00    +0.000 OA
ATOM      2  O   UNL     1     -18.214  98.886   7.588  0.00  0.00    +0.000 OA
ATOM      3  O   UNL     1     -19.341 100.670   3.905  0.00  0.00    +0.000 OA
ATOM      4  O   UNL     1     -19.072 101.026   7.491  0.00  0.00    +0.000 OA
ATOM      5  O   UNL     1     -21.738 101.389   8.728  0.00  0.00    +0.000 OA
ATOM      6  C   UNL     1     -18.846  98.618   4.918  0.00  0.00    +0.000 C 
ATOM      7  C   UNL     1     -21.297  99.254   4.388  0.00  0.00    +0.000 C 
ATOM      8  C   UNL     1     -19.797  99.621   4.361  0.00  0.00    +0.000 C 
ATOM      9  C   UNL     1     -18.469  98.735   6.287  0.00  0.00    +0.000 C 
ATOM     10  C   UNL     1     -21.938  99.687   5.721  0.00  0.00    +0.000 C 
ATOM     11  C   UNL     1     -23.035 100.593   5.603  0.00  0.00    +0.000 C 
ATOM     12  C   UNL     1     -22.097 100.103   3.449  0.00  0.00    +0.000 C 
ATOM     13  C   UNL     1     -23.738 101.323   4.504  0.00  0.00    +0.000 C 
ATOM     14  C   UNL     1     -23.701 102.841   4.734  0.00  0.00    +0.000 C 
ATOM     15  C   UNL     1     -22.829 103.418   5.705  0.00  0.00    +0.000 C 
ATOM     16  C   UNL     1     -24.617 103.872   4.082  0.00  0.00    +0.000 C 
ATOM     17  C   UNL     1     -18.654 100.062   8.115  0.00  0.00    +0.000 C 
ATOM     18  C   UNL     1     -22.032 103.869   6.623  0.00  0.00    +0.000 C 
ATOM     19  C   UNL     1     -18.646 100.000   9.596  0.00  0.00    +0.000 C 
ATOM     20  C   UNL     1     -22.491 104.123   7.969  0.00  0.00    +0.000 C 
ATOM     21  C   UNL     1     -19.429 100.926  10.392  0.00  0.00    +0.000 C 
ATOM     22  C   UNL     1     -21.819 103.721   9.203  0.00  0.00    +0.000 C 
ATOM     23  C   UNL     1     -19.889 102.247   9.994  0.00  0.00    +0.000 C 
ATOM     24  C   UNL     1     -21.188 102.361   9.257  0.00  0.00    +0.000 C 
ATOM     25  C   UNL     1     -20.572 103.925   6.276  0.00  0.00    +0.000 C 
ATOM     26  C   UNL     1     -22.169 104.419  10.515  0.00  0.00    +0.000 C 
ATOM     27  C   UNL     1     -18.926 103.424  10.116  0.00  0.00    +0.000 C 
ENDROOT
BRANCH   7  28
ATOM     28  O   UNL     1     -21.609  97.896   4.151  0.00  0.00    +0.000 OA
ATOM     29  H   UNL     1     -22.582  97.836   4.133  0.00  0.00    +0.000 HD
ENDBRANCH   7  28
BRANCH  10  30
ATOM     30  O   UNL     1     -21.504  99.227   6.937  0.00  0.00    +0.000 OA
ATOM     31  H   UNL     1     -21.099  98.338   6.856  0.00  0.00    +0.000 HD
ENDBRANCH  10  30
BRANCH  13  32
ATOM     32  O   UNL     1     -25.079 100.845   4.451  0.00  0.00    +0.000 OA
ATOM     33  H   UNL     1     -25.065  99.974   4.880  0.00  0.00    +0.000 HD
ENDBRANCH  13  32
BRANCH  19  34
ATOM     34  O   UNL     1     -18.017  98.980  10.284  0.00  0.00    +0.000 OA
ATOM     35  H   UNL     1     -18.613  98.506  10.900  0.00  0.00    +0.000 HD
ENDBRANCH  19  34
BRANCH  21  36
ATOM     36  O   UNL     1     -19.419 100.668  11.753  0.00  0.00    +0.000 OA
ATOM     37  C   UNL     1     -20.492  99.834  12.114  0.00  0.00    +0.000 C 
ENDBRANCH  21  36
BRANCH  20  38
ATOM     38  O   UNL     1     -23.527 105.082   8.073  0.00  0.00    +0.000 OA
BRANCH  38  40
ATOM     39  O   UNL     1     -22.174 106.979   8.008  0.00  0.00    +0.000 OA
ATOM     40  C   UNL     1     -23.106 106.295   7.628  0.00  0.00    +0.000 C 
ATOM     41  C   UNL     1     -23.950 106.905   6.571  0.00  0.00    +0.000 C 
ENDBRANCH  38  40
ENDBRANCH  20  38
BRANCH   6  42
ATOM     42  C   UNL     1     -18.184  97.714   4.005  0.00  0.00    +0.000 C 
BRANCH  42  44
ATOM     43  O   UNL     1     -18.743  95.540   5.169  0.00  0.00    +0.000 OA
ATOM     44  C   UNL     1     -17.805  96.331   4.400  0.00  0.00    +0.000 C 
ATOM     45  C   UNL     1     -18.678  95.315   3.821  0.00  0.00    +0.000 C 
ATOM     46  C   UNL     1     -16.360  96.072   4.942  0.00  0.00    +0.000 C 
BRANCH  45  47
ATOM     47  C   UNL     1     -18.242  94.020   3.395  0.00  0.00    +0.000 C 
ATOM     48  C   UNL     1     -17.385  93.875   2.163  0.00  0.00    +0.000 C 
BRANCH  47  49
ATOM     49  C   UNL     1     -18.205  92.939   4.312  0.00  0.00    +0.000 C 
ATOM     50  C   UNL     1     -18.242  92.024   5.085  0.00  0.00    +0.000 C 
ATOM     51  C   UNL     1     -18.412  90.869   6.076  0.00  0.00    +0.000 C 
ENDBRANCH  47  49
ENDBRANCH  45  47
ENDBRANCH  42  44
BRANCH  42  52
ATOM     52  O   UNL     1     -17.957  98.216   2.731  0.00  0.00    +0.000 OA
ATOM     53  H   UNL     1     -18.171  99.168   2.666  0.00  0.00    +0.000 HD
ENDBRANCH  42  52
ENDBRANCH   6  42
TORSDOF 12
ENDMDL
MODEL 7
REMARK VINA RESULT:      -5.6      3.042      8.471
REMARK  Name = 101808842_CandidaspongiolideB.pdbqt.pdb
REMARK  12 active torsions:
REMARK  status: ('A' for Active; 'I' for Inactive)
REMARK    1  A    between atoms: C_6  and  C_42
REMARK    2  A    between atoms: C_7  and  O_28
REMARK    3  A    between atoms: C_10  and  O_30
REMARK    4  A    between atoms: C_13  and  O_32
REMARK    5  A    between atoms: C_19  and  O_34
REMARK    6  A    between atoms: C_20  and  O_38
REMARK    7  A    between atoms: C_21  and  O_36
REMARK    8  A    between atoms: O_38  and  C_40
REMARK    9  A    between atoms: C_42  and  C_44
REMARK   10  A    between atoms: C_42  and  O_52
REMARK   11  A    between atoms: C_45  and  C_47
REMARK   12  A    between atoms: C_47  and  C_49
REMARK                            x       y       z     vdW  Elec       q    Type
REMARK                         _______ _______ _______ _____ _____    ______ ____
ROOT
ATOM      1  O   UNL     1     -40.246 100.726  19.787  0.00  0.00    +0.000 OA
ATOM      2  O   UNL     1     -34.959  98.615  15.938  0.00  0.00    +0.000 OA
ATOM      3  O   UNL     1     -37.566 101.694  17.261  0.00  0.00    +0.000 OA
ATOM      4  O   UNL     1     -34.785  99.526  18.051  0.00  0.00    +0.000 OA
ATOM      5  O   UNL     1     -35.456  97.703  20.286  0.00  0.00    +0.000 OA
ATOM      6  C   UNL     1     -37.300 100.038  15.628  0.00  0.00    +0.000 C 
ATOM      7  C   UNL     1     -38.963  99.691  17.578  0.00  0.00    +0.000 C 
ATOM      8  C   UNL     1     -37.914 100.578  16.872  0.00  0.00    +0.000 C 
ATOM      9  C   UNL     1     -36.075  99.320  15.737  0.00  0.00    +0.000 C 
ATOM     10  C   UNL     1     -38.282  98.731  18.573  0.00  0.00    +0.000 C 
ATOM     11  C   UNL     1     -38.718  98.848  19.927  0.00  0.00    +0.000 C 
ATOM     12  C   UNL     1     -39.804 100.476  18.537  0.00  0.00    +0.000 C 
ATOM     13  C   UNL     1     -39.653  99.718  20.705  0.00  0.00    +0.000 C 
ATOM     14  C   UNL     1     -38.919 100.440  21.845  0.00  0.00    +0.000 C 
ATOM     15  C   UNL     1     -37.494 100.479  21.896  0.00  0.00    +0.000 C 
ATOM     16  C   UNL     1     -39.567 101.079  23.069  0.00  0.00    +0.000 C 
ATOM     17  C   UNL     1     -34.441  98.726  17.192  0.00  0.00    +0.000 C 
ATOM     18  C   UNL     1     -36.197 100.449  21.892  0.00  0.00    +0.000 C 
ATOM     19  C   UNL     1     -33.433  97.667  17.432  0.00  0.00    +0.000 C 
ATOM     20  C   UNL     1     -35.459  99.458  22.639  0.00  0.00    +0.000 C 
ATOM     21  C   UNL     1     -33.033  97.298  18.776  0.00  0.00    +0.000 C 
ATOM     22  C   UNL     1     -34.331  98.667  22.149  0.00  0.00    +0.000 C 
ATOM     23  C   UNL     1     -33.116  98.126  19.970  0.00  0.00    +0.000 C 
ATOM     24  C   UNL     1     -34.394  98.131  20.749  0.00  0.00    +0.000 C 
ATOM     25  C   UNL     1     -35.508 101.364  20.920  0.00  0.00    +0.000 C 
ATOM     26  C   UNL     1     -33.387  98.001  23.148  0.00  0.00    +0.000 C 
ATOM     27  C   UNL     1     -32.004  99.135  20.237  0.00  0.00    +0.000 C 
ENDROOT
BRANCH   7  28
ATOM     28  O   UNL     1     -39.815  98.945  16.733  0.00  0.00    +0.000 OA
ATOM     29  H   UNL     1     -40.357  99.593  16.246  0.00  0.00    +0.000 HD
ENDBRANCH   7  28
BRANCH  10  30
ATOM     30  O   UNL     1     -37.337  97.815  18.191  0.00  0.00    +0.000 OA
ATOM     31  H   UNL     1     -37.032  97.981  17.274  0.00  0.00    +0.000 HD
ENDBRANCH  10  30
BRANCH  13  32
ATOM     32  O   UNL     1     -40.699  98.893  21.210  0.00  0.00    +0.000 OA
ATOM     33  H   UNL     1     -40.784  98.160  20.578  0.00  0.00    +0.000 HD
ENDBRANCH  13  32
BRANCH  19  34
ATOM     34  O   UNL     1     -32.935  96.884  16.408  0.00  0.00    +0.000 OA
ATOM     35  H   UNL     1     -33.411  97.008  15.561  0.00  0.00    +0.000 HD
ENDBRANCH  19  34
BRANCH  21  36
ATOM     36  O   UNL     1     -32.177  96.211  18.846  0.00  0.00    +0.000 OA
ATOM     37  C   UNL     1     -32.815  95.108  19.441  0.00  0.00    +0.000 C 
ENDBRANCH  21  36
BRANCH  20  38
ATOM     38  O   UNL     1     -35.683  99.478  24.036  0.00  0.00    +0.000 OA
BRANCH  38  40
ATOM     39  O   UNL     1     -34.169 101.173  24.551  0.00  0.00    +0.000 OA
ATOM     40  C   UNL     1     -35.271 100.655  24.574  0.00  0.00    +0.000 C 
ATOM     41  C   UNL     1     -36.296 101.380  25.363  0.00  0.00    +0.000 C 
ENDBRANCH  38  40
ENDBRANCH  20  38
BRANCH   6  42
ATOM     42  C   UNL     1     -37.848 100.447  14.353  0.00  0.00    +0.000 C 
BRANCH  42  44
ATOM     43  O   UNL     1     -37.378 102.283  12.680  0.00  0.00    +0.000 OA
ATOM     44  C   UNL     1     -36.999 101.018  13.276  0.00  0.00    +0.000 C 
ATOM     45  C   UNL     1     -36.403 102.300  13.640  0.00  0.00    +0.000 C 
ATOM     46  C   UNL     1     -36.467 100.068  12.152  0.00  0.00    +0.000 C 
BRANCH  45  47
ATOM     47  C   UNL     1     -35.098 102.730  13.240  0.00  0.00    +0.000 C 
ATOM     48  C   UNL     1     -34.875 104.148  12.777  0.00  0.00    +0.000 C 
BRANCH  47  49
ATOM     49  C   UNL     1     -33.947 102.028  13.678  0.00  0.00    +0.000 C 
ATOM     50  C   UNL     1     -32.965 101.414  13.984  0.00  0.00    +0.000 C 
ATOM     51  C   UNL     1     -31.711 100.580  14.263  0.00  0.00    +0.000 C 
ENDBRANCH  47  49
ENDBRANCH  45  47
ENDBRANCH  42  44
BRANCH  42  52
ATOM     52  O   UNL     1     -39.213 100.238  14.199  0.00  0.00    +0.000 OA
ATOM     53  H   UNL     1     -39.668 100.126  15.058  0.00  0.00    +0.000 HD
ENDBRANCH  42  52
ENDBRANCH   6  42
TORSDOF 12
ENDMDL
MODEL 8
REMARK VINA RESULT:      -5.6     10.436     15.007
REMARK  Name = 101808842_CandidaspongiolideB.pdbqt.pdb
REMARK  12 active torsions:
REMARK  status: ('A' for Active; 'I' for Inactive)
REMARK    1  A    between atoms: C_6  and  C_42
REMARK    2  A    between atoms: C_7  and  O_28
REMARK    3  A    between atoms: C_10  and  O_30
REMARK    4  A    between atoms: C_13  and  O_32
REMARK    5  A    between atoms: C_19  and  O_34
REMARK    6  A    between atoms: C_20  and  O_38
REMARK    7  A    between atoms: C_21  and  O_36
REMARK    8  A    between atoms: O_38  and  C_40
REMARK    9  A    between atoms: C_42  and  C_44
REMARK   10  A    between atoms: C_42  and  O_52
REMARK   11  A    between atoms: C_45  and  C_47
REMARK   12  A    between atoms: C_47  and  C_49
REMARK                            x       y       z     vdW  Elec       q    Type
REMARK                         _______ _______ _______ _____ _____    ______ ____
ROOT
ATOM      1  O   UNL     1     -32.899  83.605  16.153  0.00  0.00    +0.000 OA
ATOM      2  O   UNL     1     -28.144  87.432  19.310  0.00  0.00    +0.000 OA
ATOM      3  O   UNL     1     -29.961  85.995  15.753  0.00  0.00    +0.000 OA
ATOM      4  O   UNL     1     -30.210  88.187  18.615  0.00  0.00    +0.000 OA
ATOM      5  O   UNL     1     -32.493  87.428  20.341  0.00  0.00    +0.000 OA
ATOM      6  C   UNL     1     -28.275  85.538  17.311  0.00  0.00    +0.000 C 
ATOM      7  C   UNL     1     -30.479  84.185  17.340  0.00  0.00    +0.000 C 
ATOM      8  C   UNL     1     -29.618  85.302  16.712  0.00  0.00    +0.000 C 
ATOM      9  C   UNL     1     -28.155  86.528  18.328  0.00  0.00    +0.000 C 
ATOM     10  C   UNL     1     -31.322  84.739  18.506  0.00  0.00    +0.000 C 
ATOM     11  C   UNL     1     -32.733  84.578  18.368  0.00  0.00    +0.000 C 
ATOM     12  C   UNL     1     -31.586  83.754  16.427  0.00  0.00    +0.000 C 
ATOM     13  C   UNL     1     -33.679  84.050  17.337  0.00  0.00    +0.000 C 
ATOM     14  C   UNL     1     -34.686  85.126  16.906  0.00  0.00    +0.000 C 
ATOM     15  C   UNL     1     -34.488  86.498  17.242  0.00  0.00    +0.000 C 
ATOM     16  C   UNL     1     -36.017  84.882  16.202  0.00  0.00    +0.000 C 
ATOM     17  C   UNL     1     -29.290  88.159  19.419  0.00  0.00    +0.000 C 
ATOM     18  C   UNL     1     -34.256  87.721  17.607  0.00  0.00    +0.000 C 
ATOM     19  C   UNL     1     -29.329  88.872  20.717  0.00  0.00    +0.000 C 
ATOM     20  C   UNL     1     -34.844  88.280  18.803  0.00  0.00    +0.000 C 
ATOM     21  C   UNL     1     -30.575  89.374  21.264  0.00  0.00    +0.000 C 
ATOM     22  C   UNL     1     -34.149  89.060  19.826  0.00  0.00    +0.000 C 
ATOM     23  C   UNL     1     -31.780  89.712  20.522  0.00  0.00    +0.000 C 
ATOM     24  C   UNL     1     -32.771  88.627  20.235  0.00  0.00    +0.000 C 
ATOM     25  C   UNL     1     -33.196  88.461  16.842  0.00  0.00    +0.000 C 
ATOM     26  C   UNL     1     -34.953  89.942  20.778  0.00  0.00    +0.000 C 
ATOM     27  C   UNL     1     -31.868  91.081  19.855  0.00  0.00    +0.000 C 
ENDROOT
BRANCH   7  28
ATOM     28  O   UNL     1     -29.783  83.038  17.783  0.00  0.00    +0.000 OA
ATOM     29  H   UNL     1     -30.117  82.842  18.677  0.00  0.00    +0.000 HD
ENDBRANCH   7  28
BRANCH  10  30
ATOM     30  O   UNL     1     -30.762  85.329  19.609  0.00  0.00    +0.000 OA
ATOM     31  H   UNL     1     -31.098  84.925  20.437  0.00  0.00    +0.000 HD
ENDBRANCH  10  30
BRANCH  13  32
ATOM     32  O   UNL     1     -34.344  82.919  17.893  0.00  0.00    +0.000 OA
ATOM     33  H   UNL     1     -35.229  82.911  17.494  0.00  0.00    +0.000 HD
ENDBRANCH  13  32
BRANCH  19  34
ATOM     34  O   UNL     1     -28.218  88.969  21.534  0.00  0.00    +0.000 OA
ATOM     35  H   UNL     1     -28.438  89.227  22.453  0.00  0.00    +0.000 HD
ENDBRANCH  19  34
BRANCH  21  36
ATOM     36  O   UNL     1     -30.473  89.908  22.538  0.00  0.00    +0.000 OA
ATOM     37  C   UNL     1     -31.718  90.390  22.980  0.00  0.00    +0.000 C 
ENDBRANCH  21  36
BRANCH  20  38
ATOM     38  O   UNL     1     -36.259  88.301  18.816  0.00  0.00    +0.000 OA
BRANCH  38  40
ATOM     39  O   UNL     1     -37.657  86.437  18.821  0.00  0.00    +0.000 OA
ATOM     40  C   UNL     1     -36.754  87.120  19.269  0.00  0.00    +0.000 C 
ATOM     41  C   UNL     1     -36.152  86.628  20.532  0.00  0.00    +0.000 C 
ENDBRANCH  38  40
ENDBRANCH  20  38
BRANCH   6  42
ATOM     42  C   UNL     1     -27.125  84.917  16.692  0.00  0.00    +0.000 C 
BRANCH  42  44
ATOM     43  O   UNL     1     -25.191  84.919  15.064  0.00  0.00    +0.000 OA
ATOM     44  C   UNL     1     -26.354  85.586  15.611  0.00  0.00    +0.000 C 
ATOM     45  C   UNL     1     -26.361  84.834  14.360  0.00  0.00    +0.000 C 
ATOM     46  C   UNL     1     -26.049  87.115  15.739  0.00  0.00    +0.000 C 
BRANCH  45  47
ATOM     47  C   UNL     1     -26.385  85.428  13.057  0.00  0.00    +0.000 C 
ATOM     48  C   UNL     1     -25.272  85.155  12.078  0.00  0.00    +0.000 C 
BRANCH  47  49
ATOM     49  C   UNL     1     -27.606  85.888  12.503  0.00  0.00    +0.000 C 
ATOM     50  C   UNL     1     -28.621  86.246  11.976  0.00  0.00    +0.000 C 
ATOM     51  C   UNL     1     -29.871  86.664  11.195  0.00  0.00    +0.000 C 
ENDBRANCH  47  49
ENDBRANCH  45  47
ENDBRANCH  42  44
BRANCH  42  52
ATOM     52  O   UNL     1     -26.775  83.673  17.200  0.00  0.00    +0.000 OA
ATOM     53  H   UNL     1     -25.814  83.603  17.374  0.00  0.00    +0.000 HD
ENDBRANCH  42  52
ENDBRANCH   6  42
TORSDOF 12
ENDMDL
MODEL 9
REMARK VINA RESULT:      -5.3      3.923      8.553
REMARK  Name = 101808842_CandidaspongiolideB.pdbqt.pdb
REMARK  12 active torsions:
REMARK  status: ('A' for Active; 'I' for Inactive)
REMARK    1  A    between atoms: C_6  and  C_42
REMARK    2  A    between atoms: C_7  and  O_28
REMARK    3  A    between atoms: C_10  and  O_30
REMARK    4  A    between atoms: C_13  and  O_32
REMARK    5  A    between atoms: C_19  and  O_34
REMARK    6  A    between atoms: C_20  and  O_38
REMARK    7  A    between atoms: C_21  and  O_36
REMARK    8  A    between atoms: O_38  and  C_40
REMARK    9  A    between atoms: C_42  and  C_44
REMARK   10  A    between atoms: C_42  and  O_52
REMARK   11  A    between atoms: C_45  and  C_47
REMARK   12  A    between atoms: C_47  and  C_49
REMARK                            x       y       z     vdW  Elec       q    Type
REMARK                         _______ _______ _______ _____ _____    ______ ____
ROOT
ATOM      1  O   UNL     1     -35.431  99.005  21.079  0.00  0.00    +0.000 OA
ATOM      2  O   UNL     1     -28.758 100.186  19.943  0.00  0.00    +0.000 OA
ATOM      3  O   UNL     1     -31.901  97.577  21.096  0.00  0.00    +0.000 OA
ATOM      4  O   UNL     1     -30.234  99.313  18.400  0.00  0.00    +0.000 OA
ATOM      5  O   UNL     1     -32.044 101.271  17.114  0.00  0.00    +0.000 OA
ATOM      6  C   UNL     1     -30.359  99.132  21.924  0.00  0.00    +0.000 C 
ATOM      7  C   UNL     1     -32.850  99.776  21.664  0.00  0.00    +0.000 C 
ATOM      8  C   UNL     1     -31.732  98.722  21.515  0.00  0.00    +0.000 C 
ATOM      9  C   UNL     1     -29.487  99.655  20.927  0.00  0.00    +0.000 C 
ATOM     10  C   UNL     1     -32.951 100.645  20.395  0.00  0.00    +0.000 C 
ATOM     11  C   UNL     1     -34.222 100.630  19.746  0.00  0.00    +0.000 C 
ATOM     12  C   UNL     1     -34.212  99.153  21.638  0.00  0.00    +0.000 C 
ATOM     13  C   UNL     1     -35.533  99.932  19.922  0.00  0.00    +0.000 C 
ATOM     14  C   UNL     1     -35.910  99.135  18.665  0.00  0.00    +0.000 C 
ATOM     15  C   UNL     1     -34.952  98.880  17.639  0.00  0.00    +0.000 C 
ATOM     16  C   UNL     1     -37.305  98.634  18.302  0.00  0.00    +0.000 C 
ATOM     17  C   UNL     1     -29.289 100.028  18.700  0.00  0.00    +0.000 C 
ATOM     18  C   UNL     1     -34.037  98.711  16.735  0.00  0.00    +0.000 C 
ATOM     19  C   UNL     1     -28.618 100.927  17.732  0.00  0.00    +0.000 C 
ATOM     20  C   UNL     1     -33.920  99.596  15.600  0.00  0.00    +0.000 C 
ATOM     21  C   UNL     1     -29.235 101.263  16.463  0.00  0.00    +0.000 C 
ATOM     22  C   UNL     1     -32.686 100.192  15.091  0.00  0.00    +0.000 C 
ATOM     23  C   UNL     1     -30.235 100.488  15.746  0.00  0.00    +0.000 C 
ATOM     24  C   UNL     1     -31.679 100.697  16.083  0.00  0.00    +0.000 C 
ATOM     25  C   UNL     1     -32.987  97.678  17.028  0.00  0.00    +0.000 C 
ATOM     26  C   UNL     1     -32.641 100.731  13.662  0.00  0.00    +0.000 C 
ATOM     27  C   UNL     1     -29.772  99.327  14.872  0.00  0.00    +0.000 C 
ENDROOT
BRANCH   7  28
ATOM     28  O   UNL     1     -32.760 100.623  22.792  0.00  0.00    +0.000 OA
ATOM     29  H   UNL     1     -33.670 100.741  23.121  0.00  0.00    +0.000 HD
ENDBRANCH   7  28
BRANCH  10  30
ATOM     30  O   UNL     1     -31.905 101.396  19.925  0.00  0.00    +0.000 OA
ATOM     31  H   UNL     1     -31.968 102.325  20.233  0.00  0.00    +0.000 HD
ENDBRANCH  10  30
BRANCH  13  32
ATOM     32  O   UNL     1     -36.517 100.920  20.218  0.00  0.00    +0.000 OA
ATOM     33  H   UNL     1     -37.229 100.452  20.681  0.00  0.00    +0.000 HD
ENDBRANCH  13  32
BRANCH  19  34
ATOM     34  O   UNL     1     -27.451 101.599  18.043  0.00  0.00    +0.000 OA
ATOM     35  H   UNL     1     -27.425 101.919  18.968  0.00  0.00    +0.000 HD
ENDBRANCH  19  34
BRANCH  21  36
ATOM     36  O   UNL     1     -28.548 102.208  15.719  0.00  0.00    +0.000 OA
ATOM     37  C   UNL     1     -29.259 103.420  15.667  0.00  0.00    +0.000 C 
ENDBRANCH  21  36
BRANCH  20  38
ATOM     38  O   UNL     1     -35.061  99.645  14.764  0.00  0.00    +0.000 OA
BRANCH  38  40
ATOM     39  O   UNL     1     -35.570 101.682  15.774  0.00  0.00    +0.000 OA
ATOM     40  C   UNL     1     -35.748 100.801  14.953  0.00  0.00    +0.000 C 
ATOM     41  C   UNL     1     -36.929 100.982  14.074  0.00  0.00    +0.000 C 
ENDBRANCH  38  40
ENDBRANCH  20  38
BRANCH   6  42
ATOM     42  C   UNL     1     -29.900  98.780  23.249  0.00  0.00    +0.000 C 
BRANCH  42  44
ATOM     43  O   UNL     1     -27.765 100.104  23.531  0.00  0.00    +0.000 OA
ATOM     44  C   UNL     1     -28.464  98.840  23.629  0.00  0.00    +0.000 C 
ATOM     45  C   UNL     1     -28.212  99.719  24.765  0.00  0.00    +0.000 C 
ATOM     46  C   UNL     1     -27.511  97.695  23.149  0.00  0.00    +0.000 C 
BRANCH  45  47
ATOM     47  C   UNL     1     -27.224  99.479  25.773  0.00  0.00    +0.000 C 
ATOM     48  C   UNL     1     -26.004 100.360  25.865  0.00  0.00    +0.000 C 
BRANCH  47  49
ATOM     49  C   UNL     1     -27.556  98.748  26.942  0.00  0.00    +0.000 C 
ATOM     50  C   UNL     1     -27.777  98.149  27.955  0.00  0.00    +0.000 C 
ATOM     51  C   UNL     1     -27.942  97.403  29.283  0.00  0.00    +0.000 C 
ENDBRANCH  47  49
ENDBRANCH  45  47
ENDBRANCH  42  44
BRANCH  42  52
ATOM     52  O   UNL     1     -30.896  98.415  24.146  0.00  0.00    +0.000 OA
ATOM     53  H   UNL     1     -31.690  98.067  23.693  0.00  0.00    +0.000 HD
ENDBRANCH  42  52
ENDBRANCH   6  42
TORSDOF 12
ENDMDL
