MODEL 1
REMARK VINA RESULT:      -6.1      0.000      0.000
REMARK  Name = 101808841_CandidaspongiolideA.pdbqt.pdb
REMARK  13 active torsions:
REMARK  status: ('A' for Active; 'I' for Inactive)
REMARK    1  A    between atoms: C_6  and  C_39
REMARK    2  A    between atoms: C_9  and  O_27
REMARK    3  A    between atoms: C_9  and  C_51
REMARK    4  A    between atoms: C_10  and  O_29
REMARK    5  A    between atoms: C_14  and  O_31
REMARK    6  A    between atoms: C_15  and  O_33
REMARK    7  A    between atoms: C_20  and  O_35
REMARK    8  A    between atoms: O_35  and  C_37
REMARK    9  A    between atoms: C_39  and  C_41
REMARK   10  A    between atoms: C_39  and  O_49
REMARK   11  A    between atoms: C_42  and  C_44
REMARK   12  A    between atoms: C_44  and  C_46
REMARK   13  A    between atoms: C_51  and  O_52
REMARK                            x       y       z     vdW  Elec       q    Type
REMARK                         _______ _______ _______ _____ _____    ______ ____
ROOT
ATOM      1  O   UNL     1     -35.368  98.567  17.290  0.00  0.00    +0.000 OA
ATOM      2  O   UNL     1     -38.010  98.949  14.103  0.00  0.00    +0.000 OA
ATOM      3  O   UNL     1     -36.101  96.452  17.848  0.00  0.00    +0.000 OA
ATOM      4  O   UNL     1     -36.764 105.195  15.816  0.00  0.00    +0.000 OA
ATOM      5  O   UNL     1     -33.463 100.627  16.814  0.00  0.00    +0.000 OA
ATOM      6  C   UNL     1     -37.856  99.354  16.418  0.00  0.00    +0.000 C 
ATOM      7  C   UNL     1     -37.930  99.800  14.991  0.00  0.00    +0.000 C 
ATOM      8  C   UNL     1     -36.588  98.935  16.908  0.00  0.00    +0.000 C 
ATOM      9  C   UNL     1     -37.801 101.327  14.743  0.00  0.00    +0.000 C 
ATOM     10  C   UNL     1     -36.361 101.777  14.921  0.00  0.00    +0.000 C 
ATOM     11  C   UNL     1     -36.010 103.078  15.387  0.00  0.00    +0.000 C 
ATOM     12  C   UNL     1     -35.214  97.271  17.650  0.00  0.00    +0.000 C 
ATOM     13  C   UNL     1     -35.802 104.435  15.867  0.00  0.00    +0.000 C 
ATOM     14  C   UNL     1     -33.780  96.907  17.738  0.00  0.00    +0.000 C 
ATOM     15  C   UNL     1     -32.682  97.843  17.613  0.00  0.00    +0.000 C 
ATOM     16  C   UNL     1     -34.461 104.850  16.391  0.00  0.00    +0.000 C 
ATOM     17  C   UNL     1     -32.512  99.086  18.356  0.00  0.00    +0.000 C 
ATOM     18  C   UNL     1     -31.446 101.356  17.880  0.00  0.00    +0.000 C 
ATOM     19  C   UNL     1     -32.543 100.372  17.593  0.00  0.00    +0.000 C 
ATOM     20  C   UNL     1     -31.611 102.747  17.453  0.00  0.00    +0.000 C 
ATOM     21  C   UNL     1     -33.334 103.991  16.342  0.00  0.00    +0.000 C 
ATOM     22  C   UNL     1     -32.315 103.195  16.273  0.00  0.00    +0.000 C 
ATOM     23  C   UNL     1     -34.194 106.211  16.997  0.00  0.00    +0.000 C 
ATOM     24  C   UNL     1     -32.976  99.140  19.813  0.00  0.00    +0.000 C 
ATOM     25  C   UNL     1     -30.136 100.901  18.512  0.00  0.00    +0.000 C 
ATOM     26  C   UNL     1     -32.020 102.628  14.907  0.00  0.00    +0.000 C 
ENDROOT
BRANCH   9  27
ATOM     27  O   UNL     1     -38.610 102.025  15.690  0.00  0.00    +0.000 OA
ATOM     28  H   UNL     1     -38.048 102.710  16.097  0.00  0.00    +0.000 HD
ENDBRANCH   9  27
BRANCH  10  29
ATOM     29  O   UNL     1     -35.354 100.892  14.588  0.00  0.00    +0.000 OA
ATOM     30  H   UNL     1     -35.339 100.086  15.138  0.00  0.00    +0.000 HD
ENDBRANCH  10  29
BRANCH  14  31
ATOM     31  O   UNL     1     -33.441  95.575  17.900  0.00  0.00    +0.000 OA
ATOM     32  H   UNL     1     -34.195  94.995  17.660  0.00  0.00    +0.000 HD
ENDBRANCH  14  31
BRANCH  15  33
ATOM     33  O   UNL     1     -31.511  97.277  17.136  0.00  0.00    +0.000 OA
ATOM     34  C   UNL     1     -31.052  97.982  16.013  0.00  0.00    +0.000 C 
ENDBRANCH  15  33
BRANCH  20  35
ATOM     35  O   UNL     1     -30.747 103.735  17.999  0.00  0.00    +0.000 OA
BRANCH  35  37
ATOM     36  O   UNL     1     -28.933 103.597  16.539  0.00  0.00    +0.000 OA
ATOM     37  C   UNL     1     -29.808 104.196  17.133  0.00  0.00    +0.000 C 
ATOM     38  C   UNL     1     -29.828 105.665  16.926  0.00  0.00    +0.000 C 
ENDBRANCH  35  37
ENDBRANCH  20  35
BRANCH   6  39
ATOM     39  C   UNL     1     -39.057  99.259  17.222  0.00  0.00    +0.000 C 
BRANCH  39  41
ATOM     40  O   UNL     1     -40.164  99.309  19.519  0.00  0.00    +0.000 OA
ATOM     41  C   UNL     1     -39.084  99.713  18.642  0.00  0.00    +0.000 C 
ATOM     42  C   UNL     1     -38.982  98.635  19.621  0.00  0.00    +0.000 C 
ATOM     43  C   UNL     1     -38.741 101.214  18.938  0.00  0.00    +0.000 C 
BRANCH  42  44
ATOM     44  C   UNL     1     -38.213  98.765  20.826  0.00  0.00    +0.000 C 
ATOM     45  C   UNL     1     -38.887  99.165  22.114  0.00  0.00    +0.000 C 
BRANCH  44  46
ATOM     46  C   UNL     1     -37.012  98.017  20.955  0.00  0.00    +0.000 C 
ATOM     47  C   UNL     1     -36.055  97.312  21.111  0.00  0.00    +0.000 C 
ATOM     48  C   UNL     1     -34.911  96.328  21.398  0.00  0.00    +0.000 C 
ENDBRANCH  44  46
ENDBRANCH  42  44
ENDBRANCH  39  41
BRANCH  39  49
ATOM     49  O   UNL     1     -40.227  99.052  16.506  0.00  0.00    +0.000 OA
ATOM     50  H   UNL     1     -40.110  99.201  15.547  0.00  0.00    +0.000 HD
ENDBRANCH  39  49
ENDBRANCH   6  39
BRANCH   9  51
ATOM     51  C   UNL     1     -38.250 101.678  13.374  0.00  0.00    +0.000 C 
BRANCH  51  52
ATOM     52  O   UNL     1     -38.675 102.005  12.154  0.00  0.00    +0.000 OA
ATOM     53  H   UNL     1     -39.476 102.560  12.206  0.00  0.00    +0.000 HD
ENDBRANCH  51  52
ENDBRANCH   9  51
TORSDOF 13
ENDMDL
MODEL 2
REMARK VINA RESULT:      -6.0      2.209      3.805
REMARK  Name = 101808841_CandidaspongiolideA.pdbqt.pdb
REMARK  13 active torsions:
REMARK  status: ('A' for Active; 'I' for Inactive)
REMARK    1  A    between atoms: C_6  and  C_39
REMARK    2  A    between atoms: C_9  and  O_27
REMARK    3  A    between atoms: C_9  and  C_51
REMARK    4  A    between atoms: C_10  and  O_29
REMARK    5  A    between atoms: C_14  and  O_31
REMARK    6  A    between atoms: C_15  and  O_33
REMARK    7  A    between atoms: C_20  and  O_35
REMARK    8  A    between atoms: O_35  and  C_37
REMARK    9  A    between atoms: C_39  and  C_41
REMARK   10  A    between atoms: C_39  and  O_49
REMARK   11  A    between atoms: C_42  and  C_44
REMARK   12  A    between atoms: C_44  and  C_46
REMARK   13  A    between atoms: C_51  and  O_52
REMARK                            x       y       z     vdW  Elec       q    Type
REMARK                         _______ _______ _______ _____ _____    ______ ____
ROOT
ATOM      1  O   UNL     1     -35.342  99.134  17.622  0.00  0.00    +0.000 OA
ATOM      2  O   UNL     1     -36.681 101.073  14.197  0.00  0.00    +0.000 OA
ATOM      3  O   UNL     1     -37.416  98.261  18.129  0.00  0.00    +0.000 OA
ATOM      4  O   UNL     1     -31.373 104.568  15.960  0.00  0.00    +0.000 OA
ATOM      5  O   UNL     1     -32.514  99.124  17.309  0.00  0.00    +0.000 OA
ATOM      6  C   UNL     1     -36.414 101.412  16.512  0.00  0.00    +0.000 C 
ATOM      7  C   UNL     1     -36.057 101.664  15.081  0.00  0.00    +0.000 C 
ATOM      8  C   UNL     1     -35.883 100.242  17.124  0.00  0.00    +0.000 C 
ATOM      9  C   UNL     1     -34.840 102.595  14.831  0.00  0.00    +0.000 C 
ATOM     10  C   UNL     1     -33.541 101.871  15.140  0.00  0.00    +0.000 C 
ATOM     11  C   UNL     1     -32.380 102.542  15.625  0.00  0.00    +0.000 C 
ATOM     12  C   UNL     1     -36.203  98.163  18.009  0.00  0.00    +0.000 C 
ATOM     13  C   UNL     1     -31.276 103.355  16.109  0.00  0.00    +0.000 C 
ATOM     14  C   UNL     1     -35.497  96.880  18.235  0.00  0.00    +0.000 C 
ATOM     15  C   UNL     1     -34.058  96.714  18.205  0.00  0.00    +0.000 C 
ATOM     16  C   UNL     1     -30.089 102.705  16.753  0.00  0.00    +0.000 C 
ATOM     17  C   UNL     1     -33.078  97.496  18.948  0.00  0.00    +0.000 C 
ATOM     18  C   UNL     1     -30.669  98.239  18.553  0.00  0.00    +0.000 C 
ATOM     19  C   UNL     1     -32.118  98.341  18.173  0.00  0.00    +0.000 C 
ATOM     20  C   UNL     1     -29.741  99.278  18.099  0.00  0.00    +0.000 C 
ATOM     21  C   UNL     1     -29.944 101.296  16.819  0.00  0.00    +0.000 C 
ATOM     22  C   UNL     1     -29.827 100.006  16.854  0.00  0.00    +0.000 C 
ATOM     23  C   UNL     1     -28.949 103.488  17.369  0.00  0.00    +0.000 C 
ATOM     24  C   UNL     1     -33.439  97.980  20.354  0.00  0.00    +0.000 C 
ATOM     25  C   UNL     1     -30.144  97.025  19.310  0.00  0.00    +0.000 C 
ATOM     26  C   UNL     1     -29.961  99.302  15.527  0.00  0.00    +0.000 C 
ENDROOT
BRANCH   9  27
ATOM     27  O   UNL     1     -34.937 103.731  15.692  0.00  0.00    +0.000 OA
ATOM     28  H   UNL     1     -35.849 104.067  15.621  0.00  0.00    +0.000 HD
ENDBRANCH   9  27
BRANCH  10  29
ATOM     29  O   UNL     1     -33.481 100.511  14.912  0.00  0.00    +0.000 OA
ATOM     30  H   UNL     1     -33.110 100.001  15.657  0.00  0.00    +0.000 HD
ENDBRANCH  10  29
BRANCH  14  31
ATOM     31  O   UNL     1     -36.247  95.736  18.440  0.00  0.00    +0.000 OA
ATOM     32  H   UNL     1     -36.773  95.519  17.642  0.00  0.00    +0.000 HD
ENDBRANCH  14  31
BRANCH  15  33
ATOM     33  O   UNL     1     -33.646  95.441  17.846  0.00  0.00    +0.000 OA
ATOM     34  C   UNL     1     -33.084  94.781  18.949  0.00  0.00    +0.000 C 
ENDBRANCH  15  33
BRANCH  20  35
ATOM     35  O   UNL     1     -28.464  99.368  18.715  0.00  0.00    +0.000 OA
BRANCH  35  37
ATOM     36  O   UNL     1     -28.001 101.441  19.680  0.00  0.00    +0.000 OA
ATOM     37  C   UNL     1     -28.388 100.288  19.710  0.00  0.00    +0.000 C 
ATOM     38  C   UNL     1     -28.793  99.787  21.047  0.00  0.00    +0.000 C 
ENDBRANCH  35  37
ENDBRANCH  20  35
BRANCH   6  39
ATOM     39  C   UNL     1     -37.348 102.279  17.201  0.00  0.00    +0.000 C 
BRANCH  39  41
ATOM     40  O   UNL     1     -38.006 102.626  19.641  0.00  0.00    +0.000 OA
ATOM     41  C   UNL     1     -37.058 102.816  18.561  0.00  0.00    +0.000 C 
ATOM     42  C   UNL     1     -36.925 101.795  19.596  0.00  0.00    +0.000 C 
ATOM     43  C   UNL     1     -36.470 104.265  18.668  0.00  0.00    +0.000 C 
BRANCH  42  44
ATOM     44  C   UNL     1     -35.940 101.883  20.636  0.00  0.00    +0.000 C 
ATOM     45  C   UNL     1     -36.286 101.460  22.042  0.00  0.00    +0.000 C 
BRANCH  44  46
ATOM     46  C   UNL     1     -34.565 101.818  20.285  0.00  0.00    +0.000 C 
ATOM     47  C   UNL     1     -33.387 101.720  20.081  0.00  0.00    +0.000 C 
ATOM     48  C   UNL     1     -31.865 101.565  19.961  0.00  0.00    +0.000 C 
ENDBRANCH  44  46
ENDBRANCH  42  44
ENDBRANCH  39  41
BRANCH  39  49
ATOM     49  O   UNL     1     -38.331 102.837  16.397  0.00  0.00    +0.000 OA
ATOM     50  H   UNL     1     -38.032 103.653  15.951  0.00  0.00    +0.000 HD
ENDBRANCH  39  49
ENDBRANCH   6  39
BRANCH   9  51
ATOM     51  C   UNL     1     -34.811 103.058  13.424  0.00  0.00    +0.000 C 
BRANCH  51  52
ATOM     52  O   UNL     1     -34.769 103.494  12.165  0.00  0.00    +0.000 OA
ATOM     53  H   UNL     1     -35.426 103.026  11.616  0.00  0.00    +0.000 HD
ENDBRANCH  51  52
ENDBRANCH   9  51
TORSDOF 13
ENDMDL
MODEL 3
REMARK VINA RESULT:      -5.8      1.923      8.175
REMARK  Name = 101808841_CandidaspongiolideA.pdbqt.pdb
REMARK  13 active torsions:
REMARK  status: ('A' for Active; 'I' for Inactive)
REMARK    1  A    between atoms: C_6  and  C_39
REMARK    2  A    between atoms: C_9  and  O_27
REMARK    3  A    between atoms: C_9  and  C_51
REMARK    4  A    between atoms: C_10  and  O_29
REMARK    5  A    between atoms: C_14  and  O_31
REMARK    6  A    between atoms: C_15  and  O_33
REMARK    7  A    between atoms: C_20  and  O_35
REMARK    8  A    between atoms: O_35  and  C_37
REMARK    9  A    between atoms: C_39  and  C_41
REMARK   10  A    between atoms: C_39  and  O_49
REMARK   11  A    between atoms: C_42  and  C_44
REMARK   12  A    between atoms: C_44  and  C_46
REMARK   13  A    between atoms: C_51  and  O_52
REMARK                            x       y       z     vdW  Elec       q    Type
REMARK                         _______ _______ _______ _____ _____    ______ ____
ROOT
ATOM      1  O   UNL     1     -34.389 100.259  15.136  0.00  0.00    +0.000 OA
ATOM      2  O   UNL     1     -31.305  97.581  15.913  0.00  0.00    +0.000 OA
ATOM      3  O   UNL     1     -33.555 100.863  13.072  0.00  0.00    +0.000 OA
ATOM      4  O   UNL     1     -33.426  99.261  21.928  0.00  0.00    +0.000 OA
ATOM      5  O   UNL     1     -36.381  99.535  17.034  0.00  0.00    +0.000 OA
ATOM      6  C   UNL     1     -31.880  99.848  16.189  0.00  0.00    +0.000 C 
ATOM      7  C   UNL     1     -31.614  98.470  16.709  0.00  0.00    +0.000 C 
ATOM      8  C   UNL     1     -33.165 100.102  15.632  0.00  0.00    +0.000 C 
ATOM      9  C   UNL     1     -31.850  98.254  18.228  0.00  0.00    +0.000 C 
ATOM     10  C   UNL     1     -33.337  98.200  18.535  0.00  0.00    +0.000 C 
ATOM     11  C   UNL     1     -33.886  98.642  19.775  0.00  0.00    +0.000 C 
ATOM     12  C   UNL     1     -34.473 100.545  13.815  0.00  0.00    +0.000 C 
ATOM     13  C   UNL     1     -34.303  99.124  21.082  0.00  0.00    +0.000 C 
ATOM     14  C   UNL     1     -35.858 100.377  13.318  0.00  0.00    +0.000 C 
ATOM     15  C   UNL     1     -37.007 100.098  14.155  0.00  0.00    +0.000 C 
ATOM     16  C   UNL     1     -35.747  99.426  21.346  0.00  0.00    +0.000 C 
ATOM     17  C   UNL     1     -37.420 100.841  15.339  0.00  0.00    +0.000 C 
ATOM     18  C   UNL     1     -38.609 100.266  17.523  0.00  0.00    +0.000 C 
ATOM     19  C   UNL     1     -37.388 100.137  16.659  0.00  0.00    +0.000 C 
ATOM     20  C   UNL     1     -38.514  99.919  18.943  0.00  0.00    +0.000 C 
ATOM     21  C   UNL     1     -36.760  99.158  20.392  0.00  0.00    +0.000 C 
ATOM     22  C   UNL     1     -37.671  98.891  19.510  0.00  0.00    +0.000 C 
ATOM     23  C   UNL     1     -36.243 100.022  22.646  0.00  0.00    +0.000 C 
ATOM     24  C   UNL     1     -37.211 102.357  15.364  0.00  0.00    +0.000 C 
ATOM     25  C   UNL     1     -39.955 100.651  16.920  0.00  0.00    +0.000 C 
ATOM     26  C   UNL     1     -37.678  97.477  18.986  0.00  0.00    +0.000 C 
ENDROOT
BRANCH   9  27
ATOM     27  O   UNL     1     -31.282  99.348  18.950  0.00  0.00    +0.000 OA
ATOM     28  H   UNL     1     -31.987  99.715  19.514  0.00  0.00    +0.000 HD
ENDBRANCH   9  27
BRANCH  10  29
ATOM     29  O   UNL     1     -34.183  97.672  17.580  0.00  0.00    +0.000 OA
ATOM     30  H   UNL     1     -34.988  98.203  17.427  0.00  0.00    +0.000 HD
ENDBRANCH  10  29
BRANCH  14  31
ATOM     31  O   UNL     1     -36.087 100.435  11.955  0.00  0.00    +0.000 OA
ATOM     32  H   UNL     1     -36.931  99.990  11.727  0.00  0.00    +0.000 HD
ENDBRANCH  14  31
BRANCH  15  33
ATOM     33  O   UNL     1     -38.021  99.411  13.509  0.00  0.00    +0.000 OA
ATOM     34  C   UNL     1     -39.133 100.246  13.320  0.00  0.00    +0.000 C 
ENDBRANCH  15  33
BRANCH  20  35
ATOM     35  O   UNL     1     -39.548 100.343  19.819  0.00  0.00    +0.000 OA
BRANCH  35  37
ATOM     36  O   UNL     1     -41.075  98.602  19.530  0.00  0.00    +0.000 OA
ATOM     37  C   UNL     1     -40.395  99.353  20.203  0.00  0.00    +0.000 C 
ATOM     38  C   UNL     1     -40.547  99.205  21.671  0.00  0.00    +0.000 C 
ENDBRANCH  35  37
ENDBRANCH  20  35
BRANCH   6  39
ATOM     39  C   UNL     1     -30.826 100.841  16.164  0.00  0.00    +0.000 C 
BRANCH  39  41
ATOM     40  O   UNL     1     -30.726 103.369  15.842  0.00  0.00    +0.000 OA
ATOM     41  C   UNL     1     -31.045 102.225  16.673  0.00  0.00    +0.000 C 
ATOM     42  C   UNL     1     -32.035 102.993  15.922  0.00  0.00    +0.000 C 
ATOM     43  C   UNL     1     -30.607 102.544  18.144  0.00  0.00    +0.000 C 
BRANCH  42  44
ATOM     44  C   UNL     1     -32.970 103.871  16.565  0.00  0.00    +0.000 C 
ATOM     45  C   UNL     1     -33.248 105.235  15.985  0.00  0.00    +0.000 C 
BRANCH  44  46
ATOM     46  C   UNL     1     -34.005 103.308  17.359  0.00  0.00    +0.000 C 
ATOM     47  C   UNL     1     -34.863 102.909  18.096  0.00  0.00    +0.000 C 
ATOM     48  C   UNL     1     -35.912 102.494  19.138  0.00  0.00    +0.000 C 
ENDBRANCH  44  46
ENDBRANCH  42  44
ENDBRANCH  39  41
BRANCH  39  49
ATOM     49  O   UNL     1     -29.549 100.335  15.970  0.00  0.00    +0.000 OA
ATOM     50  H   UNL     1     -29.057 100.228  16.807  0.00  0.00    +0.000 HD
ENDBRANCH  39  49
ENDBRANCH   6  39
BRANCH   9  51
ATOM     51  C   UNL     1     -31.218  96.994  18.685  0.00  0.00    +0.000 C 
BRANCH  51  52
ATOM     52  O   UNL     1     -30.624  95.871  19.089  0.00  0.00    +0.000 OA
ATOM     53  H   UNL     1     -31.284  95.229  19.410  0.00  0.00    +0.000 HD
ENDBRANCH  51  52
ENDBRANCH   9  51
TORSDOF 13
ENDMDL
MODEL 4
REMARK VINA RESULT:      -5.8     15.560     19.104
REMARK  Name = 101808841_CandidaspongiolideA.pdbqt.pdb
REMARK  13 active torsions:
REMARK  status: ('A' for Active; 'I' for Inactive)
REMARK    1  A    between atoms: C_6  and  C_39
REMARK    2  A    between atoms: C_9  and  O_27
REMARK    3  A    between atoms: C_9  and  C_51
REMARK    4  A    between atoms: C_10  and  O_29
REMARK    5  A    between atoms: C_14  and  O_31
REMARK    6  A    between atoms: C_15  and  O_33
REMARK    7  A    between atoms: C_20  and  O_35
REMARK    8  A    between atoms: O_35  and  C_37
REMARK    9  A    between atoms: C_39  and  C_41
REMARK   10  A    between atoms: C_39  and  O_49
REMARK   11  A    between atoms: C_42  and  C_44
REMARK   12  A    between atoms: C_44  and  C_46
REMARK   13  A    between atoms: C_51  and  O_52
REMARK                            x       y       z     vdW  Elec       q    Type
REMARK                         _______ _______ _______ _____ _____    ______ ____
ROOT
ATOM      1  O   UNL     1     -21.688 105.201   5.106  0.00  0.00    +0.000 OA
ATOM      2  O   UNL     1     -24.996 103.148   3.647  0.00  0.00    +0.000 OA
ATOM      3  O   UNL     1     -21.926 106.954   3.625  0.00  0.00    +0.000 OA
ATOM      4  O   UNL     1     -21.287  98.385   6.303  0.00  0.00    +0.000 OA
ATOM      5  O   UNL     1     -21.197 103.955   7.616  0.00  0.00    +0.000 OA
ATOM      6  C   UNL     1     -22.675 103.364   3.310  0.00  0.00    +0.000 C 
ATOM      7  C   UNL     1     -23.891 102.613   3.755  0.00  0.00    +0.000 C 
ATOM      8  C   UNL     1     -22.135 104.327   4.208  0.00  0.00    +0.000 C 
ATOM      9  C   UNL     1     -23.638 101.232   4.419  0.00  0.00    +0.000 C 
ATOM     10  C   UNL     1     -23.099 101.408   5.829  0.00  0.00    +0.000 C 
ATOM     11  C   UNL     1     -22.209 100.474   6.436  0.00  0.00    +0.000 C 
ATOM     12  C   UNL     1     -21.718 106.505   4.744  0.00  0.00    +0.000 C 
ATOM     13  C   UNL     1     -21.312  99.440   6.928  0.00  0.00    +0.000 C 
ATOM     14  C   UNL     1     -21.511 107.390   5.915  0.00  0.00    +0.000 C 
ATOM     15  C   UNL     1     -21.164 106.932   7.244  0.00  0.00    +0.000 C 
ATOM     16  C   UNL     1     -20.474  99.688   8.146  0.00  0.00    +0.000 C 
ATOM     17  C   UNL     1     -20.061 106.046   7.597  0.00  0.00    +0.000 C 
ATOM     18  C   UNL     1     -19.644 104.296   9.408  0.00  0.00    +0.000 C 
ATOM     19  C   UNL     1     -20.392 104.705   8.172  0.00  0.00    +0.000 C 
ATOM     20  C   UNL     1     -19.649 102.887   9.807  0.00  0.00    +0.000 C 
ATOM     21  C   UNL     1     -20.596 100.872   8.916  0.00  0.00    +0.000 C 
ATOM     22  C   UNL     1     -20.736 101.954   9.614  0.00  0.00    +0.000 C 
ATOM     23  C   UNL     1     -19.448  98.701   8.659  0.00  0.00    +0.000 C 
ATOM     24  C   UNL     1     -18.754 106.151   6.809  0.00  0.00    +0.000 C 
ATOM     25  C   UNL     1     -18.974 105.339  10.295  0.00  0.00    +0.000 C 
ATOM     26  C   UNL     1     -22.142 102.266  10.061  0.00  0.00    +0.000 C 
ENDROOT
BRANCH   9  27
ATOM     27  O   UNL     1     -22.670 100.515   3.653  0.00  0.00    +0.000 OA
ATOM     28  H   UNL     1     -23.029  99.622   3.502  0.00  0.00    +0.000 HD
ENDBRANCH   9  27
BRANCH  10  29
ATOM     29  O   UNL     1     -23.515 102.506   6.555  0.00  0.00    +0.000 OA
ATOM     30  H   UNL     1     -22.783 103.039   6.920  0.00  0.00    +0.000 HD
ENDBRANCH  10  29
BRANCH  14  31
ATOM     31  O   UNL     1     -21.708 108.751   5.762  0.00  0.00    +0.000 OA
ATOM     32  H   UNL     1     -21.722 109.198   6.635  0.00  0.00    +0.000 HD
ENDBRANCH  14  31
BRANCH  15  33
ATOM     33  O   UNL     1     -21.592 107.771   8.259  0.00  0.00    +0.000 OA
ATOM     34  C   UNL     1     -22.836 107.348   8.750  0.00  0.00    +0.000 C 
ENDBRANCH  15  33
BRANCH  20  35
ATOM     35  O   UNL     1     -18.695 102.446  10.763  0.00  0.00    +0.000 OA
BRANCH  35  37
ATOM     36  O   UNL     1     -19.768 102.979  12.766  0.00  0.00    +0.000 OA
ATOM     37  C   UNL     1     -19.209 102.218  12.000  0.00  0.00    +0.000 C 
ATOM     38  C   UNL     1     -19.006 100.838  12.507  0.00  0.00    +0.000 C 
ENDBRANCH  35  37
ENDBRANCH  20  35
BRANCH   6  39
ATOM     39  C   UNL     1     -22.146 103.181   1.974  0.00  0.00    +0.000 C 
BRANCH  39  41
ATOM     40  O   UNL     1     -22.865 103.487  -0.453  0.00  0.00    +0.000 OA
ATOM     41  C   UNL     1     -22.561 104.059   0.843  0.00  0.00    +0.000 C 
ATOM     42  C   UNL     1     -23.915 103.812   0.355  0.00  0.00    +0.000 C 
ATOM     43  C   UNL     1     -21.771 105.395   0.623  0.00  0.00    +0.000 C 
BRANCH  42  44
ATOM     44  C   UNL     1     -24.791 104.877  -0.042  0.00  0.00    +0.000 C 
ATOM     45  C   UNL     1     -25.297 104.950  -1.461  0.00  0.00    +0.000 C 
BRANCH  44  46
ATOM     46  C   UNL     1     -25.605 105.498   0.943  0.00  0.00    +0.000 C 
ATOM     47  C   UNL     1     -26.310 106.097   1.706  0.00  0.00    +0.000 C 
ATOM     48  C   UNL     1     -27.207 106.975   2.590  0.00  0.00    +0.000 C 
ENDBRANCH  44  46
ENDBRANCH  42  44
ENDBRANCH  39  41
BRANCH  39  49
ATOM     49  O   UNL     1     -21.007 102.392   1.898  0.00  0.00    +0.000 OA
ATOM     50  H   UNL     1     -20.523 102.512   1.058  0.00  0.00    +0.000 HD
ENDBRANCH  39  49
ENDBRANCH   6  39
BRANCH   9  51
ATOM     51  C   UNL     1     -24.890 100.440   4.478  0.00  0.00    +0.000 C 
BRANCH  51  52
ATOM     52  O   UNL     1     -26.029  99.750   4.522  0.00  0.00    +0.000 OA
ATOM     53  H   UNL     1     -26.171  99.378   5.412  0.00  0.00    +0.000 HD
ENDBRANCH  51  52
ENDBRANCH   9  51
TORSDOF 13
ENDMDL
MODEL 5
REMARK VINA RESULT:      -5.6      2.117      6.326
REMARK  Name = 101808841_CandidaspongiolideA.pdbqt.pdb
REMARK  13 active torsions:
REMARK  status: ('A' for Active; 'I' for Inactive)
REMARK    1  A    between atoms: C_6  and  C_39
REMARK    2  A    between atoms: C_9  and  O_27
REMARK    3  A    between atoms: C_9  and  C_51
REMARK    4  A    between atoms: C_10  and  O_29
REMARK    5  A    between atoms: C_14  and  O_31
REMARK    6  A    between atoms: C_15  and  O_33
REMARK    7  A    between atoms: C_20  and  O_35
REMARK    8  A    between atoms: O_35  and  C_37
REMARK    9  A    between atoms: C_39  and  C_41
REMARK   10  A    between atoms: C_39  and  O_49
REMARK   11  A    between atoms: C_42  and  C_44
REMARK   12  A    between atoms: C_44  and  C_46
REMARK   13  A    between atoms: C_51  and  O_52
REMARK                            x       y       z     vdW  Elec       q    Type
REMARK                         _______ _______ _______ _____ _____    ______ ____
ROOT
ATOM      1  O   UNL     1     -35.810 102.892  17.199  0.00  0.00    +0.000 OA
ATOM      2  O   UNL     1     -37.758  99.408  18.363  0.00  0.00    +0.000 OA
ATOM      3  O   UNL     1     -37.750 104.139  17.128  0.00  0.00    +0.000 OA
ATOM      4  O   UNL     1     -32.285  97.194  15.423  0.00  0.00    +0.000 OA
ATOM      5  O   UNL     1     -33.081 102.346  17.785  0.00  0.00    +0.000 OA
ATOM      6  C   UNL     1     -37.098 100.584  16.432  0.00  0.00    +0.000 C 
ATOM      7  C   UNL     1     -37.000  99.440  17.392  0.00  0.00    +0.000 C 
ATOM      8  C   UNL     1     -36.449 101.798  16.793  0.00  0.00    +0.000 C 
ATOM      9  C   UNL     1     -35.861  98.418  17.126  0.00  0.00    +0.000 C 
ATOM     10  C   UNL     1     -34.515  99.004  17.520  0.00  0.00    +0.000 C 
ATOM     11  C   UNL     1     -33.299  98.654  16.862  0.00  0.00    +0.000 C 
ATOM     12  C   UNL     1     -36.574 103.986  17.430  0.00  0.00    +0.000 C 
ATOM     13  C   UNL     1     -32.142  98.202  16.107  0.00  0.00    +0.000 C 
ATOM     14  C   UNL     1     -35.818 105.019  18.175  0.00  0.00    +0.000 C 
ATOM     15  C   UNL     1     -34.403 104.947  18.480  0.00  0.00    +0.000 C 
ATOM     16  C   UNL     1     -30.850  98.958  16.186  0.00  0.00    +0.000 C 
ATOM     17  C   UNL     1     -33.323 104.699  17.534  0.00  0.00    +0.000 C 
ATOM     18  C   UNL     1     -31.032 103.579  17.645  0.00  0.00    +0.000 C 
ATOM     19  C   UNL     1     -32.526 103.442  17.689  0.00  0.00    +0.000 C 
ATOM     20  C   UNL     1     -30.215 102.382  17.428  0.00  0.00    +0.000 C 
ATOM     21  C   UNL     1     -30.673 100.056  17.064  0.00  0.00    +0.000 C 
ATOM     22  C   UNL     1     -30.529 101.048  17.886  0.00  0.00    +0.000 C 
ATOM     23  C   UNL     1     -29.634  98.608  15.355  0.00  0.00    +0.000 C 
ATOM     24  C   UNL     1     -33.442 105.266  16.118  0.00  0.00    +0.000 C 
ATOM     25  C   UNL     1     -30.363 104.920  17.922  0.00  0.00    +0.000 C 
ATOM     26  C   UNL     1     -30.879 100.761  19.324  0.00  0.00    +0.000 C 
ENDROOT
BRANCH   9  27
ATOM     27  O   UNL     1     -35.826  98.109  15.732  0.00  0.00    +0.000 OA
ATOM     28  H   UNL     1     -34.970  98.425  15.390  0.00  0.00    +0.000 HD
ENDBRANCH   9  27
BRANCH  10  29
ATOM     29  O   UNL     1     -34.473  99.890  18.577  0.00  0.00    +0.000 OA
ATOM     30  H   UNL     1     -34.071  99.521  19.387  0.00  0.00    +0.000 HD
ENDBRANCH  10  29
BRANCH  14  31
ATOM     31  O   UNL     1     -36.500 106.117  18.668  0.00  0.00    +0.000 OA
ATOM     32  H   UNL     1     -35.905 106.682  19.205  0.00  0.00    +0.000 HD
ENDBRANCH  14  31
BRANCH  15  33
ATOM     33  O   UNL     1     -34.038 105.638  19.623  0.00  0.00    +0.000 OA
ATOM     34  C   UNL     1     -34.025 104.777  20.730  0.00  0.00    +0.000 C 
ENDBRANCH  15  33
BRANCH  20  35
ATOM     35  O   UNL     1     -28.852 102.544  17.062  0.00  0.00    +0.000 OA
BRANCH  35  37
ATOM     36  O   UNL     1     -29.200 103.085  14.819  0.00  0.00    +0.000 OA
ATOM     37  C   UNL     1     -28.626 102.509  15.723  0.00  0.00    +0.000 C 
ATOM     38  C   UNL     1     -27.545 101.584  15.304  0.00  0.00    +0.000 C 
ENDBRANCH  35  37
ENDBRANCH  20  35
BRANCH   6  39
ATOM     39  C   UNL     1     -37.913 100.476  15.240  0.00  0.00    +0.000 C 
BRANCH  39  41
ATOM     40  O   UNL     1     -38.312 102.012  13.244  0.00  0.00    +0.000 OA
ATOM     41  C   UNL     1     -37.473 101.057  13.939  0.00  0.00    +0.000 C 
ATOM     42  C   UNL     1     -37.263 102.501  13.965  0.00  0.00    +0.000 C 
ATOM     43  C   UNL     1     -36.842 100.089  12.880  0.00  0.00    +0.000 C 
BRANCH  42  44
ATOM     44  C   UNL     1     -36.176 103.129  13.268  0.00  0.00    +0.000 C 
ATOM     45  C   UNL     1     -36.347 104.509  12.687  0.00  0.00    +0.000 C 
BRANCH  44  46
ATOM     46  C   UNL     1     -34.846 102.747  13.589  0.00  0.00    +0.000 C 
ATOM     47  C   UNL     1     -33.753 102.327  13.848  0.00  0.00    +0.000 C 
ATOM     48  C   UNL     1     -32.414 101.657  14.191  0.00  0.00    +0.000 C 
ENDBRANCH  44  46
ENDBRANCH  42  44
ENDBRANCH  39  41
BRANCH  39  49
ATOM     49  O   UNL     1     -38.924  99.529  15.305  0.00  0.00    +0.000 OA
ATOM     50  H   UNL     1     -39.093  99.224  16.218  0.00  0.00    +0.000 HD
ENDBRANCH  39  49
ENDBRANCH   6  39
BRANCH   9  51
ATOM     51  C   UNL     1     -36.086  97.169  17.891  0.00  0.00    +0.000 C 
BRANCH  51  52
ATOM     52  O   UNL     1     -36.262  96.037  18.573  0.00  0.00    +0.000 OA
ATOM     53  H   UNL     1     -35.786  96.069  19.424  0.00  0.00    +0.000 HD
ENDBRANCH  51  52
ENDBRANCH   9  51
TORSDOF 13
ENDMDL
MODEL 6
REMARK VINA RESULT:      -5.5      2.155      4.137
REMARK  Name = 101808841_CandidaspongiolideA.pdbqt.pdb
REMARK  13 active torsions:
REMARK  status: ('A' for Active; 'I' for Inactive)
REMARK    1  A    between atoms: C_6  and  C_39
REMARK    2  A    between atoms: C_9  and  O_27
REMARK    3  A    between atoms: C_9  and  C_51
REMARK    4  A    between atoms: C_10  and  O_29
REMARK    5  A    between atoms: C_14  and  O_31
REMARK    6  A    between atoms: C_15  and  O_33
REMARK    7  A    between atoms: C_20  and  O_35
REMARK    8  A    between atoms: O_35  and  C_37
REMARK    9  A    between atoms: C_39  and  C_41
REMARK   10  A    between atoms: C_39  and  O_49
REMARK   11  A    between atoms: C_42  and  C_44
REMARK   12  A    between atoms: C_44  and  C_46
REMARK   13  A    between atoms: C_51  and  O_52
REMARK                            x       y       z     vdW  Elec       q    Type
REMARK                         _______ _______ _______ _____ _____    ______ ____
ROOT
ATOM      1  O   UNL     1     -32.834 101.007  15.412  0.00  0.00    +0.000 OA
ATOM      2  O   UNL     1     -35.834 100.836  12.539  0.00  0.00    +0.000 OA
ATOM      3  O   UNL     1     -31.945  98.959  14.833  0.00  0.00    +0.000 OA
ATOM      4  O   UNL     1     -38.317 104.895  17.106  0.00  0.00    +0.000 OA
ATOM      5  O   UNL     1     -32.790 103.754  16.152  0.00  0.00    +0.000 OA
ATOM      6  C   UNL     1     -35.397 100.236  14.774  0.00  0.00    +0.000 C 
ATOM      7  C   UNL     1     -36.078 101.059  13.726  0.00  0.00    +0.000 C 
ATOM      8  C   UNL     1     -34.068 100.599  15.131  0.00  0.00    +0.000 C 
ATOM      9  C   UNL     1     -36.981 102.213  14.241  0.00  0.00    +0.000 C 
ATOM     10  C   UNL     1     -36.135 103.367  14.751  0.00  0.00    +0.000 C 
ATOM     11  C   UNL     1     -36.557 104.226  15.807  0.00  0.00    +0.000 C 
ATOM     12  C   UNL     1     -31.833 100.139  15.133  0.00  0.00    +0.000 C 
ATOM     13  C   UNL     1     -37.117 105.023  16.887  0.00  0.00    +0.000 C 
ATOM     14  C   UNL     1     -30.513 100.811  15.179  0.00  0.00    +0.000 C 
ATOM     15  C   UNL     1     -30.296 102.175  15.618  0.00  0.00    +0.000 C 
ATOM     16  C   UNL     1     -36.238 105.947  17.673  0.00  0.00    +0.000 C 
ATOM     17  C   UNL     1     -30.750 102.765  16.872  0.00  0.00    +0.000 C 
ATOM     18  C   UNL     1     -31.464 105.096  17.628  0.00  0.00    +0.000 C 
ATOM     19  C   UNL     1     -31.752 103.874  16.806  0.00  0.00    +0.000 C 
ATOM     20  C   UNL     1     -32.548 106.045  17.893  0.00  0.00    +0.000 C 
ATOM     21  C   UNL     1     -34.878 106.162  17.337  0.00  0.00    +0.000 C 
ATOM     22  C   UNL     1     -33.642 106.354  17.001  0.00  0.00    +0.000 C 
ATOM     23  C   UNL     1     -36.725 106.732  18.873  0.00  0.00    +0.000 C 
ATOM     24  C   UNL     1     -30.772 101.893  18.128  0.00  0.00    +0.000 C 
ATOM     25  C   UNL     1     -30.047 105.404  18.097  0.00  0.00    +0.000 C 
ATOM     26  C   UNL     1     -33.409 106.753  15.565  0.00  0.00    +0.000 C 
ENDROOT
BRANCH   9  27
ATOM     27  O   UNL     1     -37.783 101.732  15.321  0.00  0.00    +0.000 OA
ATOM     28  H   UNL     1     -37.854 100.766  15.216  0.00  0.00    +0.000 HD
ENDBRANCH   9  27
BRANCH  10  29
ATOM     29  O   UNL     1     -34.919 103.604  14.141  0.00  0.00    +0.000 OA
ATOM     30  H   UNL     1     -34.983 103.772  13.182  0.00  0.00    +0.000 HD
ENDBRANCH  10  29
BRANCH  14  31
ATOM     31  O   UNL     1     -29.401 100.124  14.727  0.00  0.00    +0.000 OA
ATOM     32  H   UNL     1     -29.143 100.434  13.833  0.00  0.00    +0.000 HD
ENDBRANCH  14  31
BRANCH  15  33
ATOM     33  O   UNL     1     -29.189 102.781  15.049  0.00  0.00    +0.000 OA
ATOM     34  C   UNL     1     -28.176 102.942  16.005  0.00  0.00    +0.000 C 
ENDBRANCH  15  33
BRANCH  20  35
ATOM     35  O   UNL     1     -32.373 107.009  18.922  0.00  0.00    +0.000 OA
BRANCH  35  37
ATOM     36  O   UNL     1     -31.252 108.683  17.746  0.00  0.00    +0.000 OA
ATOM     37  C   UNL     1     -32.134 108.268  18.473  0.00  0.00    +0.000 C 
ATOM     38  C   UNL     1     -33.067 109.297  18.994  0.00  0.00    +0.000 C 
ENDBRANCH  35  37
ENDBRANCH  20  35
BRANCH   6  39
ATOM     39  C   UNL     1     -36.040  99.056  15.316  0.00  0.00    +0.000 C 
BRANCH  39  41
ATOM     40  O   UNL     1     -36.238  97.374  17.223  0.00  0.00    +0.000 OA
ATOM     41  C   UNL     1     -35.962  98.722  16.767  0.00  0.00    +0.000 C 
ATOM     42  C   UNL     1     -34.931  97.745  17.105  0.00  0.00    +0.000 C 
ATOM     43  C   UNL     1     -36.595  99.730  17.787  0.00  0.00    +0.000 C 
BRANCH  42  44
ATOM     44  C   UNL     1     -34.132  97.855  18.293  0.00  0.00    +0.000 C 
ATOM     45  C   UNL     1     -34.645  97.310  19.602  0.00  0.00    +0.000 C 
BRANCH  44  46
ATOM     46  C   UNL     1     -32.720  97.942  18.163  0.00  0.00    +0.000 C 
ATOM     47  C   UNL     1     -31.524  98.030  18.156  0.00  0.00    +0.000 C 
ATOM     48  C   UNL     1     -30.003  98.190  18.283  0.00  0.00    +0.000 C 
ENDBRANCH  44  46
ENDBRANCH  42  44
ENDBRANCH  39  41
BRANCH  39  49
ATOM     49  O   UNL     1     -36.989  98.474  14.489  0.00  0.00    +0.000 OA
ATOM     50  H   UNL     1     -37.076  98.938  13.634  0.00  0.00    +0.000 HD
ENDBRANCH  39  49
ENDBRANCH   6  39
BRANCH   9  51
ATOM     51  C   UNL     1     -37.870 102.706  13.163  0.00  0.00    +0.000 C 
BRANCH  51  52
ATOM     52  O   UNL     1     -38.664 103.176  12.200  0.00  0.00    +0.000 OA
ATOM     53  H   UNL     1     -38.342 104.039  11.879  0.00  0.00    +0.000 HD
ENDBRANCH  51  52
ENDBRANCH   9  51
TORSDOF 13
ENDMDL
MODEL 7
REMARK VINA RESULT:      -5.5     14.600     19.056
REMARK  Name = 101808841_CandidaspongiolideA.pdbqt.pdb
REMARK  13 active torsions:
REMARK  status: ('A' for Active; 'I' for Inactive)
REMARK    1  A    between atoms: C_6  and  C_39
REMARK    2  A    between atoms: C_9  and  O_27
REMARK    3  A    between atoms: C_9  and  C_51
REMARK    4  A    between atoms: C_10  and  O_29
REMARK    5  A    between atoms: C_14  and  O_31
REMARK    6  A    between atoms: C_15  and  O_33
REMARK    7  A    between atoms: C_20  and  O_35
REMARK    8  A    between atoms: O_35  and  C_37
REMARK    9  A    between atoms: C_39  and  C_41
REMARK   10  A    between atoms: C_39  and  O_49
REMARK   11  A    between atoms: C_42  and  C_44
REMARK   12  A    between atoms: C_44  and  C_46
REMARK   13  A    between atoms: C_51  and  O_52
REMARK                            x       y       z     vdW  Elec       q    Type
REMARK                         _______ _______ _______ _____ _____    ______ ____
ROOT
ATOM      1  O   UNL     1     -30.625  82.328  14.579  0.00  0.00    +0.000 OA
ATOM      2  O   UNL     1     -26.905  81.247  13.071  0.00  0.00    +0.000 OA
ATOM      3  O   UNL     1     -31.627  80.345  13.958  0.00  0.00    +0.000 OA
ATOM      4  O   UNL     1     -26.744  87.839  12.965  0.00  0.00    +0.000 OA
ATOM      5  O   UNL     1     -30.030  84.528  16.281  0.00  0.00    +0.000 OA
ATOM      6  C   UNL     1     -28.910  82.300  12.427  0.00  0.00    +0.000 C 
ATOM      7  C   UNL     1     -27.452  82.307  12.762  0.00  0.00    +0.000 C 
ATOM      8  C   UNL     1     -29.831  82.310  13.511  0.00  0.00    +0.000 C 
ATOM      9  C   UNL     1     -26.761  83.698  12.785  0.00  0.00    +0.000 C 
ATOM     10  C   UNL     1     -27.161  84.472  14.029  0.00  0.00    +0.000 C 
ATOM     11  C   UNL     1     -27.251  85.895  14.057  0.00  0.00    +0.000 C 
ATOM     12  C   UNL     1     -31.418  81.245  14.759  0.00  0.00    +0.000 C 
ATOM     13  C   UNL     1     -27.297  87.344  13.941  0.00  0.00    +0.000 C 
ATOM     14  C   UNL     1     -32.001  81.230  16.121  0.00  0.00    +0.000 C 
ATOM     15  C   UNL     1     -31.876  82.304  17.085  0.00  0.00    +0.000 C 
ATOM     16  C   UNL     1     -27.995  88.161  14.985  0.00  0.00    +0.000 C 
ATOM     17  C   UNL     1     -32.187  83.711  16.861  0.00  0.00    +0.000 C 
ATOM     18  C   UNL     1     -31.297  85.932  17.750  0.00  0.00    +0.000 C 
ATOM     19  C   UNL     1     -31.066  84.699  16.926  0.00  0.00    +0.000 C 
ATOM     20  C   UNL     1     -30.410  87.084  17.570  0.00  0.00    +0.000 C 
ATOM     21  C   UNL     1     -28.535  87.580  16.160  0.00  0.00    +0.000 C 
ATOM     22  C   UNL     1     -29.006  87.029  17.234  0.00  0.00    +0.000 C 
ATOM     23  C   UNL     1     -28.170  89.661  14.883  0.00  0.00    +0.000 C 
ATOM     24  C   UNL     1     -33.364  84.067  15.951  0.00  0.00    +0.000 C 
ATOM     25  C   UNL     1     -32.371  85.957  18.832  0.00  0.00    +0.000 C 
ATOM     26  C   UNL     1     -28.033  86.181  18.015  0.00  0.00    +0.000 C 
ENDROOT
BRANCH   9  27
ATOM     27  O   UNL     1     -27.174  84.444  11.639  0.00  0.00    +0.000 OA
ATOM     28  H   UNL     1     -26.638  85.257  11.619  0.00  0.00    +0.000 HD
ENDBRANCH   9  27
BRANCH  10  29
ATOM     29  O   UNL     1     -27.420  83.763  15.185  0.00  0.00    +0.000 OA
ATOM     30  H   UNL     1     -28.150  83.121  15.101  0.00  0.00    +0.000 HD
ENDBRANCH  10  29
BRANCH  14  31
ATOM     31  O   UNL     1     -32.675  80.098  16.544  0.00  0.00    +0.000 OA
ATOM     32  H   UNL     1     -32.143  79.293  16.367  0.00  0.00    +0.000 HD
ENDBRANCH  14  31
BRANCH  15  33
ATOM     33  O   UNL     1     -31.943  81.889  18.404  0.00  0.00    +0.000 OA
ATOM     34  C   UNL     1     -30.653  81.670  18.912  0.00  0.00    +0.000 C 
ENDBRANCH  15  33
BRANCH  20  35
ATOM     35  O   UNL     1     -30.814  88.343  18.092  0.00  0.00    +0.000 OA
BRANCH  35  37
ATOM     36  O   UNL     1     -32.523  88.855  16.589  0.00  0.00    +0.000 OA
ATOM     37  C   UNL     1     -31.514  89.110  17.217  0.00  0.00    +0.000 C 
ATOM     38  C   UNL     1     -30.922  90.445  16.956  0.00  0.00    +0.000 C 
ENDBRANCH  35  37
ENDBRANCH  20  35
BRANCH   6  39
ATOM     39  C   UNL     1     -29.348  82.180  11.051  0.00  0.00    +0.000 C 
BRANCH  39  41
ATOM     40  O   UNL     1     -31.536  80.952  10.591  0.00  0.00    +0.000 OA
ATOM     41  C   UNL     1     -30.087  80.978  10.569  0.00  0.00    +0.000 C 
ATOM     42  C   UNL     1     -30.927  81.216   9.399  0.00  0.00    +0.000 C 
ATOM     43  C   UNL     1     -29.560  79.568  11.008  0.00  0.00    +0.000 C 
BRANCH  42  44
ATOM     44  C   UNL     1     -31.045  80.261   8.334  0.00  0.00    +0.000 C 
ATOM     45  C   UNL     1     -32.368  79.589   8.065  0.00  0.00    +0.000 C 
BRANCH  44  46
ATOM     46  C   UNL     1     -30.155  80.353   7.231  0.00  0.00    +0.000 C 
ATOM     47  C   UNL     1     -29.425  80.331   6.280  0.00  0.00    +0.000 C 
ATOM     48  C   UNL     1     -28.504  80.158   5.063  0.00  0.00    +0.000 C 
ENDBRANCH  44  46
ENDBRANCH  42  44
ENDBRANCH  39  41
BRANCH  39  49
ATOM     49  O   UNL     1     -29.345  83.365  10.330  0.00  0.00    +0.000 OA
ATOM     50  H   UNL     1     -28.548  83.904  10.500  0.00  0.00    +0.000 HD
ENDBRANCH  39  49
ENDBRANCH   6  39
BRANCH   9  51
ATOM     51  C   UNL     1     -25.286  83.553  12.761  0.00  0.00    +0.000 C 
BRANCH  51  52
ATOM     52  O   UNL     1     -23.962  83.400  12.753  0.00  0.00    +0.000 OA
ATOM     53  H   UNL     1     -23.686  82.829  12.013  0.00  0.00    +0.000 HD
ENDBRANCH  51  52
ENDBRANCH   9  51
TORSDOF 13
ENDMDL
MODEL 8
REMARK VINA RESULT:      -5.4      2.285      8.331
REMARK  Name = 101808841_CandidaspongiolideA.pdbqt.pdb
REMARK  13 active torsions:
REMARK  status: ('A' for Active; 'I' for Inactive)
REMARK    1  A    between atoms: C_6  and  C_39
REMARK    2  A    between atoms: C_9  and  O_27
REMARK    3  A    between atoms: C_9  and  C_51
REMARK    4  A    between atoms: C_10  and  O_29
REMARK    5  A    between atoms: C_14  and  O_31
REMARK    6  A    between atoms: C_15  and  O_33
REMARK    7  A    between atoms: C_20  and  O_35
REMARK    8  A    between atoms: O_35  and  C_37
REMARK    9  A    between atoms: C_39  and  C_41
REMARK   10  A    between atoms: C_39  and  O_49
REMARK   11  A    between atoms: C_42  and  C_44
REMARK   12  A    between atoms: C_44  and  C_46
REMARK   13  A    between atoms: C_51  and  O_52
REMARK                            x       y       z     vdW  Elec       q    Type
REMARK                         _______ _______ _______ _____ _____    ______ ____
ROOT
ATOM      1  O   UNL     1     -34.342 100.759  15.408  0.00  0.00    +0.000 OA
ATOM      2  O   UNL     1     -32.896  97.101  16.756  0.00  0.00    +0.000 OA
ATOM      3  O   UNL     1     -32.598 101.082  13.933  0.00  0.00    +0.000 OA
ATOM      4  O   UNL     1     -36.586  99.237  21.787  0.00  0.00    +0.000 OA
ATOM      5  O   UNL     1     -37.047 100.761  16.290  0.00  0.00    +0.000 OA
ATOM      6  C   UNL     1     -32.757  99.408  17.207  0.00  0.00    +0.000 C 
ATOM      7  C   UNL     1     -33.191  98.013  17.531  0.00  0.00    +0.000 C 
ATOM      8  C   UNL     1     -33.547 100.140  16.278  0.00  0.00    +0.000 C 
ATOM      9  C   UNL     1     -34.077  97.847  18.796  0.00  0.00    +0.000 C 
ATOM     10  C   UNL     1     -35.489  98.338  18.527  0.00  0.00    +0.000 C 
ATOM     11  C   UNL     1     -36.313  98.909  19.540  0.00  0.00    +0.000 C 
ATOM     12  C   UNL     1     -33.787 101.102  14.222  0.00  0.00    +0.000 C 
ATOM     13  C   UNL     1     -37.039  99.465  20.671  0.00  0.00    +0.000 C 
ATOM     14  C   UNL     1     -34.825 101.478  13.234  0.00  0.00    +0.000 C 
ATOM     15  C   UNL     1     -36.236 101.617  13.532  0.00  0.00    +0.000 C 
ATOM     16  C   UNL     1     -38.281 100.273  20.443  0.00  0.00    +0.000 C 
ATOM     17  C   UNL     1     -36.822 102.419  14.599  0.00  0.00    +0.000 C 
ATOM     18  C   UNL     1     -38.909 102.250  16.060  0.00  0.00    +0.000 C 
ATOM     19  C   UNL     1     -37.559 101.707  15.689  0.00  0.00    +0.000 C 
ATOM     20  C   UNL     1     -39.514 101.843  17.330  0.00  0.00    +0.000 C 
ATOM     21  C   UNL     1     -38.849 100.435  19.154  0.00  0.00    +0.000 C 
ATOM     22  C   UNL     1     -39.359 100.556  17.969  0.00  0.00    +0.000 C 
ATOM     23  C   UNL     1     -39.034 100.965  21.559  0.00  0.00    +0.000 C 
ATOM     24  C   UNL     1     -36.158 103.746  14.970  0.00  0.00    +0.000 C 
ATOM     25  C   UNL     1     -39.689 103.129  15.090  0.00  0.00    +0.000 C 
ATOM     26  C   UNL     1     -39.616  99.266  17.233  0.00  0.00    +0.000 C 
ENDROOT
BRANCH   9  27
ATOM     27  O   UNL     1     -33.524  98.625  19.858  0.00  0.00    +0.000 OA
ATOM     28  H   UNL     1     -34.226  99.226  20.167  0.00  0.00    +0.000 HD
ENDBRANCH   9  27
BRANCH  10  29
ATOM     29  O   UNL     1     -35.998  98.197  17.251  0.00  0.00    +0.000 OA
ATOM     30  H   UNL     1     -36.900  98.554  17.144  0.00  0.00    +0.000 HD
ENDBRANCH  10  29
BRANCH  14  31
ATOM     31  O   UNL     1     -34.451 101.665  11.915  0.00  0.00    +0.000 OA
ATOM     32  H   UNL     1     -33.987 102.522  11.805  0.00  0.00    +0.000 HD
ENDBRANCH  14  31
BRANCH  15  33
ATOM     33  O   UNL     1     -37.066 101.379  12.449  0.00  0.00    +0.000 OA
ATOM     34  C   UNL     1     -37.637 100.101  12.544  0.00  0.00    +0.000 C 
ENDBRANCH  15  33
BRANCH  20  35
ATOM     35  O   UNL     1     -40.613 102.590  17.832  0.00  0.00    +0.000 OA
BRANCH  35  37
ATOM     36  O   UNL     1     -39.308 103.893  19.262  0.00  0.00    +0.000 OA
ATOM     37  C   UNL     1     -40.260 103.700  18.531  0.00  0.00    +0.000 C 
ATOM     38  C   UNL     1     -41.217 104.829  18.420  0.00  0.00    +0.000 C 
ENDBRANCH  35  37
ENDBRANCH  20  35
BRANCH   6  39
ATOM     39  C   UNL     1     -31.521  99.939  17.746  0.00  0.00    +0.000 C 
BRANCH  39  41
ATOM     40  O   UNL     1     -30.163  99.578  15.618  0.00  0.00    +0.000 OA
ATOM     41  C   UNL     1     -30.215  99.726  17.059  0.00  0.00    +0.000 C 
ATOM     42  C   UNL     1     -29.838 100.796  16.139  0.00  0.00    +0.000 C 
ATOM     43  C   UNL     1     -29.206  98.713  17.699  0.00  0.00    +0.000 C 
BRANCH  42  44
ATOM     44  C   UNL     1     -28.486 101.262  16.021  0.00  0.00    +0.000 C 
ATOM     45  C   UNL     1     -27.695 100.975  14.770  0.00  0.00    +0.000 C 
BRANCH  44  46
ATOM     46  C   UNL     1     -28.090 102.408  16.761  0.00  0.00    +0.000 C 
ATOM     47  C   UNL     1     -27.816 103.431  17.324  0.00  0.00    +0.000 C 
ATOM     48  C   UNL     1     -27.531 104.810  17.935  0.00  0.00    +0.000 C 
ENDBRANCH  44  46
ENDBRANCH  42  44
ENDBRANCH  39  41
BRANCH  39  49
ATOM     49  O   UNL     1     -31.678 100.917  18.717  0.00  0.00    +0.000 OA
ATOM     50  H   UNL     1     -31.020 101.634  18.636  0.00  0.00    +0.000 HD
ENDBRANCH  39  49
ENDBRANCH   6  39
BRANCH   9  51
ATOM     51  C   UNL     1     -34.132  96.427  19.216  0.00  0.00    +0.000 C 
BRANCH  51  52
ATOM     52  O   UNL     1     -34.171  95.142  19.570  0.00  0.00    +0.000 OA
ATOM     53  H   UNL     1     -34.558  95.042  20.460  0.00  0.00    +0.000 HD
ENDBRANCH  51  52
ENDBRANCH   9  51
TORSDOF 13
ENDMDL
MODEL 9
REMARK VINA RESULT:      -5.4      2.038      8.293
REMARK  Name = 101808841_CandidaspongiolideA.pdbqt.pdb
REMARK  13 active torsions:
REMARK  status: ('A' for Active; 'I' for Inactive)
REMARK    1  A    between atoms: C_6  and  C_39
REMARK    2  A    between atoms: C_9  and  O_27
REMARK    3  A    between atoms: C_9  and  C_51
REMARK    4  A    between atoms: C_10  and  O_29
REMARK    5  A    between atoms: C_14  and  O_31
REMARK    6  A    between atoms: C_15  and  O_33
REMARK    7  A    between atoms: C_20  and  O_35
REMARK    8  A    between atoms: O_35  and  C_37
REMARK    9  A    between atoms: C_39  and  C_41
REMARK   10  A    between atoms: C_39  and  O_49
REMARK   11  A    between atoms: C_42  and  C_44
REMARK   12  A    between atoms: C_44  and  C_46
REMARK   13  A    between atoms: C_51  and  O_52
REMARK                            x       y       z     vdW  Elec       q    Type
REMARK                         _______ _______ _______ _____ _____    ______ ____
ROOT
ATOM      1  O   UNL     1     -33.539 100.888  15.259  0.00  0.00    +0.000 OA
ATOM      2  O   UNL     1     -31.317  97.490  16.153  0.00  0.00    +0.000 OA
ATOM      3  O   UNL     1     -32.188 101.498  13.492  0.00  0.00    +0.000 OA
ATOM      4  O   UNL     1     -34.233  98.964  21.882  0.00  0.00    +0.000 OA
ATOM      5  O   UNL     1     -35.987 100.454  16.642  0.00  0.00    +0.000 OA
ATOM      6  C   UNL     1     -31.446  99.785  16.665  0.00  0.00    +0.000 C 
ATOM      7  C   UNL     1     -31.590  98.336  17.007  0.00  0.00    +0.000 C 
ATOM      8  C   UNL     1     -32.505 100.394  15.935  0.00  0.00    +0.000 C 
ATOM      9  C   UNL     1     -32.175  98.018  18.410  0.00  0.00    +0.000 C 
ATOM     10  C   UNL     1     -33.670  98.284  18.438  0.00  0.00    +0.000 C 
ATOM     11  C   UNL     1     -34.358  98.707  19.613  0.00  0.00    +0.000 C 
ATOM     12  C   UNL     1     -33.286 101.327  14.004  0.00  0.00    +0.000 C 
ATOM     13  C   UNL     1     -34.925  99.129  20.884  0.00  0.00    +0.000 C 
ATOM     14  C   UNL     1     -34.542 101.546  13.250  0.00  0.00    +0.000 C 
ATOM     15  C   UNL     1     -35.872 101.457  13.818  0.00  0.00    +0.000 C 
ATOM     16  C   UNL     1     -36.296  99.733  20.932  0.00  0.00    +0.000 C 
ATOM     17  C   UNL     1     -36.354 102.145  15.009  0.00  0.00    +0.000 C 
ATOM     18  C   UNL     1     -38.063 101.634  16.835  0.00  0.00    +0.000 C 
ATOM     19  C   UNL     1     -36.745 101.315  16.191  0.00  0.00    +0.000 C 
ATOM     20  C   UNL     1     -38.338 101.123  18.180  0.00  0.00    +0.000 C 
ATOM     21  C   UNL     1     -37.123  99.818  19.783  0.00  0.00    +0.000 C 
ATOM     22  C   UNL     1     -37.867  99.870  18.724  0.00  0.00    +0.000 C 
ATOM     23  C   UNL     1     -36.913 100.286  22.199  0.00  0.00    +0.000 C 
ATOM     24  C   UNL     1     -35.840 103.556  15.301  0.00  0.00    +0.000 C 
ATOM     25  C   UNL     1     -39.143 102.389  16.070  0.00  0.00    +0.000 C 
ATOM     26  C   UNL     1     -38.063  98.563  17.998  0.00  0.00    +0.000 C 
ENDROOT
BRANCH   9  27
ATOM     27  O   UNL     1     -31.550  98.862  19.379  0.00  0.00    +0.000 OA
ATOM     28  H   UNL     1     -31.229  99.651  18.906  0.00  0.00    +0.000 HD
ENDBRANCH   9  27
BRANCH  10  29
ATOM     29  O   UNL     1     -34.392  98.078  17.279  0.00  0.00    +0.000 OA
ATOM     30  H   UNL     1     -35.157  97.482  17.390  0.00  0.00    +0.000 HD
ENDBRANCH  10  29
BRANCH  14  31
ATOM     31  O   UNL     1     -34.467 101.803  11.892  0.00  0.00    +0.000 OA
ATOM     32  H   UNL     1     -35.112 101.252  11.400  0.00  0.00    +0.000 HD
ENDBRANCH  14  31
BRANCH  15  33
ATOM     33  O   UNL     1     -36.852 101.103  12.906  0.00  0.00    +0.000 OA
ATOM     34  C   UNL     1     -37.053  99.714  12.921  0.00  0.00    +0.000 C 
ENDBRANCH  15  33
BRANCH  20  35
ATOM     35  O   UNL     1     -39.419 101.682  18.914  0.00  0.00    +0.000 OA
BRANCH  35  37
ATOM     36  O   UNL     1     -38.248 103.551  19.675  0.00  0.00    +0.000 OA
ATOM     37  C   UNL     1     -39.054 102.649  19.795  0.00  0.00    +0.000 C 
ATOM     38  C   UNL     1     -39.707 102.550  21.124  0.00  0.00    +0.000 C 
ENDBRANCH  35  37
ENDBRANCH  20  35
BRANCH   6  39
ATOM     39  C   UNL     1     -30.224 100.498  16.978  0.00  0.00    +0.000 C 
BRANCH  39  41
ATOM     40  O   UNL     1     -29.067 102.742  17.338  0.00  0.00    +0.000 OA
ATOM     41  C   UNL     1     -30.245 101.907  17.464  0.00  0.00    +0.000 C 
ATOM     42  C   UNL     1     -30.059 102.908  16.416  0.00  0.00    +0.000 C 
ATOM     43  C   UNL     1     -30.910 102.194  18.854  0.00  0.00    +0.000 C 
BRANCH  42  44
ATOM     44  C   UNL     1     -30.789 104.143  16.400  0.00  0.00    +0.000 C 
ATOM     45  C   UNL     1     -32.289 104.132  16.242  0.00  0.00    +0.000 C 
BRANCH  44  46
ATOM     46  C   UNL     1     -30.239 105.273  17.063  0.00  0.00    +0.000 C 
ATOM     47  C   UNL     1     -29.854 106.281  17.585  0.00  0.00    +0.000 C 
ATOM     48  C   UNL     1     -29.458 107.644  18.172  0.00  0.00    +0.000 C 
ENDBRANCH  44  46
ENDBRANCH  42  44
ENDBRANCH  39  41
BRANCH  39  49
ATOM     49  O   UNL     1     -29.101  99.697  17.127  0.00  0.00    +0.000 OA
ATOM     50  H   UNL     1     -28.275 100.165  16.897  0.00  0.00    +0.000 HD
ENDBRANCH  39  49
ENDBRANCH   6  39
BRANCH   9  51
ATOM     51  C   UNL     1     -31.930  96.603  18.775  0.00  0.00    +0.000 C 
BRANCH  51  52
ATOM     52  O   UNL     1     -31.733  95.329  19.116  0.00  0.00    +0.000 OA
ATOM     53  H   UNL     1     -31.877  95.203  20.072  0.00  0.00    +0.000 HD
ENDBRANCH  51  52
ENDBRANCH   9  51
TORSDOF 13
ENDMDL
