MODEL 1
REMARK VINA RESULT:      -5.7      0.000      0.000
REMARK  Name = 102471178_CandidaspongiolideCore.pdbqt.pdb
REMARK  13 active torsions:
REMARK  status: ('A' for Active; 'I' for Inactive)
REMARK    1  A    between atoms: C_6  and  C_39
REMARK    2  A    between atoms: C_8  and  O_27
REMARK    3  A    between atoms: C_8  and  C_51
REMARK    4  A    between atoms: C_10  and  O_29
REMARK    5  A    between atoms: C_15  and  O_31
REMARK    6  A    between atoms: C_16  and  O_33
REMARK    7  A    between atoms: C_21  and  O_35
REMARK    8  A    between atoms: O_35  and  C_37
REMARK    9  A    between atoms: C_39  and  C_41
REMARK   10  A    between atoms: C_39  and  O_49
REMARK   11  A    between atoms: C_42  and  C_44
REMARK   12  A    between atoms: C_44  and  C_46
REMARK   13  A    between atoms: C_51  and  O_52
REMARK                            x       y       z     vdW  Elec       q    Type
REMARK                         _______ _______ _______ _____ _____    ______ ____
ROOT
ATOM      1  O   UNL     1     -33.242 100.455  19.900  0.00  0.00    +0.000 OA
ATOM      2  O   UNL     1     -34.021 101.042  17.821  0.00  0.00    +0.000 OA
ATOM      3  O   UNL     1     -33.822 101.685  12.923  0.00  0.00    +0.000 OA
ATOM      4  O   UNL     1     -34.966  99.223  20.679  0.00  0.00    +0.000 OA
ATOM      5  O   UNL     1     -37.333 100.879  18.668  0.00  0.00    +0.000 OA
ATOM      6  C   UNL     1     -31.677 100.714  18.209  0.00  0.00    +0.000 C 
ATOM      7  C   UNL     1     -31.158 101.538  17.173  0.00  0.00    +0.000 C 
ATOM      8  C   UNL     1     -30.491 102.411  16.203  0.00  0.00    +0.000 C 
ATOM      9  C   UNL     1     -33.114 100.754  18.591  0.00  0.00    +0.000 C 
ATOM     10  C   UNL     1     -30.730 101.968  14.776  0.00  0.00    +0.000 C 
ATOM     11  C   UNL     1     -31.978 101.513  14.274  0.00  0.00    +0.000 C 
ATOM     12  C   UNL     1     -33.289 101.074  13.844  0.00  0.00    +0.000 C 
ATOM     13  C   UNL     1     -34.505 100.307  20.340  0.00  0.00    +0.000 C 
ATOM     14  C   UNL     1     -33.976  99.944  14.539  0.00  0.00    +0.000 C 
ATOM     15  C   UNL     1     -35.221 101.557  20.697  0.00  0.00    +0.000 C 
ATOM     16  C   UNL     1     -35.274 102.741  19.864  0.00  0.00    +0.000 C 
ATOM     17  C   UNL     1     -36.265 103.005  18.829  0.00  0.00    +0.000 C 
ATOM     18  C   UNL     1     -35.390  99.932  14.625  0.00  0.00    +0.000 C 
ATOM     19  C   UNL     1     -36.780 101.877  16.586  0.00  0.00    +0.000 C 
ATOM     20  C   UNL     1     -33.227  98.949  15.414  0.00  0.00    +0.000 C 
ATOM     21  C   UNL     1     -37.300 100.721  15.864  0.00  0.00    +0.000 C 
ATOM     22  C   UNL     1     -36.855 101.853  18.083  0.00  0.00    +0.000 C 
ATOM     23  C   UNL     1     -36.679 100.027  14.745  0.00  0.00    +0.000 C 
ATOM     24  C   UNL     1     -36.933 104.371  18.703  0.00  0.00    +0.000 C 
ATOM     25  C   UNL     1     -35.934 102.897  15.837  0.00  0.00    +0.000 C 
ATOM     26  C   UNL     1     -37.492  99.332  13.684  0.00  0.00    +0.000 C 
ENDROOT
BRANCH   8  27
ATOM     27  O   UNL     1     -29.093 102.306  16.485  0.00  0.00    +0.000 OA
ATOM     28  H   UNL     1     -28.694 103.066  16.016  0.00  0.00    +0.000 HD
ENDBRANCH   8  27
BRANCH  10  29
ATOM     29  O   UNL     1     -29.660 102.069  13.900  0.00  0.00    +0.000 OA
ATOM     30  H   UNL     1     -29.092 102.836  14.098  0.00  0.00    +0.000 HD
ENDBRANCH  10  29
BRANCH  15  31
ATOM     31  O   UNL     1     -36.268 101.464  21.600  0.00  0.00    +0.000 OA
ATOM     32  H   UNL     1     -36.029 100.871  22.343  0.00  0.00    +0.000 HD
ENDBRANCH  15  31
BRANCH  16  33
ATOM     33  O   UNL     1     -34.680 103.868  20.404  0.00  0.00    +0.000 OA
ATOM     34  C   UNL     1     -33.432 104.075  19.788  0.00  0.00    +0.000 C 
ENDBRANCH  16  33
BRANCH  21  35
ATOM     35  O   UNL     1     -38.631 100.368  16.205  0.00  0.00    +0.000 OA
BRANCH  35  37
ATOM     36  O   UNL     1     -39.741 101.846  14.770  0.00  0.00    +0.000 OA
ATOM     37  C   UNL     1     -39.540 101.318  15.849  0.00  0.00    +0.000 C 
ATOM     38  C   UNL     1     -40.447 101.745  16.946  0.00  0.00    +0.000 C 
ENDBRANCH  35  37
ENDBRANCH  21  35
BRANCH   6  39
ATOM     39  C   UNL     1     -30.774  99.767  18.822  0.00  0.00    +0.000 C 
BRANCH  39  41
ATOM     40  O   UNL     1     -30.315  97.309  19.324  0.00  0.00    +0.000 OA
ATOM     41  C   UNL     1     -30.815  98.330  18.430  0.00  0.00    +0.000 C 
ATOM     42  C   UNL     1     -31.662  97.540  19.318  0.00  0.00    +0.000 C 
ATOM     43  C   UNL     1     -30.483  97.934  16.947  0.00  0.00    +0.000 C 
BRANCH  42  44
ATOM     44  C   UNL     1     -32.511  96.470  18.889  0.00  0.00    +0.000 C 
ATOM     45  C   UNL     1     -32.304  95.073  19.425  0.00  0.00    +0.000 C 
BRANCH  44  46
ATOM     46  C   UNL     1     -33.796  96.741  18.352  0.00  0.00    +0.000 C 
ATOM     47  C   UNL     1     -34.886  97.008  17.931  0.00  0.00    +0.000 C 
ATOM     48  C   UNL     1     -36.280  97.410  17.430  0.00  0.00    +0.000 C 
ENDBRANCH  44  46
ENDBRANCH  42  44
ENDBRANCH  39  41
BRANCH  39  49
ATOM     49  O   UNL     1     -29.942 100.249  19.819  0.00  0.00    +0.000 OA
ATOM     50  H   UNL     1     -29.182  99.671  20.024  0.00  0.00    +0.000 HD
ENDBRANCH  39  49
ENDBRANCH   6  39
BRANCH   8  51
ATOM     51  C   UNL     1     -30.877 103.822  16.374  0.00  0.00    +0.000 C 
BRANCH  51  52
ATOM     52  O   UNL     1     -31.231 105.092  16.571  0.00  0.00    +0.000 OA
ATOM     53  H   UNL     1     -30.501 105.599  16.982  0.00  0.00    +0.000 HD
ENDBRANCH  51  52
ENDBRANCH   8  51
TORSDOF 13
ENDMDL
MODEL 2
REMARK VINA RESULT:      -5.2      2.023      7.093
REMARK  Name = 102471178_CandidaspongiolideCore.pdbqt.pdb
REMARK  13 active torsions:
REMARK  status: ('A' for Active; 'I' for Inactive)
REMARK    1  A    between atoms: C_6  and  C_39
REMARK    2  A    between atoms: C_8  and  O_27
REMARK    3  A    between atoms: C_8  and  C_51
REMARK    4  A    between atoms: C_10  and  O_29
REMARK    5  A    between atoms: C_15  and  O_31
REMARK    6  A    between atoms: C_16  and  O_33
REMARK    7  A    between atoms: C_21  and  O_35
REMARK    8  A    between atoms: O_35  and  C_37
REMARK    9  A    between atoms: C_39  and  C_41
REMARK   10  A    between atoms: C_39  and  O_49
REMARK   11  A    between atoms: C_42  and  C_44
REMARK   12  A    between atoms: C_44  and  C_46
REMARK   13  A    between atoms: C_51  and  O_52
REMARK                            x       y       z     vdW  Elec       q    Type
REMARK                         _______ _______ _______ _____ _____    ______ ____
ROOT
ATOM      1  O   UNL     1     -36.004 102.624  18.449  0.00  0.00    +0.000 OA
ATOM      2  O   UNL     1     -34.288 101.479  17.439  0.00  0.00    +0.000 OA
ATOM      3  O   UNL     1     -31.249 100.194  13.758  0.00  0.00    +0.000 OA
ATOM      4  O   UNL     1     -35.024 103.255  20.383  0.00  0.00    +0.000 OA
ATOM      5  O   UNL     1     -32.755 100.565  20.358  0.00  0.00    +0.000 OA
ATOM      6  C   UNL     1     -35.898 102.686  16.135  0.00  0.00    +0.000 C 
ATOM      7  C   UNL     1     -35.801 101.954  14.919  0.00  0.00    +0.000 C 
ATOM      8  C   UNL     1     -35.860 101.241  13.640  0.00  0.00    +0.000 C 
ATOM      9  C   UNL     1     -35.284 102.191  17.394  0.00  0.00    +0.000 C 
ATOM     10  C   UNL     1     -34.561 101.339  12.870  0.00  0.00    +0.000 C 
ATOM     11  C   UNL     1     -33.271 101.229  13.454  0.00  0.00    +0.000 C 
ATOM     12  C   UNL     1     -31.997 101.091  14.129  0.00  0.00    +0.000 C 
ATOM     13  C   UNL     1     -35.468 102.373  19.659  0.00  0.00    +0.000 C 
ATOM     14  C   UNL     1     -31.642 101.991  15.268  0.00  0.00    +0.000 C 
ATOM     15  C   UNL     1     -35.724 101.021  20.215  0.00  0.00    +0.000 C 
ATOM     16  C   UNL     1     -35.541  99.783  19.485  0.00  0.00    +0.000 C 
ATOM     17  C   UNL     1     -34.302  99.021  19.405  0.00  0.00    +0.000 C 
ATOM     18  C   UNL     1     -30.818 101.505  16.312  0.00  0.00    +0.000 C 
ATOM     19  C   UNL     1     -32.017  99.522  18.358  0.00  0.00    +0.000 C 
ATOM     20  C   UNL     1     -32.355 103.313  15.515  0.00  0.00    +0.000 C 
ATOM     21  C   UNL     1     -30.773 100.284  18.388  0.00  0.00    +0.000 C 
ATOM     22  C   UNL     1     -32.999  99.750  19.466  0.00  0.00    +0.000 C 
ATOM     23  C   UNL     1     -30.132 100.972  17.276  0.00  0.00    +0.000 C 
ATOM     24  C   UNL     1     -34.294  97.504  19.571  0.00  0.00    +0.000 C 
ATOM     25  C   UNL     1     -32.394  98.772  17.088  0.00  0.00    +0.000 C 
ATOM     26  C   UNL     1     -28.638 101.151  17.201  0.00  0.00    +0.000 C 
ENDROOT
BRANCH   8  27
ATOM     27  O   UNL     1     -36.888 101.886  12.884  0.00  0.00    +0.000 OA
ATOM     28  H   UNL     1     -36.655 101.700  11.952  0.00  0.00    +0.000 HD
ENDBRANCH   8  27
BRANCH  10  29
ATOM     29  O   UNL     1     -34.656 101.496  11.497  0.00  0.00    +0.000 OA
ATOM     30  H   UNL     1     -35.532 101.825  11.222  0.00  0.00    +0.000 HD
ENDBRANCH  10  29
BRANCH  15  31
ATOM     31  O   UNL     1     -35.664 100.869  21.592  0.00  0.00    +0.000 OA
ATOM     32  H   UNL     1     -35.188 101.624  21.999  0.00  0.00    +0.000 HD
ENDBRANCH  15  31
BRANCH  16  33
ATOM     33  O   UNL     1     -36.694  99.046  19.279  0.00  0.00    +0.000 OA
ATOM     34  C   UNL     1     -37.095  99.176  17.938  0.00  0.00    +0.000 C 
ENDBRANCH  16  33
BRANCH  21  35
ATOM     35  O   UNL     1     -30.053 100.181  19.606  0.00  0.00    +0.000 OA
BRANCH  35  37
ATOM     36  O   UNL     1     -29.003  98.159  19.077  0.00  0.00    +0.000 OA
ATOM     37  C   UNL     1     -29.568  98.929  19.832  0.00  0.00    +0.000 C 
ATOM     38  C   UNL     1     -29.725  98.450  21.230  0.00  0.00    +0.000 C 
ENDBRANCH  35  37
ENDBRANCH  21  35
BRANCH   6  39
ATOM     39  C   UNL     1     -36.543 103.979  16.084  0.00  0.00    +0.000 C 
BRANCH  39  41
ATOM     40  O   UNL     1     -36.200 106.442  16.649  0.00  0.00    +0.000 OA
ATOM     41  C   UNL     1     -35.725 105.223  16.032  0.00  0.00    +0.000 C 
ATOM     42  C   UNL     1     -35.322 105.674  17.361  0.00  0.00    +0.000 C 
ATOM     43  C   UNL     1     -34.950 105.574  14.712  0.00  0.00    +0.000 C 
BRANCH  42  44
ATOM     44  C   UNL     1     -34.047 106.246  17.671  0.00  0.00    +0.000 C 
ATOM     45  C   UNL     1     -33.892 107.746  17.770  0.00  0.00    +0.000 C 
BRANCH  44  46
ATOM     46  C   UNL     1     -33.053 105.478  18.328  0.00  0.00    +0.000 C 
ATOM     47  C   UNL     1     -32.202 104.806  18.840  0.00  0.00    +0.000 C 
ATOM     48  C   UNL     1     -31.092 103.926  19.430  0.00  0.00    +0.000 C 
ENDBRANCH  44  46
ENDBRANCH  42  44
ENDBRANCH  39  41
BRANCH  39  49
ATOM     49  O   UNL     1     -37.926 103.993  16.155  0.00  0.00    +0.000 OA
ATOM     50  H   UNL     1     -38.285 104.445  16.943  0.00  0.00    +0.000 HD
ENDBRANCH  39  49
ENDBRANCH   6  39
BRANCH   8  51
ATOM     51  C   UNL     1     -36.249  99.832  13.812  0.00  0.00    +0.000 C 
BRANCH  51  52
ATOM     52  O   UNL     1     -36.596  98.559  14.011  0.00  0.00    +0.000 OA
ATOM     53  H   UNL     1     -36.394  98.281  14.927  0.00  0.00    +0.000 HD
ENDBRANCH  51  52
ENDBRANCH   8  51
TORSDOF 13
ENDMDL
MODEL 3
REMARK VINA RESULT:      -4.8     14.045     18.816
REMARK  Name = 102471178_CandidaspongiolideCore.pdbqt.pdb
REMARK  13 active torsions:
REMARK  status: ('A' for Active; 'I' for Inactive)
REMARK    1  A    between atoms: C_6  and  C_39
REMARK    2  A    between atoms: C_8  and  O_27
REMARK    3  A    between atoms: C_8  and  C_51
REMARK    4  A    between atoms: C_10  and  O_29
REMARK    5  A    between atoms: C_15  and  O_31
REMARK    6  A    between atoms: C_16  and  O_33
REMARK    7  A    between atoms: C_21  and  O_35
REMARK    8  A    between atoms: O_35  and  C_37
REMARK    9  A    between atoms: C_39  and  C_41
REMARK   10  A    between atoms: C_39  and  O_49
REMARK   11  A    between atoms: C_42  and  C_44
REMARK   12  A    between atoms: C_44  and  C_46
REMARK   13  A    between atoms: C_51  and  O_52
REMARK                            x       y       z     vdW  Elec       q    Type
REMARK                         _______ _______ _______ _____ _____    ______ ____
ROOT
ATOM      1  O   UNL     1     -43.111 102.566   0.577  0.00  0.00    +0.000 OA
ATOM      2  O   UNL     1     -41.529 103.614   1.870  0.00  0.00    +0.000 OA
ATOM      3  O   UNL     1     -39.235 104.922   6.050  0.00  0.00    +0.000 OA
ATOM      4  O   UNL     1     -41.819 101.644  -1.029  0.00  0.00    +0.000 OA
ATOM      5  O   UNL     1     -39.287 104.063  -0.676  0.00  0.00    +0.000 OA
ATOM      6  C   UNL     1     -43.527 102.723   2.852  0.00  0.00    +0.000 C 
ATOM      7  C   UNL     1     -43.607 103.557   4.001  0.00  0.00    +0.000 C 
ATOM      8  C   UNL     1     -43.855 104.396   5.177  0.00  0.00    +0.000 C 
ATOM      9  C   UNL     1     -42.592 103.022   1.735  0.00  0.00    +0.000 C 
ATOM     10  C   UNL     1     -42.780 104.235   6.230  0.00  0.00    +0.000 C 
ATOM     11  C   UNL     1     -41.390 104.147   5.953  0.00  0.00    +0.000 C 
ATOM     12  C   UNL     1     -39.992 104.079   5.582  0.00  0.00    +0.000 C 
ATOM     13  C   UNL     1     -42.295 102.637  -0.492  0.00  0.00    +0.000 C 
ATOM     14  C   UNL     1     -39.513 103.037   4.623  0.00  0.00    +0.000 C 
ATOM     15  C   UNL     1     -42.247 103.947  -1.188  0.00  0.00    +0.000 C 
ATOM     16  C   UNL     1     -42.074 105.224  -0.527  0.00  0.00    +0.000 C 
ATOM     17  C   UNL     1     -40.796 105.852  -0.219  0.00  0.00    +0.000 C 
ATOM     18  C   UNL     1     -38.423 103.325   3.765  0.00  0.00    +0.000 C 
ATOM     19  C   UNL     1     -38.880 105.214   1.360  0.00  0.00    +0.000 C 
ATOM     20  C   UNL     1     -40.317 101.782   4.315  0.00  0.00    +0.000 C 
ATOM     21  C   UNL     1     -37.768 104.323   1.672  0.00  0.00    +0.000 C 
ATOM     22  C   UNL     1     -39.615 104.984   0.075  0.00  0.00    +0.000 C 
ATOM     23  C   UNL     1     -37.480 103.684   2.948  0.00  0.00    +0.000 C 
ATOM     24  C   UNL     1     -40.558 107.335  -0.487  0.00  0.00    +0.000 C 
ATOM     25  C   UNL     1     -39.429 106.122   2.451  0.00  0.00    +0.000 C 
ATOM     26  C   UNL     1     -36.075 103.352   3.378  0.00  0.00    +0.000 C 
ENDROOT
BRANCH   8  27
ATOM     27  O   UNL     1     -45.097 103.943   5.720  0.00  0.00    +0.000 OA
ATOM     28  H   UNL     1     -45.412 104.695   6.261  0.00  0.00    +0.000 HD
ENDBRANCH   8  27
BRANCH  10  29
ATOM     29  O   UNL     1     -43.194 104.226   7.553  0.00  0.00    +0.000 OA
ATOM     30  H   UNL     1     -44.137 103.994   7.643  0.00  0.00    +0.000 HD
ENDBRANCH  10  29
BRANCH  15  31
ATOM     31  O   UNL     1     -41.867 103.954  -2.521  0.00  0.00    +0.000 OA
ATOM     32  H   UNL     1     -42.656 104.012  -3.102  0.00  0.00    +0.000 HD
ENDBRANCH  15  31
BRANCH  16  33
ATOM     33  O   UNL     1     -43.139 106.098  -0.646  0.00  0.00    +0.000 OA
ATOM     34  C   UNL     1     -43.882 106.090   0.549  0.00  0.00    +0.000 C 
ENDBRANCH  16  33
BRANCH  21  35
ATOM     35  O   UNL     1     -36.790 104.226   0.649  0.00  0.00    +0.000 OA
BRANCH  35  37
ATOM     36  O   UNL     1     -35.535 106.112   1.232  0.00  0.00    +0.000 OA
ATOM     37  C   UNL     1     -36.120 105.393   0.442  0.00  0.00    +0.000 C 
ATOM     38  C   UNL     1     -36.070 105.833  -0.976  0.00  0.00    +0.000 C 
ENDBRANCH  35  37
ENDBRANCH  21  35
BRANCH   6  39
ATOM     39  C   UNL     1     -44.326 101.518   2.846  0.00  0.00    +0.000 C 
BRANCH  39  41
ATOM     40  O   UNL     1     -46.543 102.638   3.421  0.00  0.00    +0.000 OA
ATOM     41  C   UNL     1     -45.657 101.499   3.514  0.00  0.00    +0.000 C 
ATOM     42  C   UNL     1     -46.756 101.600   2.558  0.00  0.00    +0.000 C 
ATOM     43  C   UNL     1     -45.787 100.851   4.939  0.00  0.00    +0.000 C 
BRANCH  42  44
ATOM     44  C   UNL     1     -47.995 100.893   2.671  0.00  0.00    +0.000 C 
ATOM     45  C   UNL     1     -49.279 101.647   2.933  0.00  0.00    +0.000 C 
BRANCH  44  46
ATOM     46  C   UNL     1     -48.142  99.602   2.103  0.00  0.00    +0.000 C 
ATOM     47  C   UNL     1     -48.218  98.507   1.619  0.00  0.00    +0.000 C 
ATOM     48  C   UNL     1     -48.243  97.101   1.007  0.00  0.00    +0.000 C 
ENDBRANCH  44  46
ENDBRANCH  42  44
ENDBRANCH  39  41
BRANCH  39  49
ATOM     49  O   UNL     1     -43.765 100.396   2.259  0.00  0.00    +0.000 OA
ATOM     50  H   UNL     1     -43.748 100.416   1.283  0.00  0.00    +0.000 HD
ENDBRANCH  39  49
ENDBRANCH   6  39
BRANCH   8  51
ATOM     51  C   UNL     1     -44.013 105.815   4.819  0.00  0.00    +0.000 C 
BRANCH  51  52
ATOM     52  O   UNL     1     -44.193 107.090   4.473  0.00  0.00    +0.000 OA
ATOM     53  H   UNL     1     -43.830 107.265   3.581  0.00  0.00    +0.000 HD
ENDBRANCH  51  52
ENDBRANCH   8  51
TORSDOF 13
ENDMDL
MODEL 4
REMARK VINA RESULT:      -4.7      2.581      7.622
REMARK  Name = 102471178_CandidaspongiolideCore.pdbqt.pdb
REMARK  13 active torsions:
REMARK  status: ('A' for Active; 'I' for Inactive)
REMARK    1  A    between atoms: C_6  and  C_39
REMARK    2  A    between atoms: C_8  and  O_27
REMARK    3  A    between atoms: C_8  and  C_51
REMARK    4  A    between atoms: C_10  and  O_29
REMARK    5  A    between atoms: C_15  and  O_31
REMARK    6  A    between atoms: C_16  and  O_33
REMARK    7  A    between atoms: C_21  and  O_35
REMARK    8  A    between atoms: O_35  and  C_37
REMARK    9  A    between atoms: C_39  and  C_41
REMARK   10  A    between atoms: C_39  and  O_49
REMARK   11  A    between atoms: C_42  and  C_44
REMARK   12  A    between atoms: C_44  and  C_46
REMARK   13  A    between atoms: C_51  and  O_52
REMARK                            x       y       z     vdW  Elec       q    Type
REMARK                         _______ _______ _______ _____ _____    ______ ____
ROOT
ATOM      1  O   UNL     1     -36.064 102.632  18.469  0.00  0.00    +0.000 OA
ATOM      2  O   UNL     1     -34.329 101.508  17.469  0.00  0.00    +0.000 OA
ATOM      3  O   UNL     1     -31.255 100.256  13.806  0.00  0.00    +0.000 OA
ATOM      4  O   UNL     1     -35.103 103.281  20.406  0.00  0.00    +0.000 OA
ATOM      5  O   UNL     1     -32.798 100.621  20.398  0.00  0.00    +0.000 OA
ATOM      6  C   UNL     1     -35.949 102.692  16.155  0.00  0.00    +0.000 C 
ATOM      7  C   UNL     1     -35.836 101.958  14.941  0.00  0.00    +0.000 C 
ATOM      8  C   UNL     1     -35.880 101.242  13.664  0.00  0.00    +0.000 C 
ATOM      9  C   UNL     1     -35.334 102.207  17.418  0.00  0.00    +0.000 C 
ATOM     10  C   UNL     1     -34.578 101.355  12.900  0.00  0.00    +0.000 C 
ATOM     11  C   UNL     1     -33.289 101.263  13.490  0.00  0.00    +0.000 C 
ATOM     12  C   UNL     1     -32.017 101.144  14.171  0.00  0.00    +0.000 C 
ATOM     13  C   UNL     1     -35.531 102.391  19.681  0.00  0.00    +0.000 C 
ATOM     14  C   UNL     1     -31.680 102.051  15.310  0.00  0.00    +0.000 C 
ATOM     15  C   UNL     1     -35.772 101.037  20.240  0.00  0.00    +0.000 C 
ATOM     16  C   UNL     1     -35.570  99.800  19.513  0.00  0.00    +0.000 C 
ATOM     17  C   UNL     1     -34.321  99.054  19.440  0.00  0.00    +0.000 C 
ATOM     18  C   UNL     1     -30.854 101.578  16.359  0.00  0.00    +0.000 C 
ATOM     19  C   UNL     1     -32.037  99.583  18.404  0.00  0.00    +0.000 C 
ATOM     20  C   UNL     1     -32.411 103.364  15.551  0.00  0.00    +0.000 C 
ATOM     21  C   UNL     1     -30.803 100.362  18.439  0.00  0.00    +0.000 C 
ATOM     22  C   UNL     1     -33.028  99.801  19.507  0.00  0.00    +0.000 C 
ATOM     23  C   UNL     1     -30.166 101.055  17.328  0.00  0.00    +0.000 C 
ATOM     24  C   UNL     1     -34.293  97.538  19.610  0.00  0.00    +0.000 C 
ATOM     25  C   UNL     1     -32.398  98.826  17.133  0.00  0.00    +0.000 C 
ATOM     26  C   UNL     1     -28.674 101.255  17.260  0.00  0.00    +0.000 C 
ENDROOT
BRANCH   8  27
ATOM     27  O   UNL     1     -36.912 101.872  12.901  0.00  0.00    +0.000 OA
ATOM     28  H   UNL     1     -36.456 102.195  12.098  0.00  0.00    +0.000 HD
ENDBRANCH   8  27
BRANCH  10  29
ATOM     29  O   UNL     1     -34.668 101.508  11.525  0.00  0.00    +0.000 OA
ATOM     30  H   UNL     1     -35.547 101.825  11.246  0.00  0.00    +0.000 HD
ENDBRANCH  10  29
BRANCH  15  31
ATOM     31  O   UNL     1     -35.717 100.889  21.617  0.00  0.00    +0.000 OA
ATOM     32  H   UNL     1     -35.253 101.651  22.025  0.00  0.00    +0.000 HD
ENDBRANCH  15  31
BRANCH  16  33
ATOM     33  O   UNL     1     -36.711  99.047  19.303  0.00  0.00    +0.000 OA
ATOM     34  C   UNL     1     -37.109  99.172  17.960  0.00  0.00    +0.000 C 
ENDBRANCH  16  33
BRANCH  21  35
ATOM     35  O   UNL     1     -30.088 100.271  19.660  0.00  0.00    +0.000 OA
BRANCH  35  37
ATOM     36  O   UNL     1     -28.972  98.273  19.176  0.00  0.00    +0.000 OA
ATOM     37  C   UNL     1     -29.603  99.021  19.900  0.00  0.00    +0.000 C 
ATOM     38  C   UNL     1     -29.858  98.514  21.273  0.00  0.00    +0.000 C 
ENDBRANCH  35  37
ENDBRANCH  21  35
BRANCH   6  39
ATOM     39  C   UNL     1     -36.610 103.976  16.098  0.00  0.00    +0.000 C 
BRANCH  39  41
ATOM     40  O   UNL     1     -35.122 105.293  14.500  0.00  0.00    +0.000 OA
ATOM     41  C   UNL     1     -35.837 105.202  15.754  0.00  0.00    +0.000 C 
ATOM     42  C   UNL     1     -36.361 105.868  14.564  0.00  0.00    +0.000 C 
ATOM     43  C   UNL     1     -35.014 105.927  16.878  0.00  0.00    +0.000 C 
BRANCH  42  44
ATOM     44  C   UNL     1     -36.437 107.288  14.398  0.00  0.00    +0.000 C 
ATOM     45  C   UNL     1     -37.532 108.074  15.081  0.00  0.00    +0.000 C 
BRANCH  44  46
ATOM     46  C   UNL     1     -35.293 108.030  14.011  0.00  0.00    +0.000 C 
ATOM     47  C   UNL     1     -34.333 108.644  13.636  0.00  0.00    +0.000 C 
ATOM     48  C   UNL     1     -33.126 109.417  13.090  0.00  0.00    +0.000 C 
ENDBRANCH  44  46
ENDBRANCH  42  44
ENDBRANCH  39  41
BRANCH  39  49
ATOM     49  O   UNL     1     -37.951 104.006  16.442  0.00  0.00    +0.000 OA
ATOM     50  H   UNL     1     -38.153 104.540  17.234  0.00  0.00    +0.000 HD
ENDBRANCH  39  49
ENDBRANCH   6  39
BRANCH   8  51
ATOM     51  C   UNL     1     -36.250  99.827  13.837  0.00  0.00    +0.000 C 
BRANCH  51  52
ATOM     52  O   UNL     1     -36.580  98.551  14.037  0.00  0.00    +0.000 OA
ATOM     53  H   UNL     1     -36.350  98.269  14.945  0.00  0.00    +0.000 HD
ENDBRANCH  51  52
ENDBRANCH   8  51
TORSDOF 13
ENDMDL
MODEL 5
REMARK VINA RESULT:      -4.6      3.111      8.985
REMARK  Name = 102471178_CandidaspongiolideCore.pdbqt.pdb
REMARK  13 active torsions:
REMARK  status: ('A' for Active; 'I' for Inactive)
REMARK    1  A    between atoms: C_6  and  C_39
REMARK    2  A    between atoms: C_8  and  O_27
REMARK    3  A    between atoms: C_8  and  C_51
REMARK    4  A    between atoms: C_10  and  O_29
REMARK    5  A    between atoms: C_15  and  O_31
REMARK    6  A    between atoms: C_16  and  O_33
REMARK    7  A    between atoms: C_21  and  O_35
REMARK    8  A    between atoms: O_35  and  C_37
REMARK    9  A    between atoms: C_39  and  C_41
REMARK   10  A    between atoms: C_39  and  O_49
REMARK   11  A    between atoms: C_42  and  C_44
REMARK   12  A    between atoms: C_44  and  C_46
REMARK   13  A    between atoms: C_51  and  O_52
REMARK                            x       y       z     vdW  Elec       q    Type
REMARK                         _______ _______ _______ _____ _____    ______ ____
ROOT
ATOM      1  O   UNL     1     -38.914 101.341  14.147  0.00  0.00    +0.000 OA
ATOM      2  O   UNL     1     -37.503 101.403  15.958  0.00  0.00    +0.000 OA
ATOM      3  O   UNL     1     -36.170 102.295  20.634  0.00  0.00    +0.000 OA
ATOM      4  O   UNL     1     -38.549  99.247  13.383  0.00  0.00    +0.000 OA
ATOM      5  O   UNL     1     -35.296  99.101  14.718  0.00  0.00    +0.000 OA
ATOM      6  C   UNL     1     -39.558 102.639  15.956  0.00  0.00    +0.000 C 
ATOM      7  C   UNL     1     -39.210 103.660  16.883  0.00  0.00    +0.000 C 
ATOM      8  C   UNL     1     -38.958 104.810  17.756  0.00  0.00    +0.000 C 
ATOM      9  C   UNL     1     -38.535 101.724  15.383  0.00  0.00    +0.000 C 
ATOM     10  C   UNL     1     -38.736 104.397  19.195  0.00  0.00    +0.000 C 
ATOM     11  C   UNL     1     -37.966 103.274  19.599  0.00  0.00    +0.000 C 
ATOM     12  C   UNL     1     -37.153 102.120  19.923  0.00  0.00    +0.000 C 
ATOM     13  C   UNL     1     -38.151 100.390  13.576  0.00  0.00    +0.000 C 
ATOM     14  C   UNL     1     -37.489 100.776  19.362  0.00  0.00    +0.000 C 
ATOM     15  C   UNL     1     -36.917 100.864  12.901  0.00  0.00    +0.000 C 
ATOM     16  C   UNL     1     -35.960 101.780  13.486  0.00  0.00    +0.000 C 
ATOM     17  C   UNL     1     -34.820 101.403  14.312  0.00  0.00    +0.000 C 
ATOM     18  C   UNL     1     -36.450  99.853  19.090  0.00  0.00    +0.000 C 
ATOM     19  C   UNL     1     -34.634 100.334  16.635  0.00  0.00    +0.000 C 
ATOM     20  C   UNL     1     -38.864 100.450  18.794  0.00  0.00    +0.000 C 
ATOM     21  C   UNL     1     -34.797  99.157  17.481  0.00  0.00    +0.000 C 
ATOM     22  C   UNL     1     -34.923 100.184  15.172  0.00  0.00    +0.000 C 
ATOM     23  C   UNL     1     -35.447  99.089  18.782  0.00  0.00    +0.000 C 
ATOM     24  C   UNL     1     -33.443 102.022  14.093  0.00  0.00    +0.000 C 
ATOM     25  C   UNL     1     -34.474 101.699  17.289  0.00  0.00    +0.000 C 
ATOM     26  C   UNL     1     -35.029  98.094  19.834  0.00  0.00    +0.000 C 
ENDROOT
BRANCH   8  27
ATOM     27  O   UNL     1     -40.138 105.613  17.689  0.00  0.00    +0.000 OA
ATOM     28  H   UNL     1     -39.891 106.358  17.105  0.00  0.00    +0.000 HD
ENDBRANCH   8  27
BRANCH  10  29
ATOM     29  O   UNL     1     -39.285 105.211  20.173  0.00  0.00    +0.000 OA
ATOM     30  H   UNL     1     -38.712 105.282  20.959  0.00  0.00    +0.000 HD
ENDBRANCH  10  29
BRANCH  15  31
ATOM     31  O   UNL     1     -36.385 100.069  11.898  0.00  0.00    +0.000 OA
ATOM     32  H   UNL     1     -36.548  99.121  12.090  0.00  0.00    +0.000 HD
ENDBRANCH  15  31
BRANCH  16  33
ATOM     33  O   UNL     1     -35.829 102.993  12.834  0.00  0.00    +0.000 OA
ATOM     34  C   UNL     1     -36.511 103.987  13.559  0.00  0.00    +0.000 C 
ENDBRANCH  16  33
BRANCH  21  35
ATOM     35  O   UNL     1     -34.088  98.012  17.035  0.00  0.00    +0.000 OA
BRANCH  35  37
ATOM     36  O   UNL     1     -32.011  98.436  18.026  0.00  0.00    +0.000 OA
ATOM     37  C   UNL     1     -32.736  98.173  17.084  0.00  0.00    +0.000 C 
ATOM     38  C   UNL     1     -32.042  97.956  15.788  0.00  0.00    +0.000 C 
ENDBRANCH  35  37
ENDBRANCH  21  35
BRANCH   6  39
ATOM     39  C   UNL     1     -40.961 102.462  15.655  0.00  0.00    +0.000 C 
BRANCH  39  41
ATOM     40  O   UNL     1     -41.250 103.298  13.264  0.00  0.00    +0.000 OA
ATOM     41  C   UNL     1     -41.630 103.344  14.659  0.00  0.00    +0.000 C 
ATOM     42  C   UNL     1     -42.350 102.580  13.642  0.00  0.00    +0.000 C 
ATOM     43  C   UNL     1     -41.977 104.823  15.057  0.00  0.00    +0.000 C 
BRANCH  42  44
ATOM     44  C   UNL     1     -43.610 102.963  13.083  0.00  0.00    +0.000 C 
ATOM     45  C   UNL     1     -43.665 103.697  11.763  0.00  0.00    +0.000 C 
BRANCH  44  46
ATOM     46  C   UNL     1     -44.801 102.297  13.469  0.00  0.00    +0.000 C 
ATOM     47  C   UNL     1     -45.834 101.774  13.784  0.00  0.00    +0.000 C 
ATOM     48  C   UNL     1     -47.189 101.161  14.158  0.00  0.00    +0.000 C 
ENDBRANCH  44  46
ENDBRANCH  42  44
ENDBRANCH  39  41
BRANCH  39  49
ATOM     49  O   UNL     1     -41.641 101.498  16.381  0.00  0.00    +0.000 OA
ATOM     50  H   UNL     1     -41.195 101.224  17.205  0.00  0.00    +0.000 HD
ENDBRANCH  39  49
ENDBRANCH   6  39
BRANCH   8  51
ATOM     51  C   UNL     1     -37.832 105.629  17.278  0.00  0.00    +0.000 C 
BRANCH  51  52
ATOM     52  O   UNL     1     -36.807 106.344  16.810  0.00  0.00    +0.000 OA
ATOM     53  H   UNL     1     -36.461 106.949  17.496  0.00  0.00    +0.000 HD
ENDBRANCH  51  52
ENDBRANCH   8  51
TORSDOF 13
ENDMDL
MODEL 6
REMARK VINA RESULT:      -4.6     10.332     15.882
REMARK  Name = 102471178_CandidaspongiolideCore.pdbqt.pdb
REMARK  13 active torsions:
REMARK  status: ('A' for Active; 'I' for Inactive)
REMARK    1  A    between atoms: C_6  and  C_39
REMARK    2  A    between atoms: C_8  and  O_27
REMARK    3  A    between atoms: C_8  and  C_51
REMARK    4  A    between atoms: C_10  and  O_29
REMARK    5  A    between atoms: C_15  and  O_31
REMARK    6  A    between atoms: C_16  and  O_33
REMARK    7  A    between atoms: C_21  and  O_35
REMARK    8  A    between atoms: O_35  and  C_37
REMARK    9  A    between atoms: C_39  and  C_41
REMARK   10  A    between atoms: C_39  and  O_49
REMARK   11  A    between atoms: C_42  and  C_44
REMARK   12  A    between atoms: C_44  and  C_46
REMARK   13  A    between atoms: C_51  and  O_52
REMARK                            x       y       z     vdW  Elec       q    Type
REMARK                         _______ _______ _______ _____ _____    ______ ____
ROOT
ATOM      1  O   UNL     1     -30.184  84.393  19.543  0.00  0.00    +0.000 OA
ATOM      2  O   UNL     1     -31.584  86.147  19.057  0.00  0.00    +0.000 OA
ATOM      3  O   UNL     1     -35.911  88.482  18.541  0.00  0.00    +0.000 OA
ATOM      4  O   UNL     1     -28.643  85.414  20.841  0.00  0.00    +0.000 OA
ATOM      5  O   UNL     1     -29.181  88.564  19.367  0.00  0.00    +0.000 OA
ATOM      6  C   UNL     1     -32.432  83.913  19.251  0.00  0.00    +0.000 C 
ATOM      7  C   UNL     1     -33.588  84.036  18.431  0.00  0.00    +0.000 C 
ATOM      8  C   UNL     1     -34.760  84.002  17.552  0.00  0.00    +0.000 C 
ATOM      9  C   UNL     1     -31.378  84.960  19.275  0.00  0.00    +0.000 C 
ATOM     10  C   UNL     1     -35.872  84.901  18.046  0.00  0.00    +0.000 C 
ATOM     11  C   UNL     1     -35.676  86.203  18.580  0.00  0.00    +0.000 C 
ATOM     12  C   UNL     1     -35.386  87.524  19.097  0.00  0.00    +0.000 C 
ATOM     13  C   UNL     1     -29.167  85.252  19.745  0.00  0.00    +0.000 C 
ATOM     14  C   UNL     1     -34.441  87.699  20.242  0.00  0.00    +0.000 C 
ATOM     15  C   UNL     1     -28.494  85.761  18.524  0.00  0.00    +0.000 C 
ATOM     16  C   UNL     1     -29.184  86.297  17.368  0.00  0.00    +0.000 C 
ATOM     17  C   UNL     1     -29.577  87.688  17.184  0.00  0.00    +0.000 C 
ATOM     18  C   UNL     1     -33.654  88.873  20.324  0.00  0.00    +0.000 C 
ATOM     19  C   UNL     1     -31.255  89.196  18.401  0.00  0.00    +0.000 C 
ATOM     20  C   UNL     1     -34.067  86.553  21.172  0.00  0.00    +0.000 C 
ATOM     21  C   UNL     1     -31.618  89.941  19.602  0.00  0.00    +0.000 C 
ATOM     22  C   UNL     1     -29.926  88.505  18.386  0.00  0.00    +0.000 C 
ATOM     23  C   UNL     1     -32.899  89.928  20.294  0.00  0.00    +0.000 C 
ATOM     24  C   UNL     1     -29.346  88.408  15.859  0.00  0.00    +0.000 C 
ATOM     25  C   UNL     1     -32.326  88.905  17.359  0.00  0.00    +0.000 C 
ATOM     26  C   UNL     1     -33.406  91.123  21.059  0.00  0.00    +0.000 C 
ENDROOT
BRANCH   8  27
ATOM     27  O   UNL     1     -35.222  82.649  17.576  0.00  0.00    +0.000 OA
ATOM     28  H   UNL     1     -35.797  82.605  18.367  0.00  0.00    +0.000 HD
ENDBRANCH   8  27
BRANCH  10  29
ATOM     29  O   UNL     1     -37.168  84.427  17.915  0.00  0.00    +0.000 OA
ATOM     30  H   UNL     1     -37.833  85.106  18.133  0.00  0.00    +0.000 HD
ENDBRANCH  10  29
BRANCH  15  31
ATOM     31  O   UNL     1     -27.186  86.204  18.645  0.00  0.00    +0.000 OA
ATOM     32  H   UNL     1     -27.142  87.177  18.529  0.00  0.00    +0.000 HD
ENDBRANCH  15  31
BRANCH  16  33
ATOM     33  O   UNL     1     -29.016  85.580  16.197  0.00  0.00    +0.000 OA
ATOM     34  C   UNL     1     -30.193  84.861  15.920  0.00  0.00    +0.000 C 
ENDBRANCH  16  33
BRANCH  21  35
ATOM     35  O   UNL     1     -30.653  90.895  20.013  0.00  0.00    +0.000 OA
BRANCH  35  37
ATOM     36  O   UNL     1     -29.504  91.919  18.252  0.00  0.00    +0.000 OA
ATOM     37  C   UNL     1     -30.406  91.842  19.067  0.00  0.00    +0.000 C 
ATOM     38  C   UNL     1     -31.418  92.928  19.001  0.00  0.00    +0.000 C 
ENDBRANCH  35  37
ENDBRANCH  21  35
BRANCH   6  39
ATOM     39  C   UNL     1     -32.361  82.770  20.133  0.00  0.00    +0.000 C 
BRANCH  39  41
ATOM     40  O   UNL     1     -32.090  82.070  22.570  0.00  0.00    +0.000 OA
ATOM     41  C   UNL     1     -32.716  82.911  21.573  0.00  0.00    +0.000 C 
ATOM     42  C   UNL     1     -31.573  83.322  22.385  0.00  0.00    +0.000 C 
ATOM     43  C   UNL     1     -34.214  83.165  21.970  0.00  0.00    +0.000 C 
BRANCH  42  44
ATOM     44  C   UNL     1     -31.648  84.234  23.485  0.00  0.00    +0.000 C 
ATOM     45  C   UNL     1     -31.617  83.717  24.904  0.00  0.00    +0.000 C 
BRANCH  44  46
ATOM     46  C   UNL     1     -31.291  85.596  23.316  0.00  0.00    +0.000 C 
ATOM     47  C   UNL     1     -31.014  86.748  23.131  0.00  0.00    +0.000 C 
ATOM     48  C   UNL     1     -30.705  88.222  22.839  0.00  0.00    +0.000 C 
ENDBRANCH  44  46
ENDBRANCH  42  44
ENDBRANCH  39  41
BRANCH  39  49
ATOM     49  O   UNL     1     -31.889  81.587  19.589  0.00  0.00    +0.000 OA
ATOM     50  H   UNL     1     -32.217  80.780  20.031  0.00  0.00    +0.000 HD
ENDBRANCH  39  49
ENDBRANCH   6  39
BRANCH   8  51
ATOM     51  C   UNL     1     -34.415  84.332  16.159  0.00  0.00    +0.000 C 
BRANCH  51  52
ATOM     52  O   UNL     1     -34.097  84.673  14.910  0.00  0.00    +0.000 OA
ATOM     53  H   UNL     1     -34.629  84.167  14.263  0.00  0.00    +0.000 HD
ENDBRANCH  51  52
ENDBRANCH   8  51
TORSDOF 13
ENDMDL
MODEL 7
REMARK VINA RESULT:      -4.5     30.680     34.809
REMARK  Name = 102471178_CandidaspongiolideCore.pdbqt.pdb
REMARK  13 active torsions:
REMARK  status: ('A' for Active; 'I' for Inactive)
REMARK    1  A    between atoms: C_6  and  C_39
REMARK    2  A    between atoms: C_8  and  O_27
REMARK    3  A    between atoms: C_8  and  C_51
REMARK    4  A    between atoms: C_10  and  O_29
REMARK    5  A    between atoms: C_15  and  O_31
REMARK    6  A    between atoms: C_16  and  O_33
REMARK    7  A    between atoms: C_21  and  O_35
REMARK    8  A    between atoms: O_35  and  C_37
REMARK    9  A    between atoms: C_39  and  C_41
REMARK   10  A    between atoms: C_39  and  O_49
REMARK   11  A    between atoms: C_42  and  C_44
REMARK   12  A    between atoms: C_44  and  C_46
REMARK   13  A    between atoms: C_51  and  O_52
REMARK                            x       y       z     vdW  Elec       q    Type
REMARK                         _______ _______ _______ _____ _____    ______ ____
ROOT
ATOM      1  O   UNL     1     -31.827  97.759 -17.798  0.00  0.00    +0.000 OA
ATOM      2  O   UNL     1     -29.922  96.708 -17.062  0.00  0.00    +0.000 OA
ATOM      3  O   UNL     1     -26.353  95.522 -13.853  0.00  0.00    +0.000 OA
ATOM      4  O   UNL     1     -32.936  96.035 -18.745  0.00  0.00    +0.000 OA
ATOM      5  O   UNL     1     -29.987  94.241 -19.432  0.00  0.00    +0.000 OA
ATOM      6  C   UNL     1     -30.837  98.575 -15.868  0.00  0.00    +0.000 C 
ATOM      7  C   UNL     1     -29.653  99.042 -15.233  0.00  0.00    +0.000 C 
ATOM      8  C   UNL     1     -28.501  99.674 -14.584  0.00  0.00    +0.000 C 
ATOM      9  C   UNL     1     -30.792  97.563 -16.956  0.00  0.00    +0.000 C 
ATOM     10  C   UNL     1     -27.880  98.784 -13.529  0.00  0.00    +0.000 C 
ATOM     11  C   UNL     1     -27.676  97.386 -13.676  0.00  0.00    +0.000 C 
ATOM     12  C   UNL     1     -27.493  95.969 -13.914  0.00  0.00    +0.000 C 
ATOM     13  C   UNL     1     -31.991  96.815 -18.744  0.00  0.00    +0.000 C 
ATOM     14  C   UNL     1     -28.660  95.104 -14.267  0.00  0.00    +0.000 C 
ATOM     15  C   UNL     1     -31.153  96.961 -19.960  0.00  0.00    +0.000 C 
ATOM     16  C   UNL     1     -29.726  97.207 -19.951  0.00  0.00    +0.000 C 
ATOM     17  C   UNL     1     -28.689  96.184 -19.911  0.00  0.00    +0.000 C 
ATOM     18  C   UNL     1     -28.469  93.986 -15.115  0.00  0.00    +0.000 C 
ATOM     19  C   UNL     1     -28.012  94.464 -18.135  0.00  0.00    +0.000 C 
ATOM     20  C   UNL     1     -30.098  95.526 -14.000  0.00  0.00    +0.000 C 
ATOM     21  C   UNL     1     -28.323  93.242 -17.402  0.00  0.00    +0.000 C 
ATOM     22  C   UNL     1     -28.970  94.898 -19.202  0.00  0.00    +0.000 C 
ATOM     23  C   UNL     1     -28.242  93.030 -15.964  0.00  0.00    +0.000 C 
ATOM     24  C   UNL     1     -27.465  96.260 -20.819  0.00  0.00    +0.000 C 
ATOM     25  C   UNL     1     -26.922  95.387 -17.605  0.00  0.00    +0.000 C 
ATOM     26  C   UNL     1     -27.939  91.679 -15.370  0.00  0.00    +0.000 C 
ENDROOT
BRANCH   8  27
ATOM     27  O   UNL     1     -29.011 100.848 -13.947  0.00  0.00    +0.000 OA
ATOM     28  H   UNL     1     -29.710 101.167 -14.554  0.00  0.00    +0.000 HD
ENDBRANCH   8  27
BRANCH  10  29
ATOM     29  O   UNL     1     -27.439  99.400 -12.369  0.00  0.00    +0.000 OA
ATOM     30  H   UNL     1     -27.137 100.314 -12.528  0.00  0.00    +0.000 HD
ENDBRANCH  10  29
BRANCH  15  31
ATOM     31  O   UNL     1     -31.609  96.375 -21.131  0.00  0.00    +0.000 OA
ATOM     32  H   UNL     1     -31.003  95.658 -21.414  0.00  0.00    +0.000 HD
ENDBRANCH  15  31
BRANCH  16  33
ATOM     33  O   UNL     1     -29.332  98.413 -20.503  0.00  0.00    +0.000 OA
ATOM     34  C   UNL     1     -29.017  99.315 -19.471  0.00  0.00    +0.000 C 
ENDBRANCH  16  33
BRANCH  21  35
ATOM     35  O   UNL     1     -28.565  92.112 -18.224  0.00  0.00    +0.000 OA
BRANCH  35  37
ATOM     36  O   UNL     1     -26.345  91.439 -18.528  0.00  0.00    +0.000 OA
ATOM     37  C   UNL     1     -27.464  91.717 -18.921  0.00  0.00    +0.000 C 
ATOM     38  C   UNL     1     -27.679  91.569 -20.384  0.00  0.00    +0.000 C 
ENDBRANCH  35  37
ENDBRANCH  21  35
BRANCH   6  39
ATOM     39  C   UNL     1     -32.100  99.055 -15.355  0.00  0.00    +0.000 C 
BRANCH  39  41
ATOM     40  O   UNL     1     -32.115  98.298 -12.920  0.00  0.00    +0.000 OA
ATOM     41  C   UNL     1     -32.759  98.361 -14.214  0.00  0.00    +0.000 C 
ATOM     42  C   UNL     1     -33.056  99.271 -13.112  0.00  0.00    +0.000 C 
ATOM     43  C   UNL     1     -33.530  97.018 -14.479  0.00  0.00    +0.000 C 
BRANCH  42  44
ATOM     44  C   UNL     1     -34.239  99.210 -12.307  0.00  0.00    +0.000 C 
ATOM     45  C   UNL     1     -34.200  98.552 -10.947  0.00  0.00    +0.000 C 
BRANCH  44  46
ATOM     46  C   UNL     1     -35.303 100.122 -12.521  0.00  0.00    +0.000 C 
ATOM     47  C   UNL     1     -36.175 100.918 -12.734  0.00  0.00    +0.000 C 
ATOM     48  C   UNL     1     -37.251 101.961 -13.062  0.00  0.00    +0.000 C 
ENDBRANCH  44  46
ENDBRANCH  42  44
ENDBRANCH  39  41
BRANCH  39  49
ATOM     49  O   UNL     1     -32.678 100.127 -16.016  0.00  0.00    +0.000 OA
ATOM     50  H   UNL     1     -33.639 100.038 -16.166  0.00  0.00    +0.000 HD
ENDBRANCH  39  49
ENDBRANCH   6  39
BRANCH   8  51
ATOM     51  C   UNL     1     -27.483 100.100 -15.559  0.00  0.00    +0.000 C 
BRANCH  51  52
ATOM     52  O   UNL     1     -26.592 100.510 -16.462  0.00  0.00    +0.000 OA
ATOM     53  H   UNL     1     -25.915  99.822 -16.624  0.00  0.00    +0.000 HD
ENDBRANCH  51  52
ENDBRANCH   8  51
TORSDOF 13
ENDMDL
MODEL 8
REMARK VINA RESULT:      -4.4     16.232     20.534
REMARK  Name = 102471178_CandidaspongiolideCore.pdbqt.pdb
REMARK  13 active torsions:
REMARK  status: ('A' for Active; 'I' for Inactive)
REMARK    1  A    between atoms: C_6  and  C_39
REMARK    2  A    between atoms: C_8  and  O_27
REMARK    3  A    between atoms: C_8  and  C_51
REMARK    4  A    between atoms: C_10  and  O_29
REMARK    5  A    between atoms: C_15  and  O_31
REMARK    6  A    between atoms: C_16  and  O_33
REMARK    7  A    between atoms: C_21  and  O_35
REMARK    8  A    between atoms: O_35  and  C_37
REMARK    9  A    between atoms: C_39  and  C_41
REMARK   10  A    between atoms: C_39  and  O_49
REMARK   11  A    between atoms: C_42  and  C_44
REMARK   12  A    between atoms: C_44  and  C_46
REMARK   13  A    between atoms: C_51  and  O_52
REMARK                            x       y       z     vdW  Elec       q    Type
REMARK                         _______ _______ _______ _____ _____    ______ ____
ROOT
ATOM      1  O   UNL     1     -37.460 107.436  -1.160  0.00  0.00    +0.000 OA
ATOM      2  O   UNL     1     -35.253 107.261  -0.549  0.00  0.00    +0.000 OA
ATOM      3  O   UNL     1     -30.366 106.995  -1.248  0.00  0.00    +0.000 OA
ATOM      4  O   UNL     1     -38.182 109.026   0.270  0.00  0.00    +0.000 OA
ATOM      5  O   UNL     1     -35.741 108.260   2.687  0.00  0.00    +0.000 OA
ATOM      6  C   UNL     1     -35.934 106.896  -2.819  0.00  0.00    +0.000 C 
ATOM      7  C   UNL     1     -34.872 106.049  -3.242  0.00  0.00    +0.000 C 
ATOM      8  C   UNL     1     -33.887 105.110  -3.783  0.00  0.00    +0.000 C 
ATOM      9  C   UNL     1     -36.147 107.222  -1.385  0.00  0.00    +0.000 C 
ATOM     10  C   UNL     1     -32.504 105.718  -3.869  0.00  0.00    +0.000 C 
ATOM     11  C   UNL     1     -31.924 106.540  -2.866  0.00  0.00    +0.000 C 
ATOM     12  C   UNL     1     -31.405 107.357  -1.790  0.00  0.00    +0.000 C 
ATOM     13  C   UNL     1     -37.771 107.890   0.068  0.00  0.00    +0.000 C 
ATOM     14  C   UNL     1     -32.147 108.572  -1.335  0.00  0.00    +0.000 C 
ATOM     15  C   UNL     1     -37.898 106.860   1.130  0.00  0.00    +0.000 C 
ATOM     16  C   UNL     1     -36.932 105.810   1.377  0.00  0.00    +0.000 C 
ATOM     17  C   UNL     1     -35.769 105.916   2.249  0.00  0.00    +0.000 C 
ATOM     18  C   UNL     1     -32.077 108.966   0.024  0.00  0.00    +0.000 C 
ATOM     19  C   UNL     1     -33.631 107.325   2.134  0.00  0.00    +0.000 C 
ATOM     20  C   UNL     1     -33.210 109.245  -2.191  0.00  0.00    +0.000 C 
ATOM     21  C   UNL     1     -32.996 108.635   2.227  0.00  0.00    +0.000 C 
ATOM     22  C   UNL     1     -35.102 107.244   2.407  0.00  0.00    +0.000 C 
ATOM     23  C   UNL     1     -32.041 109.221   1.296  0.00  0.00    +0.000 C 
ATOM     24  C   UNL     1     -35.411 104.803   3.229  0.00  0.00    +0.000 C 
ATOM     25  C   UNL     1     -32.866 106.176   1.491  0.00  0.00    +0.000 C 
ATOM     26  C   UNL     1     -30.985 110.198   1.743  0.00  0.00    +0.000 C 
ENDROOT
BRANCH   8  27
ATOM     27  O   UNL     1     -34.332 104.802  -5.107  0.00  0.00    +0.000 OA
ATOM     28  H   UNL     1     -33.877 103.963  -5.325  0.00  0.00    +0.000 HD
ENDBRANCH   8  27
BRANCH  10  29
ATOM     29  O   UNL     1     -31.746 105.399  -4.985  0.00  0.00    +0.000 OA
ATOM     30  H   UNL     1     -31.775 104.447  -5.191  0.00  0.00    +0.000 HD
ENDBRANCH  10  29
BRANCH  15  31
ATOM     31  O   UNL     1     -38.684 107.163   2.231  0.00  0.00    +0.000 OA
ATOM     32  H   UNL     1     -38.167 107.063   3.059  0.00  0.00    +0.000 HD
ENDBRANCH  15  31
BRANCH  16  33
ATOM     33  O   UNL     1     -37.398 104.523   1.181  0.00  0.00    +0.000 OA
ATOM     34  C   UNL     1     -38.399 104.536   0.193  0.00  0.00    +0.000 C 
ENDBRANCH  16  33
BRANCH  21  35
ATOM     35  O   UNL     1     -33.226 109.312   3.452  0.00  0.00    +0.000 OA
BRANCH  35  37
ATOM     36  O   UNL     1     -31.464 108.417   4.704  0.00  0.00    +0.000 OA
ATOM     37  C   UNL     1     -32.633 108.701   4.515  0.00  0.00    +0.000 C 
ATOM     38  C   UNL     1     -33.558 108.366   5.629  0.00  0.00    +0.000 C 
ENDBRANCH  35  37
ENDBRANCH  21  35
BRANCH   6  39
ATOM     39  C   UNL     1     -36.750 107.504  -3.846  0.00  0.00    +0.000 C 
BRANCH  39  41
ATOM     40  O   UNL     1     -37.610 109.738  -4.722  0.00  0.00    +0.000 OA
ATOM     41  C   UNL     1     -36.516 108.918  -4.250  0.00  0.00    +0.000 C 
ATOM     42  C   UNL     1     -37.250 109.860  -3.409  0.00  0.00    +0.000 C 
ATOM     43  C   UNL     1     -35.212 109.280  -5.045  0.00  0.00    +0.000 C 
BRANCH  42  44
ATOM     44  C   UNL     1     -36.743 111.128  -2.981  0.00  0.00    +0.000 C 
ATOM     45  C   UNL     1     -37.243 112.402  -3.622  0.00  0.00    +0.000 C 
BRANCH  44  46
ATOM     46  C   UNL     1     -36.152 111.272  -1.700  0.00  0.00    +0.000 C 
ATOM     47  C   UNL     1     -35.681 111.357  -0.600  0.00  0.00    +0.000 C 
ATOM     48  C   UNL     1     -35.109 111.402   0.822  0.00  0.00    +0.000 C 
ENDBRANCH  44  46
ENDBRANCH  42  44
ENDBRANCH  39  41
BRANCH  39  49
ATOM     49  O   UNL     1     -37.778 106.735  -4.366  0.00  0.00    +0.000 OA
ATOM     50  H   UNL     1     -38.203 107.112  -5.160  0.00  0.00    +0.000 HD
ENDBRANCH  39  49
ENDBRANCH   6  39
BRANCH   8  51
ATOM     51  C   UNL     1     -33.847 103.851  -3.020  0.00  0.00    +0.000 C 
BRANCH  51  52
ATOM     52  O   UNL     1     -33.812 102.689  -2.367  0.00  0.00    +0.000 OA
ATOM     53  H   UNL     1     -33.900 101.937  -2.986  0.00  0.00    +0.000 HD
ENDBRANCH  51  52
ENDBRANCH   8  51
TORSDOF 13
ENDMDL
MODEL 9
REMARK VINA RESULT:      -4.3      3.977      8.928
REMARK  Name = 102471178_CandidaspongiolideCore.pdbqt.pdb
REMARK  13 active torsions:
REMARK  status: ('A' for Active; 'I' for Inactive)
REMARK    1  A    between atoms: C_6  and  C_39
REMARK    2  A    between atoms: C_8  and  O_27
REMARK    3  A    between atoms: C_8  and  C_51
REMARK    4  A    between atoms: C_10  and  O_29
REMARK    5  A    between atoms: C_15  and  O_31
REMARK    6  A    between atoms: C_16  and  O_33
REMARK    7  A    between atoms: C_21  and  O_35
REMARK    8  A    between atoms: O_35  and  C_37
REMARK    9  A    between atoms: C_39  and  C_41
REMARK   10  A    between atoms: C_39  and  O_49
REMARK   11  A    between atoms: C_42  and  C_44
REMARK   12  A    between atoms: C_44  and  C_46
REMARK   13  A    between atoms: C_51  and  O_52
REMARK                            x       y       z     vdW  Elec       q    Type
REMARK                         _______ _______ _______ _____ _____    ______ ____
ROOT
ATOM      1  O   UNL     1     -35.341 106.076  14.672  0.00  0.00    +0.000 OA
ATOM      2  O   UNL     1     -35.013 103.843  15.100  0.00  0.00    +0.000 OA
ATOM      3  O   UNL     1     -35.436  98.976  14.347  0.00  0.00    +0.000 OA
ATOM      4  O   UNL     1     -33.242 106.875  14.900  0.00  0.00    +0.000 OA
ATOM      5  O   UNL     1     -32.277 104.305  17.102  0.00  0.00    +0.000 OA
ATOM      6  C   UNL     1     -36.710 104.566  13.568  0.00  0.00    +0.000 C 
ATOM      7  C   UNL     1     -37.593 103.454  13.665  0.00  0.00    +0.000 C 
ATOM      8  C   UNL     1     -38.624 102.416  13.731  0.00  0.00    +0.000 C 
ATOM      9  C   UNL     1     -35.590 104.758  14.526  0.00  0.00    +0.000 C 
ATOM     10  C   UNL     1     -38.134 101.089  13.194  0.00  0.00    +0.000 C 
ATOM     11  C   UNL     1     -36.847 100.544  13.451  0.00  0.00    +0.000 C 
ATOM     12  C   UNL     1     -35.523 100.057  13.775  0.00  0.00    +0.000 C 
ATOM     13  C   UNL     1     -34.249 106.383  15.396  0.00  0.00    +0.000 C 
ATOM     14  C   UNL     1     -34.315 100.878  13.458  0.00  0.00    +0.000 C 
ATOM     15  C   UNL     1     -34.427 106.394  16.869  0.00  0.00    +0.000 C 
ATOM     16  C   UNL     1     -35.068 105.340  17.628  0.00  0.00    +0.000 C 
ATOM     17  C   UNL     1     -34.404 104.162  18.172  0.00  0.00    +0.000 C 
ATOM     18  C   UNL     1     -33.175 100.796  14.293  0.00  0.00    +0.000 C 
ATOM     19  C   UNL     1     -33.263 102.147  17.073  0.00  0.00    +0.000 C 
ATOM     20  C   UNL     1     -34.347 102.018  12.449  0.00  0.00    +0.000 C 
ATOM     21  C   UNL     1     -32.140 101.615  16.309  0.00  0.00    +0.000 C 
ATOM     22  C   UNL     1     -33.225 103.597  17.446  0.00  0.00    +0.000 C 
ATOM     23  C   UNL     1     -32.199 100.740  15.147  0.00  0.00    +0.000 C 
ATOM     24  C   UNL     1     -34.676 103.686  19.595  0.00  0.00    +0.000 C 
ATOM     25  C   UNL     1     -34.532 101.314  17.200  0.00  0.00    +0.000 C 
ATOM     26  C   UNL     1     -31.106  99.751  14.834  0.00  0.00    +0.000 C 
ENDROOT
BRANCH   8  27
ATOM     27  O   UNL     1     -39.691 102.877  12.899  0.00  0.00    +0.000 OA
ATOM     28  H   UNL     1     -40.329 103.277  13.524  0.00  0.00    +0.000 HD
ENDBRANCH   8  27
BRANCH  10  29
ATOM     29  O   UNL     1     -39.031 100.344  12.445  0.00  0.00    +0.000 OA
ATOM     30  H   UNL     1     -39.747 100.893  12.074  0.00  0.00    +0.000 HD
ENDBRANCH  10  29
BRANCH  15  31
ATOM     31  O   UNL     1     -33.552 107.166  17.618  0.00  0.00    +0.000 OA
ATOM     32  H   UNL     1     -33.319 107.987  17.134  0.00  0.00    +0.000 HD
ENDBRANCH  15  31
BRANCH  16  33
ATOM     33  O   UNL     1     -36.229 105.709  18.284  0.00  0.00    +0.000 OA
ATOM     34  C   UNL     1     -37.339 105.228  17.567  0.00  0.00    +0.000 C 
ENDBRANCH  16  33
BRANCH  21  35
ATOM     35  O   UNL     1     -30.869 101.858  16.890  0.00  0.00    +0.000 OA
BRANCH  35  37
ATOM     36  O   UNL     1     -30.799 100.011  18.324  0.00  0.00    +0.000 OA
ATOM     37  C   UNL     1     -30.687 101.196  18.066  0.00  0.00    +0.000 C 
ATOM     38  C   UNL     1     -30.249 102.055  19.197  0.00  0.00    +0.000 C 
ENDBRANCH  35  37
ENDBRANCH  21  35
BRANCH   6  39
ATOM     39  C   UNL     1     -36.887 105.460  12.446  0.00  0.00    +0.000 C 
BRANCH  39  41
ATOM     40  O   UNL     1     -38.681 106.873  13.581  0.00  0.00    +0.000 OA
ATOM     41  C   UNL     1     -38.083 106.345  12.374  0.00  0.00    +0.000 C 
ATOM     42  C   UNL     1     -37.813 107.680  12.901  0.00  0.00    +0.000 C 
ATOM     43  C   UNL     1     -39.211 106.023  11.330  0.00  0.00    +0.000 C 
BRANCH  42  44
ATOM     44  C   UNL     1     -38.338 108.891  12.347  0.00  0.00    +0.000 C 
ATOM     45  C   UNL     1     -39.420 109.654  13.075  0.00  0.00    +0.000 C 
BRANCH  44  46
ATOM     46  C   UNL     1     -37.586 109.636  11.403  0.00  0.00    +0.000 C 
ATOM     47  C   UNL     1     -36.989 110.265  10.574  0.00  0.00    +0.000 C 
ATOM     48  C   UNL     1     -36.287 111.077   9.479  0.00  0.00    +0.000 C 
ENDBRANCH  44  46
ENDBRANCH  42  44
ENDBRANCH  39  41
BRANCH  39  49
ATOM     49  O   UNL     1     -35.941 105.394  11.437  0.00  0.00    +0.000 OA
ATOM     50  H   UNL     1     -36.310 105.428  10.534  0.00  0.00    +0.000 HD
ENDBRANCH  39  49
ENDBRANCH   6  39
BRANCH   8  51
ATOM     51  C   UNL     1     -39.157 102.252  15.093  0.00  0.00    +0.000 C 
BRANCH  51  52
ATOM     52  O   UNL     1     -39.608 102.075  16.335  0.00  0.00    +0.000 OA
ATOM     53  H   UNL     1     -39.181 101.301  16.756  0.00  0.00    +0.000 HD
ENDBRANCH  51  52
ENDBRANCH   8  51
TORSDOF 13
ENDMDL
