MODEL 1
REMARK VINA RESULT:      -6.8      0.000      0.000
REMARK  Name = 10288191_Binimetinib.pdbqt.pdb
REMARK  6 active torsions:
REMARK  status: ('A' for Active; 'I' for Inactive)
REMARK    1  A    between atoms: C_6  and  N_21
REMARK    2  A    between atoms: C_7  and  C_14
REMARK    3  A    between atoms: N_13  and  O_16
REMARK    4  A    between atoms: O_16  and  C_17
REMARK    5  A    between atoms: C_18  and  O_19
REMARK    6  A    between atoms: N_21  and  C_25
REMARK                            x       y       z     vdW  Elec       q    Type
REMARK                         _______ _______ _______ _____ _____    ______ ____
ROOT
ATOM      1  F   UNL     1     -32.696 102.108  13.245  0.00  0.00    +0.000 F 
ATOM      2  N   UNL     1     -36.619 100.015  14.057  0.00  0.00    +0.000 N 
ATOM      3  N   UNL     1     -35.608 101.705  13.062  0.00  0.00    +0.000 NA
ATOM      4  C   UNL     1     -35.297  99.841  14.348  0.00  0.00    +0.000 A 
ATOM      5  C   UNL     1     -34.678 100.912  13.710  0.00  0.00    +0.000 A 
ATOM      6  C   UNL     1     -32.510 100.098  14.532  0.00  0.00    +0.000 A 
ATOM      7  C   UNL     1     -33.191  99.032  15.177  0.00  0.00    +0.000 A 
ATOM      8  C   UNL     1     -34.589  98.894  15.091  0.00  0.00    +0.000 A 
ATOM      9  C   UNL     1     -33.279 101.038  13.807  0.00  0.00    +0.000 A 
ATOM     10  C   UNL     1     -36.773 101.131  13.292  0.00  0.00    +0.000 A 
ATOM     11  C   UNL     1     -37.678  99.155  14.470  0.00  0.00    +0.000 C 
ENDROOT
BRANCH   7  14
ATOM     12  O   UNL     1     -31.542  97.374  15.497  0.00  0.00    +0.000 OA
ATOM     13  N   UNL     1     -32.859  97.888  17.316  0.00  0.00    +0.000 N 
ATOM     14  C   UNL     1     -32.453  98.024  16.004  0.00  0.00    +0.000 C 
ATOM     15  H   UNL     1     -33.794  98.137  17.615  0.00  0.00    +0.000 HD
BRANCH  13  16
ATOM     16  O   UNL     1     -32.335  96.745  17.959  0.00  0.00    +0.000 OA
BRANCH  16  17
ATOM     17  C   UNL     1     -31.333  97.174  18.724  0.00  0.00    +0.000 C 
ATOM     18  C   UNL     1     -30.172  97.669  19.593  0.00  0.00    +0.000 C 
BRANCH  18  19
ATOM     19  O   UNL     1     -29.162  98.100  20.339  0.00  0.00    +0.000 OA
ATOM     20  H   UNL     1     -28.512  97.388  20.467  0.00  0.00    +0.000 HD
ENDBRANCH  18  19
ENDBRANCH  16  17
ENDBRANCH  13  16
ENDBRANCH   7  14
BRANCH   6  21
ATOM     21  N   UNL     1     -31.095 100.188  14.596  0.00  0.00    +0.000 N 
ATOM     22  H   UNL     1     -30.623  99.735  13.799  0.00  0.00    +0.000 HD
BRANCH  21  25
ATOM     23 BR   UNL     1     -27.524 104.098  17.620  0.00  0.00    +0.000 Br
ATOM     24  F   UNL     1     -29.622  99.428  16.800  0.00  0.00    +0.000 F 
ATOM     25  C   UNL     1     -30.248 101.109  15.248  0.00  0.00    +0.000 A 
ATOM     26  C   UNL     1     -29.530 100.702  16.385  0.00  0.00    +0.000 A 
ATOM     27  C   UNL     1     -30.139 102.447  14.864  0.00  0.00    +0.000 A 
ATOM     28  C   UNL     1     -28.716 101.577  17.096  0.00  0.00    +0.000 A 
ATOM     29  C   UNL     1     -29.328 103.340  15.564  0.00  0.00    +0.000 A 
ATOM     30  C   UNL     1     -28.622 102.896  16.675  0.00  0.00    +0.000 A 
ENDBRANCH  21  25
ENDBRANCH   6  21
TORSDOF 6
ENDMDL
MODEL 2
REMARK VINA RESULT:      -6.6      4.389      7.885
REMARK  Name = 10288191_Binimetinib.pdbqt.pdb
REMARK  6 active torsions:
REMARK  status: ('A' for Active; 'I' for Inactive)
REMARK    1  A    between atoms: C_6  and  N_21
REMARK    2  A    between atoms: C_7  and  C_14
REMARK    3  A    between atoms: N_13  and  O_16
REMARK    4  A    between atoms: O_16  and  C_17
REMARK    5  A    between atoms: C_18  and  O_19
REMARK    6  A    between atoms: N_21  and  C_25
REMARK                            x       y       z     vdW  Elec       q    Type
REMARK                         _______ _______ _______ _____ _____    ______ ____
ROOT
ATOM      1  F   UNL     1     -33.103  98.055  16.074  0.00  0.00    +0.000 F 
ATOM      2  N   UNL     1     -30.057 101.222  15.015  0.00  0.00    +0.000 N 
ATOM      3  N   UNL     1     -30.460  99.354  16.118  0.00  0.00    +0.000 NA
ATOM      4  C   UNL     1     -31.358 100.929  14.726  0.00  0.00    +0.000 A 
ATOM      5  C   UNL     1     -31.590  99.749  15.426  0.00  0.00    +0.000 A 
ATOM      6  C   UNL     1     -33.893  99.738  14.566  0.00  0.00    +0.000 A 
ATOM      7  C   UNL     1     -33.609 100.950  13.883  0.00  0.00    +0.000 A 
ATOM      8  C   UNL     1     -32.341 101.556  13.957  0.00  0.00    +0.000 A 
ATOM      9  C   UNL     1     -32.865  99.156  15.345  0.00  0.00    +0.000 A 
ATOM     10  C   UNL     1     -29.549 100.269  15.845  0.00  0.00    +0.000 A 
ATOM     11  C   UNL     1     -29.329 102.341  14.514  0.00  0.00    +0.000 C 
ENDROOT
BRANCH   7  14
ATOM     12  O   UNL     1     -34.810 101.363  11.895  0.00  0.00    +0.000 OA
ATOM     13  N   UNL     1     -35.403 102.610  13.739  0.00  0.00    +0.000 N 
ATOM     14  C   UNL     1     -34.658 101.654  13.078  0.00  0.00    +0.000 C 
ATOM     15  H   UNL     1     -35.053 103.087  14.561  0.00  0.00    +0.000 HD
BRANCH  13  16
ATOM     16  O   UNL     1     -36.167 103.430  12.880  0.00  0.00    +0.000 OA
BRANCH  16  17
ATOM     17  C   UNL     1     -37.431 103.031  13.011  0.00  0.00    +0.000 C 
ATOM     18  C   UNL     1     -38.889 102.583  13.154  0.00  0.00    +0.000 C 
BRANCH  18  19
ATOM     19  O   UNL     1     -40.156 102.200  13.273  0.00  0.00    +0.000 OA
ATOM     20  H   UNL     1     -40.405 101.633  12.523  0.00  0.00    +0.000 HD
ENDBRANCH  18  19
ENDBRANCH  16  17
ENDBRANCH  13  16
ENDBRANCH   7  14
BRANCH   6  21
ATOM     21  N   UNL     1     -35.165  99.124  14.439  0.00  0.00    +0.000 N 
ATOM     22  H   UNL     1     -35.135  98.229  13.925  0.00  0.00    +0.000 HD
BRANCH  21  25
ATOM     23 BR   UNL     1     -40.298  99.808  17.660  0.00  0.00    +0.000 Br
ATOM     24  F   UNL     1     -37.618  99.487  13.232  0.00  0.00    +0.000 F 
ATOM     25  C   UNL     1     -36.338  99.239  15.214  0.00  0.00    +0.000 A 
ATOM     26  C   UNL     1     -37.571  99.450  14.574  0.00  0.00    +0.000 A 
ATOM     27  C   UNL     1     -36.333  99.229  16.610  0.00  0.00    +0.000 A 
ATOM     28  C   UNL     1     -38.753  99.618  15.287  0.00  0.00    +0.000 A 
ATOM     29  C   UNL     1     -37.508  99.394  17.343  0.00  0.00    +0.000 A 
ATOM     30  C   UNL     1     -38.710  99.587  16.673  0.00  0.00    +0.000 A 
ENDBRANCH  21  25
ENDBRANCH   6  21
TORSDOF 6
ENDMDL
MODEL 3
REMARK VINA RESULT:      -6.1      3.475      6.215
REMARK  Name = 10288191_Binimetinib.pdbqt.pdb
REMARK  6 active torsions:
REMARK  status: ('A' for Active; 'I' for Inactive)
REMARK    1  A    between atoms: C_6  and  N_21
REMARK    2  A    between atoms: C_7  and  C_14
REMARK    3  A    between atoms: N_13  and  O_16
REMARK    4  A    between atoms: O_16  and  C_17
REMARK    5  A    between atoms: C_18  and  O_19
REMARK    6  A    between atoms: N_21  and  C_25
REMARK                            x       y       z     vdW  Elec       q    Type
REMARK                         _______ _______ _______ _____ _____    ______ ____
ROOT
ATOM      1  F   UNL     1     -33.321 100.914  12.921  0.00  0.00    +0.000 F 
ATOM      2  N   UNL     1     -30.053 100.886  16.043  0.00  0.00    +0.000 N 
ATOM      3  N   UNL     1     -30.715 101.648  14.081  0.00  0.00    +0.000 NA
ATOM      4  C   UNL     1     -31.298 100.354  15.873  0.00  0.00    +0.000 A 
ATOM      5  C   UNL     1     -31.698 100.849  14.635  0.00  0.00    +0.000 A 
ATOM      6  C   UNL     1     -33.827  99.645  14.887  0.00  0.00    +0.000 A 
ATOM      7  C   UNL     1     -33.365  99.156  16.137  0.00  0.00    +0.000 A 
ATOM      8  C   UNL     1     -32.098  99.505  16.641  0.00  0.00    +0.000 A 
ATOM      9  C   UNL     1     -32.967 100.488  14.143  0.00  0.00    +0.000 A 
ATOM     10  C   UNL     1     -29.733 101.650  14.962  0.00  0.00    +0.000 A 
ATOM     11  C   UNL     1     -29.218 100.692  17.183  0.00  0.00    +0.000 C 
ENDROOT
BRANCH   7  14
ATOM     12  O   UNL     1     -35.403  98.416  17.068  0.00  0.00    +0.000 OA
ATOM     13  N   UNL     1     -33.528  97.172  17.563  0.00  0.00    +0.000 N 
ATOM     14  C   UNL     1     -34.195  98.220  16.961  0.00  0.00    +0.000 C 
ATOM     15  H   UNL     1     -32.538  97.217  17.770  0.00  0.00    +0.000 HD
BRANCH  13  16
ATOM     16  O   UNL     1     -34.290  96.499  18.542  0.00  0.00    +0.000 OA
BRANCH  16  17
ATOM     17  C   UNL     1     -33.576  95.435  18.904  0.00  0.00    +0.000 C 
ATOM     18  C   UNL     1     -32.751  94.217  19.333  0.00  0.00    +0.000 C 
BRANCH  18  19
ATOM     19  O   UNL     1     -32.034  93.165  19.712  0.00  0.00    +0.000 OA
ATOM     20  H   UNL     1     -32.423  92.764  20.509  0.00  0.00    +0.000 HD
ENDBRANCH  18  19
ENDBRANCH  16  17
ENDBRANCH  13  16
ENDBRANCH   7  14
BRANCH   6  21
ATOM     21  N   UNL     1     -35.126  99.315  14.422  0.00  0.00    +0.000 N 
ATOM     22  H   UNL     1     -35.345  98.311  14.509  0.00  0.00    +0.000 HD
BRANCH  21  25
ATOM     23 BR   UNL     1     -40.098 102.760  13.652  0.00  0.00    +0.000 Br
ATOM     24  F   UNL     1     -36.519  99.371  12.043  0.00  0.00    +0.000 F 
ATOM     25  C   UNL     1     -36.295 100.093  14.291  0.00  0.00    +0.000 A 
ATOM     26  C   UNL     1     -36.970 100.124  13.059  0.00  0.00    +0.000 A 
ATOM     27  C   UNL     1     -36.787 100.907  15.314  0.00  0.00    +0.000 A 
ATOM     28  C   UNL     1     -38.100 100.908  12.856  0.00  0.00    +0.000 A 
ATOM     29  C   UNL     1     -37.920 101.700  15.130  0.00  0.00    +0.000 A 
ATOM     30  C   UNL     1     -38.568 101.693  13.901  0.00  0.00    +0.000 A 
ENDBRANCH  21  25
ENDBRANCH   6  21
TORSDOF 6
ENDMDL
MODEL 4
REMARK VINA RESULT:      -6.0      2.777      3.578
REMARK  Name = 10288191_Binimetinib.pdbqt.pdb
REMARK  6 active torsions:
REMARK  status: ('A' for Active; 'I' for Inactive)
REMARK    1  A    between atoms: C_6  and  N_21
REMARK    2  A    between atoms: C_7  and  C_14
REMARK    3  A    between atoms: N_13  and  O_16
REMARK    4  A    between atoms: O_16  and  C_17
REMARK    5  A    between atoms: C_18  and  O_19
REMARK    6  A    between atoms: N_21  and  C_25
REMARK                            x       y       z     vdW  Elec       q    Type
REMARK                         _______ _______ _______ _____ _____    ______ ____
ROOT
ATOM      1  F   UNL     1     -35.613 100.249  12.302  0.00  0.00    +0.000 F 
ATOM      2  N   UNL     1     -39.083 102.200  14.444  0.00  0.00    +0.000 N 
ATOM      3  N   UNL     1     -38.191 101.660  12.499  0.00  0.00    +0.000 NA
ATOM      4  C   UNL     1     -37.929 101.547  14.767  0.00  0.00    +0.000 A 
ATOM      5  C   UNL     1     -37.386 101.212  13.530  0.00  0.00    +0.000 A 
ATOM      6  C   UNL     1     -35.500 100.146  14.691  0.00  0.00    +0.000 A 
ATOM      7  C   UNL     1     -36.089 100.524  15.926  0.00  0.00    +0.000 A 
ATOM      8  C   UNL     1     -37.307 101.227  15.975  0.00  0.00    +0.000 A 
ATOM      9  C   UNL     1     -36.165 100.511  13.497  0.00  0.00    +0.000 A 
ATOM     10  C   UNL     1     -39.212 102.252  13.089  0.00  0.00    +0.000 A 
ATOM     11  C   UNL     1     -40.023 102.731  15.375  0.00  0.00    +0.000 C 
ENDROOT
BRANCH   7  14
ATOM     12  O   UNL     1     -34.417 100.844  17.562  0.00  0.00    +0.000 OA
ATOM     13  N   UNL     1     -35.996  99.223  17.999  0.00  0.00    +0.000 N 
ATOM     14  C   UNL     1     -35.422 100.218  17.233  0.00  0.00    +0.000 C 
ATOM     15  H   UNL     1     -36.567  98.495  17.588  0.00  0.00    +0.000 HD
BRANCH  13  16
ATOM     16  O   UNL     1     -35.181  98.783  19.064  0.00  0.00    +0.000 OA
BRANCH  16  17
ATOM     17  C   UNL     1     -34.719  97.585  18.710  0.00  0.00    +0.000 C 
ATOM     18  C   UNL     1     -34.187  96.203  18.316  0.00  0.00    +0.000 C 
BRANCH  18  19
ATOM     19  O   UNL     1     -33.727  95.003  17.982  0.00  0.00    +0.000 OA
ATOM     20  H   UNL     1     -32.763  95.035  17.860  0.00  0.00    +0.000 HD
ENDBRANCH  18  19
ENDBRANCH  16  17
ENDBRANCH  13  16
ENDBRANCH   7  14
BRANCH   6  21
ATOM     21  N   UNL     1     -34.294  99.399  14.670  0.00  0.00    +0.000 N 
ATOM     22  H   UNL     1     -34.395  98.477  14.218  0.00  0.00    +0.000 HD
BRANCH  21  25
ATOM     23 BR   UNL     1     -28.458 101.102  15.148  0.00  0.00    +0.000 Br
ATOM     24  F   UNL     1     -32.416  97.853  15.969  0.00  0.00    +0.000 F 
ATOM     25  C   UNL     1     -32.944  99.804  14.727  0.00  0.00    +0.000 A 
ATOM     26  C   UNL     1     -32.014  99.011  15.419  0.00  0.00    +0.000 A 
ATOM     27  C   UNL     1     -32.487 101.009  14.189  0.00  0.00    +0.000 A 
ATOM     28  C   UNL     1     -30.679  99.382  15.550  0.00  0.00    +0.000 A 
ATOM     29  C   UNL     1     -31.153 101.398  14.309  0.00  0.00    +0.000 A 
ATOM     30  C   UNL     1     -30.259 100.579  14.988  0.00  0.00    +0.000 A 
ENDBRANCH  21  25
ENDBRANCH   6  21
TORSDOF 6
ENDMDL
MODEL 5
REMARK VINA RESULT:      -6.0      1.969      2.413
REMARK  Name = 10288191_Binimetinib.pdbqt.pdb
REMARK  6 active torsions:
REMARK  status: ('A' for Active; 'I' for Inactive)
REMARK    1  A    between atoms: C_6  and  N_21
REMARK    2  A    between atoms: C_7  and  C_14
REMARK    3  A    between atoms: N_13  and  O_16
REMARK    4  A    between atoms: O_16  and  C_17
REMARK    5  A    between atoms: C_18  and  O_19
REMARK    6  A    between atoms: N_21  and  C_25
REMARK                            x       y       z     vdW  Elec       q    Type
REMARK                         _______ _______ _______ _____ _____    ______ ____
ROOT
ATOM      1  F   UNL     1     -31.327 102.604  14.838  0.00  0.00    +0.000 F 
ATOM      2  N   UNL     1     -35.475 101.248  13.661  0.00  0.00    +0.000 N 
ATOM      3  N   UNL     1     -34.007 102.896  13.652  0.00  0.00    +0.000 NA
ATOM      4  C   UNL     1     -34.369 100.723  14.264  0.00  0.00    +0.000 A 
ATOM      5  C   UNL     1     -33.457 101.774  14.244  0.00  0.00    +0.000 A 
ATOM      6  C   UNL     1     -31.820 100.321  15.363  0.00  0.00    +0.000 A 
ATOM      7  C   UNL     1     -32.792  99.286  15.371  0.00  0.00    +0.000 A 
ATOM      8  C   UNL     1     -34.074  99.478  14.823  0.00  0.00    +0.000 A 
ATOM      9  C   UNL     1     -32.179 101.568  14.800  0.00  0.00    +0.000 A 
ATOM     10  C   UNL     1     -35.231 102.540  13.308  0.00  0.00    +0.000 A 
ATOM     11  C   UNL     1     -36.695 100.551  13.416  0.00  0.00    +0.000 C 
ENDROOT
BRANCH   7  14
ATOM     12  O   UNL     1     -31.644  97.228  15.501  0.00  0.00    +0.000 OA
ATOM     13  N   UNL     1     -33.250  97.620  17.106  0.00  0.00    +0.000 N 
ATOM     14  C   UNL     1     -32.505  97.954  15.993  0.00  0.00    +0.000 C 
ATOM     15  H   UNL     1     -34.161  98.027  17.281  0.00  0.00    +0.000 HD
BRANCH  13  16
ATOM     16  O   UNL     1     -33.146  96.262  17.475  0.00  0.00    +0.000 OA
BRANCH  16  17
ATOM     17  C   UNL     1     -33.398  96.210  18.782  0.00  0.00    +0.000 C 
ATOM     18  C   UNL     1     -33.699  96.145  20.283  0.00  0.00    +0.000 C 
BRANCH  18  19
ATOM     19  O   UNL     1     -33.967  96.084  21.583  0.00  0.00    +0.000 OA
ATOM     20  H   UNL     1     -34.545  95.324  21.770  0.00  0.00    +0.000 HD
ENDBRANCH  18  19
ENDBRANCH  16  17
ENDBRANCH  13  16
ENDBRANCH   7  14
BRANCH   6  21
ATOM     21  N   UNL     1     -30.520 100.088  15.881  0.00  0.00    +0.000 N 
ATOM     22  H   UNL     1     -29.803  99.979  15.147  0.00  0.00    +0.000 HD
BRANCH  21  25
ATOM     23 BR   UNL     1     -28.163 101.298  21.374  0.00  0.00    +0.000 Br
ATOM     24  F   UNL     1     -29.666  98.094  17.584  0.00  0.00    +0.000 F 
ATOM     25  C   UNL     1     -29.943 100.405  17.129  0.00  0.00    +0.000 A 
ATOM     26  C   UNL     1     -29.542  99.369  17.988  0.00  0.00    +0.000 A 
ATOM     27  C   UNL     1     -29.814 101.714  17.598  0.00  0.00    +0.000 A 
ATOM     28  C   UNL     1     -29.010  99.619  19.249  0.00  0.00    +0.000 A 
ATOM     29  C   UNL     1     -29.282 101.986  18.858  0.00  0.00    +0.000 A 
ATOM     30  C   UNL     1     -28.883 100.934  19.673  0.00  0.00    +0.000 A 
ENDBRANCH  21  25
ENDBRANCH   6  21
TORSDOF 6
ENDMDL
MODEL 6
REMARK VINA RESULT:      -5.9      3.632      6.765
REMARK  Name = 10288191_Binimetinib.pdbqt.pdb
REMARK  6 active torsions:
REMARK  status: ('A' for Active; 'I' for Inactive)
REMARK    1  A    between atoms: C_6  and  N_21
REMARK    2  A    between atoms: C_7  and  C_14
REMARK    3  A    between atoms: N_13  and  O_16
REMARK    4  A    between atoms: O_16  and  C_17
REMARK    5  A    between atoms: C_18  and  O_19
REMARK    6  A    between atoms: N_21  and  C_25
REMARK                            x       y       z     vdW  Elec       q    Type
REMARK                         _______ _______ _______ _____ _____    ______ ____
ROOT
ATOM      1  F   UNL     1     -33.268 100.873  12.956  0.00  0.00    +0.000 F 
ATOM      2  N   UNL     1     -30.034 100.916  16.114  0.00  0.00    +0.000 N 
ATOM      3  N   UNL     1     -30.668 101.620  14.120  0.00  0.00    +0.000 NA
ATOM      4  C   UNL     1     -31.283 100.391  15.947  0.00  0.00    +0.000 A 
ATOM      5  C   UNL     1     -31.664 100.849  14.689  0.00  0.00    +0.000 A 
ATOM      6  C   UNL     1     -33.807  99.674  14.956  0.00  0.00    +0.000 A 
ATOM      7  C   UNL     1     -33.363  99.221  16.227  0.00  0.00    +0.000 A 
ATOM      8  C   UNL     1     -32.099  99.575  16.733  0.00  0.00    +0.000 A 
ATOM      9  C   UNL     1     -32.931 100.484  14.195  0.00  0.00    +0.000 A 
ATOM     10  C   UNL     1     -29.695 101.642  15.012  0.00  0.00    +0.000 A 
ATOM     11  C   UNL     1     -29.214 100.753  17.268  0.00  0.00    +0.000 C 
ENDROOT
BRANCH   7  14
ATOM     12  O   UNL     1     -34.004  97.110  17.064  0.00  0.00    +0.000 OA
ATOM     13  N   UNL     1     -35.198  98.929  17.821  0.00  0.00    +0.000 N 
ATOM     14  C   UNL     1     -34.212  98.321  17.072  0.00  0.00    +0.000 C 
ATOM     15  H   UNL     1     -35.591  99.825  17.562  0.00  0.00    +0.000 HD
BRANCH  13  16
ATOM     16  O   UNL     1     -36.137  98.027  18.367  0.00  0.00    +0.000 OA
BRANCH  16  17
ATOM     17  C   UNL     1     -37.329  98.408  17.912  0.00  0.00    +0.000 C 
ATOM     18  C   UNL     1     -38.703  98.854  17.400  0.00  0.00    +0.000 C 
BRANCH  18  19
ATOM     19  O   UNL     1     -39.895  99.245  16.963  0.00  0.00    +0.000 OA
ATOM     20  H   UNL     1     -39.913 100.212  16.862  0.00  0.00    +0.000 HD
ENDBRANCH  18  19
ENDBRANCH  16  17
ENDBRANCH  13  16
ENDBRANCH   7  14
BRANCH   6  21
ATOM     21  N   UNL     1     -35.104  99.340  14.489  0.00  0.00    +0.000 N 
ATOM     22  H   UNL     1     -35.323  98.336  14.578  0.00  0.00    +0.000 HD
BRANCH  21  25
ATOM     23 BR   UNL     1     -40.083 102.767  13.679  0.00  0.00    +0.000 Br
ATOM     24  F   UNL     1     -36.566  99.277  12.151  0.00  0.00    +0.000 F 
ATOM     25  C   UNL     1     -36.274 100.117  14.350  0.00  0.00    +0.000 A 
ATOM     26  C   UNL     1     -36.984 100.086  13.138  0.00  0.00    +0.000 A 
ATOM     27  C   UNL     1     -36.732 100.987  15.341  0.00  0.00    +0.000 A 
ATOM     28  C   UNL     1     -38.117 100.864  12.926  0.00  0.00    +0.000 A 
ATOM     29  C   UNL     1     -37.867 101.775  15.148  0.00  0.00    +0.000 A 
ATOM     30  C   UNL     1     -38.551 101.706  13.941  0.00  0.00    +0.000 A 
ENDBRANCH  21  25
ENDBRANCH   6  21
TORSDOF 6
ENDMDL
MODEL 7
REMARK VINA RESULT:      -5.9      3.339      6.250
REMARK  Name = 10288191_Binimetinib.pdbqt.pdb
REMARK  6 active torsions:
REMARK  status: ('A' for Active; 'I' for Inactive)
REMARK    1  A    between atoms: C_6  and  N_21
REMARK    2  A    between atoms: C_7  and  C_14
REMARK    3  A    between atoms: N_13  and  O_16
REMARK    4  A    between atoms: O_16  and  C_17
REMARK    5  A    between atoms: C_18  and  O_19
REMARK    6  A    between atoms: N_21  and  C_25
REMARK                            x       y       z     vdW  Elec       q    Type
REMARK                         _______ _______ _______ _____ _____    ______ ____
ROOT
ATOM      1  F   UNL     1     -32.952 102.457  14.516  0.00  0.00    +0.000 F 
ATOM      2  N   UNL     1     -29.208 102.164  17.032  0.00  0.00    +0.000 N 
ATOM      3  N   UNL     1     -30.519 103.471  15.830  0.00  0.00    +0.000 NA
ATOM      4  C   UNL     1     -30.223 101.347  16.624  0.00  0.00    +0.000 A 
ATOM      5  C   UNL     1     -31.038 102.190  15.874  0.00  0.00    +0.000 A 
ATOM      6  C   UNL     1     -32.552 100.296  15.467  0.00  0.00    +0.000 A 
ATOM      7  C   UNL     1     -31.679  99.476  16.229  0.00  0.00    +0.000 A 
ATOM      8  C   UNL     1     -30.508  99.994  16.814  0.00  0.00    +0.000 A 
ATOM      9  C   UNL     1     -32.205 101.657  15.292  0.00  0.00    +0.000 A 
ATOM     10  C   UNL     1     -29.411 103.420  16.545  0.00  0.00    +0.000 A 
ATOM     11  C   UNL     1     -28.113 101.775  17.857  0.00  0.00    +0.000 C 
ENDROOT
BRANCH   7  14
ATOM     12  O   UNL     1     -31.824  97.247  15.468  0.00  0.00    +0.000 OA
ATOM     13  N   UNL     1     -32.338  97.620  17.683  0.00  0.00    +0.000 N 
ATOM     14  C   UNL     1     -31.951  98.015  16.418  0.00  0.00    +0.000 C 
ATOM     15  H   UNL     1     -32.777  98.261  18.332  0.00  0.00    +0.000 HD
BRANCH  13  16
ATOM     16  O   UNL     1     -32.851  96.306  17.737  0.00  0.00    +0.000 OA
BRANCH  16  17
ATOM     17  C   UNL     1     -34.111  96.414  18.153  0.00  0.00    +0.000 C 
ATOM     18  C   UNL     1     -35.564  96.526  18.626  0.00  0.00    +0.000 C 
BRANCH  18  19
ATOM     19  O   UNL     1     -36.825  96.615  19.034  0.00  0.00    +0.000 OA
ATOM     20  H   UNL     1     -37.187  97.491  18.816  0.00  0.00    +0.000 HD
ENDBRANCH  18  19
ENDBRANCH  16  17
ENDBRANCH  13  16
ENDBRANCH   7  14
BRANCH   6  21
ATOM     21  N   UNL     1     -33.749  99.761  14.926  0.00  0.00    +0.000 N 
ATOM     22  H   UNL     1     -33.583  99.052  14.195  0.00  0.00    +0.000 HD
BRANCH  21  25
ATOM     23 BR   UNL     1     -39.456  99.476  17.057  0.00  0.00    +0.000 Br
ATOM     24  F   UNL     1     -35.902  99.216  13.290  0.00  0.00    +0.000 F 
ATOM     25  C   UNL     1     -35.051  99.663  15.459  0.00  0.00    +0.000 A 
ATOM     26  C   UNL     1     -36.133  99.412  14.599  0.00  0.00    +0.000 A 
ATOM     27  C   UNL     1     -35.341  99.880  16.808  0.00  0.00    +0.000 A 
ATOM     28  C   UNL     1     -37.444  99.351  15.059  0.00  0.00    +0.000 A 
ATOM     29  C   UNL     1     -36.648  99.822  17.289  0.00  0.00    +0.000 A 
ATOM     30  C   UNL     1     -37.690  99.557  16.409  0.00  0.00    +0.000 A 
ENDBRANCH  21  25
ENDBRANCH   6  21
TORSDOF 6
ENDMDL
MODEL 8
REMARK VINA RESULT:      -5.5      5.054      7.375
REMARK  Name = 10288191_Binimetinib.pdbqt.pdb
REMARK  6 active torsions:
REMARK  status: ('A' for Active; 'I' for Inactive)
REMARK    1  A    between atoms: C_6  and  N_21
REMARK    2  A    between atoms: C_7  and  C_14
REMARK    3  A    between atoms: N_13  and  O_16
REMARK    4  A    between atoms: O_16  and  C_17
REMARK    5  A    between atoms: C_18  and  O_19
REMARK    6  A    between atoms: N_21  and  C_25
REMARK                            x       y       z     vdW  Elec       q    Type
REMARK                         _______ _______ _______ _____ _____    ______ ____
ROOT
ATOM      1  F   UNL     1     -37.779  98.761  16.229  0.00  0.00    +0.000 F 
ATOM      2  N   UNL     1     -41.030 101.685  17.374  0.00  0.00    +0.000 N 
ATOM      3  N   UNL     1     -39.914  99.865  17.932  0.00  0.00    +0.000 NA
ATOM      4  C   UNL     1     -40.126 101.516  16.365  0.00  0.00    +0.000 A 
ATOM      5  C   UNL     1     -39.431 100.369  16.738  0.00  0.00    +0.000 A 
ATOM      6  C   UNL     1     -38.067 100.584  14.705  0.00  0.00    +0.000 A 
ATOM      7  C   UNL     1     -38.816 101.741  14.363  0.00  0.00    +0.000 A 
ATOM      8  C   UNL     1     -39.851 102.217  15.189  0.00  0.00    +0.000 A 
ATOM      9  C   UNL     1     -38.400  99.903  15.900  0.00  0.00    +0.000 A 
ATOM     10  C   UNL     1     -40.881 100.688  18.290  0.00  0.00    +0.000 A 
ATOM     11  C   UNL     1     -41.975 102.748  17.471  0.00  0.00    +0.000 C 
ENDROOT
BRANCH   7  14
ATOM     12  O   UNL     1     -38.587 101.889  12.019  0.00  0.00    +0.000 OA
ATOM     13  N   UNL     1     -38.291 103.837  13.213  0.00  0.00    +0.000 N 
ATOM     14  C   UNL     1     -38.556 102.488  13.091  0.00  0.00    +0.000 C 
ATOM     15  H   UNL     1     -37.920 104.234  14.067  0.00  0.00    +0.000 HD
BRANCH  13  16
ATOM     16  O   UNL     1     -37.779 104.426  12.036  0.00  0.00    +0.000 OA
BRANCH  16  17
ATOM     17  C   UNL     1     -36.728 105.153  12.409  0.00  0.00    +0.000 C 
ATOM     18  C   UNL     1     -35.519 105.985  12.851  0.00  0.00    +0.000 C 
BRANCH  18  19
ATOM     19  O   UNL     1     -34.471 106.701  13.241  0.00  0.00    +0.000 OA
ATOM     20  H   UNL     1     -34.767 107.509  13.693  0.00  0.00    +0.000 HD
ENDBRANCH  18  19
ENDBRANCH  16  17
ENDBRANCH  13  16
ENDBRANCH   7  14
BRANCH   6  21
ATOM     21  N   UNL     1     -36.998 100.151  13.878  0.00  0.00    +0.000 N 
ATOM     22  H   UNL     1     -37.306  99.856  12.938  0.00  0.00    +0.000 HD
BRANCH  21  25
ATOM     23 BR   UNL     1     -31.039 101.394  14.230  0.00  0.00    +0.000 Br
ATOM     24  F   UNL     1     -35.248  98.559  15.295  0.00  0.00    +0.000 F 
ATOM     25  C   UNL     1     -35.619 100.445  13.905  0.00  0.00    +0.000 A 
ATOM     26  C   UNL     1     -34.754  99.634  14.658  0.00  0.00    +0.000 A 
ATOM     27  C   UNL     1     -35.066 101.563  13.276  0.00  0.00    +0.000 A 
ATOM     28  C   UNL     1     -33.393  99.902  14.761  0.00  0.00    +0.000 A 
ATOM     29  C   UNL     1     -33.704 101.848  13.366  0.00  0.00    +0.000 A 
ATOM     30  C   UNL     1     -32.878 101.013  14.108  0.00  0.00    +0.000 A 
ENDBRANCH  21  25
ENDBRANCH   6  21
TORSDOF 6
ENDMDL
MODEL 9
REMARK VINA RESULT:      -5.4     14.365     15.837
REMARK  Name = 10288191_Binimetinib.pdbqt.pdb
REMARK  6 active torsions:
REMARK  status: ('A' for Active; 'I' for Inactive)
REMARK    1  A    between atoms: C_6  and  N_21
REMARK    2  A    between atoms: C_7  and  C_14
REMARK    3  A    between atoms: N_13  and  O_16
REMARK    4  A    between atoms: O_16  and  C_17
REMARK    5  A    between atoms: C_18  and  O_19
REMARK    6  A    between atoms: N_21  and  C_25
REMARK                            x       y       z     vdW  Elec       q    Type
REMARK                         _______ _______ _______ _____ _____    ______ ____
ROOT
ATOM      1  F   UNL     1     -24.790 106.514   3.917  0.00  0.00    +0.000 F 
ATOM      2  N   UNL     1     -22.436 105.831   7.715  0.00  0.00    +0.000 N 
ATOM      3  N   UNL     1     -23.442 107.303   6.415  0.00  0.00    +0.000 NA
ATOM      4  C   UNL     1     -22.953 105.087   6.694  0.00  0.00    +0.000 A 
ATOM      5  C   UNL     1     -23.585 106.031   5.890  0.00  0.00    +0.000 A 
ATOM      6  C   UNL     1     -24.263 104.223   4.369  0.00  0.00    +0.000 A 
ATOM      7  C   UNL     1     -23.590 103.303   5.215  0.00  0.00    +0.000 A 
ATOM      8  C   UNL     1     -22.930 103.726   6.383  0.00  0.00    +0.000 A 
ATOM      9  C   UNL     1     -24.239 105.593   4.722  0.00  0.00    +0.000 A 
ATOM     10  C   UNL     1     -22.742 107.144   7.522  0.00  0.00    +0.000 A 
ATOM     11  C   UNL     1     -21.704 105.317   8.825  0.00  0.00    +0.000 C 
ENDROOT
BRANCH   7  14
ATOM     12  O   UNL     1     -24.568 101.197   4.798  0.00  0.00    +0.000 OA
ATOM     13  N   UNL     1     -22.269 101.308   4.693  0.00  0.00    +0.000 N 
ATOM     14  C   UNL     1     -23.527 101.843   4.883  0.00  0.00    +0.000 C 
ATOM     15  H   UNL     1     -21.443 101.726   5.103  0.00  0.00    +0.000 HD
BRANCH  13  16
ATOM     16  O   UNL     1     -22.248  99.897   4.667  0.00  0.00    +0.000 OA
BRANCH  16  17
ATOM     17  C   UNL     1     -21.671  99.512   5.803  0.00  0.00    +0.000 C 
ATOM     18  C   UNL     1     -21.014  99.058   7.111  0.00  0.00    +0.000 C 
BRANCH  18  19
ATOM     19  O   UNL     1     -20.449  98.657   8.245  0.00  0.00    +0.000 OA
ATOM     20  H   UNL     1     -19.566  99.053   8.337  0.00  0.00    +0.000 HD
ENDBRANCH  18  19
ENDBRANCH  16  17
ENDBRANCH  13  16
ENDBRANCH   7  14
BRANCH   6  21
ATOM     21  N   UNL     1     -24.959 103.766   3.221  0.00  0.00    +0.000 N 
ATOM     22  H   UNL     1     -25.982 103.731   3.352  0.00  0.00    +0.000 HD
BRANCH  21  25
ATOM     23 BR   UNL     1     -23.686 103.817  -2.743  0.00  0.00    +0.000 Br
ATOM     24  F   UNL     1     -26.100 105.586   1.491  0.00  0.00    +0.000 F 
ATOM     25  C   UNL     1     -24.612 103.775   1.853  0.00  0.00    +0.000 A 
ATOM     26  C   UNL     1     -25.229 104.695   0.990  0.00  0.00    +0.000 A 
ATOM     27  C   UNL     1     -23.728 102.854   1.286  0.00  0.00    +0.000 A 
ATOM     28  C   UNL     1     -24.962 104.721  -0.375  0.00  0.00    +0.000 A 
ATOM     29  C   UNL     1     -23.447 102.864  -0.080  0.00  0.00    +0.000 A 
ATOM     30  C   UNL     1     -24.066 103.800  -0.900  0.00  0.00    +0.000 A 
ENDBRANCH  21  25
ENDBRANCH   6  21
TORSDOF 6
ENDMDL
