MODEL 1
REMARK VINA RESULT:      -5.1      0.000      0.000
REMARK  Name = 10281_Thymoquinone.pdbqt.pdb
REMARK  1 active torsions:
REMARK  status: ('A' for Active; 'I' for Inactive)
REMARK    1  A    between atoms: C_3  and  C_10
REMARK                            x       y       z     vdW  Elec       q    Type
REMARK                         _______ _______ _______ _____ _____    ______ ____
ROOT
ATOM      1  O   UNL     1     -28.348 100.999  18.066  0.00  0.00    +0.000 OA
ATOM      2  O   UNL     1     -31.531  97.459  15.561  0.00  0.00    +0.000 OA
ATOM      3  C   UNL     1     -29.345 100.308  15.974  0.00  0.00    +0.000 C 
ATOM      4  C   UNL     1     -29.056 100.232  17.445  0.00  0.00    +0.000 C 
ATOM      5  C   UNL     1     -30.143  99.339  15.599  0.00  0.00    +0.000 C 
ATOM      6  C   UNL     1     -30.526  98.141  17.718  0.00  0.00    +0.000 C 
ATOM      7  C   UNL     1     -30.830  98.204  16.218  0.00  0.00    +0.000 C 
ATOM      8  C   UNL     1     -29.731  99.109  18.085  0.00  0.00    +0.000 C 
ATOM      9  C   UNL     1     -31.047  97.126  18.684  0.00  0.00    +0.000 C 
ENDROOT
BRANCH   3  10
ATOM     10  C   UNL     1     -28.772 101.338  15.173  0.00  0.00    +0.000 C 
ATOM     11  C   UNL     1     -29.507 102.638  14.953  0.00  0.00    +0.000 C 
ATOM     12  C   UNL     1     -27.292 101.349  14.882  0.00  0.00    +0.000 C 
ENDBRANCH   3  10
TORSDOF 1
ENDMDL
MODEL 2
REMARK VINA RESULT:      -4.5      4.644      5.722
REMARK  Name = 10281_Thymoquinone.pdbqt.pdb
REMARK  1 active torsions:
REMARK  status: ('A' for Active; 'I' for Inactive)
REMARK    1  A    between atoms: C_3  and  C_10
REMARK                            x       y       z     vdW  Elec       q    Type
REMARK                         _______ _______ _______ _____ _____    ______ ____
ROOT
ATOM      1  O   UNL     1     -34.139  99.283  16.386  0.00  0.00    +0.000 OA
ATOM      2  O   UNL     1     -34.669 101.399  11.469  0.00  0.00    +0.000 OA
ATOM      3  C   UNL     1     -33.051 100.417  14.547  0.00  0.00    +0.000 C 
ATOM      4  C   UNL     1     -34.196  99.777  15.277  0.00  0.00    +0.000 C 
ATOM      5  C   UNL     1     -33.427 100.856  13.372  0.00  0.00    +0.000 C 
ATOM      6  C   UNL     1     -35.812 100.240  13.333  0.00  0.00    +0.000 C 
ATOM      7  C   UNL     1     -34.654 100.895  12.575  0.00  0.00    +0.000 C 
ATOM      8  C   UNL     1     -35.431  99.805  14.503  0.00  0.00    +0.000 C 
ATOM      9  C   UNL     1     -37.217 100.093  12.846  0.00  0.00    +0.000 C 
ENDROOT
BRANCH   3  10
ATOM     10  C   UNL     1     -31.757 100.483  15.141  0.00  0.00    +0.000 C 
ATOM     11  C   UNL     1     -31.458 101.498  16.218  0.00  0.00    +0.000 C 
ATOM     12  C   UNL     1     -30.804  99.318  15.037  0.00  0.00    +0.000 C 
ENDBRANCH   3  10
TORSDOF 1
ENDMDL
MODEL 3
REMARK VINA RESULT:      -4.4      4.585      5.922
REMARK  Name = 10281_Thymoquinone.pdbqt.pdb
REMARK  1 active torsions:
REMARK  status: ('A' for Active; 'I' for Inactive)
REMARK    1  A    between atoms: C_3  and  C_10
REMARK                            x       y       z     vdW  Elec       q    Type
REMARK                         _______ _______ _______ _____ _____    ______ ____
ROOT
ATOM      1  O   UNL     1     -35.632  98.801  15.336  0.00  0.00    +0.000 OA
ATOM      2  O   UNL     1     -31.033 101.145  13.820  0.00  0.00    +0.000 OA
ATOM      3  C   UNL     1     -34.583 100.483  13.949  0.00  0.00    +0.000 C 
ATOM      4  C   UNL     1     -34.627  99.368  14.954  0.00  0.00    +0.000 C 
ATOM      5  C   UNL     1     -33.354 100.887  13.746  0.00  0.00    +0.000 C 
ATOM      6  C   UNL     1     -32.074  99.414  15.251  0.00  0.00    +0.000 C 
ATOM      7  C   UNL     1     -32.013 100.552  14.228  0.00  0.00    +0.000 C 
ATOM      8  C   UNL     1     -33.302  99.016  15.448  0.00  0.00    +0.000 C 
ATOM      9  C   UNL     1     -30.912  98.799  15.960  0.00  0.00    +0.000 C 
ENDROOT
BRANCH   3  10
ATOM     10  C   UNL     1     -35.782 100.971  13.352  0.00  0.00    +0.000 C 
ATOM     11  C   UNL     1     -36.571 100.108  12.398  0.00  0.00    +0.000 C 
ATOM     12  C   UNL     1     -36.514 102.147  13.952  0.00  0.00    +0.000 C 
ENDBRANCH   3  10
TORSDOF 1
ENDMDL
MODEL 4
REMARK VINA RESULT:      -4.0     11.078     13.215
REMARK  Name = 10281_Thymoquinone.pdbqt.pdb
REMARK  1 active torsions:
REMARK  status: ('A' for Active; 'I' for Inactive)
REMARK    1  A    between atoms: C_3  and  C_10
REMARK                            x       y       z     vdW  Elec       q    Type
REMARK                         _______ _______ _______ _____ _____    ______ ____
ROOT
ATOM      1  O   UNL     1     -21.735 103.260   6.567  0.00  0.00    +0.000 OA
ATOM      2  O   UNL     1     -25.450 100.445   3.880  0.00  0.00    +0.000 OA
ATOM      3  C   UNL     1     -22.913 101.158   6.353  0.00  0.00    +0.000 C 
ATOM      4  C   UNL     1     -22.562 102.574   5.999  0.00  0.00    +0.000 C 
ATOM      5  C   UNL     1     -23.842 100.689   5.558  0.00  0.00    +0.000 C 
ATOM      6  C   UNL     1     -24.261 102.608   4.071  0.00  0.00    +0.000 C 
ATOM      7  C   UNL     1     -24.631 101.164   4.420  0.00  0.00    +0.000 C 
ATOM      8  C   UNL     1     -23.335 103.070   4.867  0.00  0.00    +0.000 C 
ATOM      9  C   UNL     1     -24.850 103.431   2.971  0.00  0.00    +0.000 C 
ENDROOT
BRANCH   3  10
ATOM     10  C   UNL     1     -22.264 100.498   7.437  0.00  0.00    +0.000 C 
ATOM     11  C   UNL     1     -22.808 100.610   8.841  0.00  0.00    +0.000 C 
ATOM     12  C   UNL     1     -21.305  99.361   7.181  0.00  0.00    +0.000 C 
ENDBRANCH   3  10
TORSDOF 1
ENDMDL
MODEL 5
REMARK VINA RESULT:      -3.9     12.915     14.595
REMARK  Name = 10281_Thymoquinone.pdbqt.pdb
REMARK  1 active torsions:
REMARK  status: ('A' for Active; 'I' for Inactive)
REMARK    1  A    between atoms: C_3  and  C_10
REMARK                            x       y       z     vdW  Elec       q    Type
REMARK                         _______ _______ _______ _____ _____    ______ ____
ROOT
ATOM      1  O   UNL     1     -26.080  85.247  11.325  0.00  0.00    +0.000 OA
ATOM      2  O   UNL     1     -28.786  87.614  15.327  0.00  0.00    +0.000 OA
ATOM      3  C   UNL     1     -28.246  85.827  12.232  0.00  0.00    +0.000 C 
ATOM      4  C   UNL     1     -26.746  85.766  12.198  0.00  0.00    +0.000 C 
ATOM      5  C   UNL     1     -28.669  86.451  13.303  0.00  0.00    +0.000 C 
ATOM      6  C   UNL     1     -26.554  87.036  14.425  0.00  0.00    +0.000 C 
ATOM      7  C   UNL     1     -28.083  87.106  14.475  0.00  0.00    +0.000 C 
ATOM      8  C   UNL     1     -26.140  86.412  13.356  0.00  0.00    +0.000 C 
ATOM      9  C   UNL     1     -25.610  87.593  15.440  0.00  0.00    +0.000 C 
ENDROOT
BRANCH   3  10
ATOM     10  C   UNL     1     -29.021  85.245  11.186  0.00  0.00    +0.000 C 
ATOM     11  C   UNL     1     -29.489  86.083  10.021  0.00  0.00    +0.000 C 
ATOM     12  C   UNL     1     -29.037  83.750  10.985  0.00  0.00    +0.000 C 
ENDBRANCH   3  10
TORSDOF 1
ENDMDL
MODEL 6
REMARK VINA RESULT:      -3.8     22.628     24.466
REMARK  Name = 10281_Thymoquinone.pdbqt.pdb
REMARK  1 active torsions:
REMARK  status: ('A' for Active; 'I' for Inactive)
REMARK    1  A    between atoms: C_3  and  C_10
REMARK                            x       y       z     vdW  Elec       q    Type
REMARK                         _______ _______ _______ _____ _____    ______ ____
ROOT
ATOM      1  O   UNL     1     -22.340 103.618  -7.659  0.00  0.00    +0.000 OA
ATOM      2  O   UNL     1     -26.140 100.619  -5.313  0.00  0.00    +0.000 OA
ATOM      3  C   UNL     1     -23.767 101.672  -7.827  0.00  0.00    +0.000 C 
ATOM      4  C   UNL     1     -23.197 102.902  -7.181  0.00  0.00    +0.000 C 
ATOM      5  C   UNL     1     -24.674 101.115  -7.063  0.00  0.00    +0.000 C 
ATOM      6  C   UNL     1     -24.694 102.617  -5.110  0.00  0.00    +0.000 C 
ATOM      7  C   UNL     1     -25.285 101.361  -5.755  0.00  0.00    +0.000 C 
ATOM      8  C   UNL     1     -23.791 103.168  -5.876  0.00  0.00    +0.000 C 
ATOM      9  C   UNL     1     -25.067 103.187  -3.780  0.00  0.00    +0.000 C 
ENDROOT
BRANCH   3  10
ATOM     10  C   UNL     1     -23.309 101.246  -9.107  0.00  0.00    +0.000 C 
ATOM     11  C   UNL     1     -22.049 100.426  -9.238  0.00  0.00    +0.000 C 
ATOM     12  C   UNL     1     -24.247 101.224 -10.289  0.00  0.00    +0.000 C 
ENDBRANCH   3  10
TORSDOF 1
ENDMDL
MODEL 7
REMARK VINA RESULT:      -3.8     23.360     24.951
REMARK  Name = 10281_Thymoquinone.pdbqt.pdb
REMARK  1 active torsions:
REMARK  status: ('A' for Active; 'I' for Inactive)
REMARK    1  A    between atoms: C_3  and  C_10
REMARK                            x       y       z     vdW  Elec       q    Type
REMARK                         _______ _______ _______ _____ _____    ______ ____
ROOT
ATOM      1  O   UNL     1     -50.785  94.499   1.814  0.00  0.00    +0.000 OA
ATOM      2  O   UNL     1     -48.523  98.805   4.113  0.00  0.00    +0.000 OA
ATOM      3  C   UNL     1     -50.582  95.851   3.810  0.00  0.00    +0.000 C 
ATOM      4  C   UNL     1     -50.306  95.457   2.387  0.00  0.00    +0.000 C 
ATOM      5  C   UNL     1     -49.917  96.930   4.139  0.00  0.00    +0.000 C 
ATOM      6  C   UNL     1     -48.709  97.444   2.054  0.00  0.00    +0.000 C 
ATOM      7  C   UNL     1     -48.980  97.857   3.503  0.00  0.00    +0.000 C 
ATOM      8  C   UNL     1     -49.375  96.368   1.732  0.00  0.00    +0.000 C 
ATOM      9  C   UNL     1     -47.811  98.145   1.087  0.00  0.00    +0.000 C 
ENDROOT
BRANCH   3  10
ATOM     10  C   UNL     1     -51.467  95.079   4.618  0.00  0.00    +0.000 C 
ATOM     11  C   UNL     1     -51.054  93.720   5.127  0.00  0.00    +0.000 C 
ATOM     12  C   UNL     1     -52.627  95.734   5.326  0.00  0.00    +0.000 C 
ENDBRANCH   3  10
TORSDOF 1
ENDMDL
MODEL 8
REMARK VINA RESULT:      -3.5      4.990      6.676
REMARK  Name = 10281_Thymoquinone.pdbqt.pdb
REMARK  1 active torsions:
REMARK  status: ('A' for Active; 'I' for Inactive)
REMARK    1  A    between atoms: C_3  and  C_10
REMARK                            x       y       z     vdW  Elec       q    Type
REMARK                         _______ _______ _______ _____ _____    ______ ____
ROOT
ATOM      1  O   UNL     1     -33.466  98.818  15.043  0.00  0.00    +0.000 OA
ATOM      2  O   UNL     1     -34.317 104.108  14.558  0.00  0.00    +0.000 OA
ATOM      3  C   UNL     1     -34.982 100.563  14.329  0.00  0.00    +0.000 C 
ATOM      4  C   UNL     1     -33.716 100.000  14.907  0.00  0.00    +0.000 C 
ATOM      5  C   UNL     1     -34.954 101.872  14.317  0.00  0.00    +0.000 C 
ATOM      6  C   UNL     1     -32.743 102.347  15.297  0.00  0.00    +0.000 C 
ATOM      7  C   UNL     1     -34.028 102.937  14.710  0.00  0.00    +0.000 C 
ATOM      8  C   UNL     1     -32.778 101.042  15.306  0.00  0.00    +0.000 C 
ATOM      9  C   UNL     1     -31.568 103.117  15.805  0.00  0.00    +0.000 C 
ENDROOT
BRANCH   3  10
ATOM     10  C   UNL     1     -36.025  99.699  13.884  0.00  0.00    +0.000 C 
ATOM     11  C   UNL     1     -36.884  98.957  14.878  0.00  0.00    +0.000 C 
ATOM     12  C   UNL     1     -36.573  99.818  12.483  0.00  0.00    +0.000 C 
ENDBRANCH   3  10
TORSDOF 1
ENDMDL
MODEL 9
REMARK VINA RESULT:      -3.5     23.859     24.934
REMARK  Name = 10281_Thymoquinone.pdbqt.pdb
REMARK  1 active torsions:
REMARK  status: ('A' for Active; 'I' for Inactive)
REMARK    1  A    between atoms: C_3  and  C_10
REMARK                            x       y       z     vdW  Elec       q    Type
REMARK                         _______ _______ _______ _____ _____    ______ ____
ROOT
ATOM      1  O   UNL     1     -27.631  89.195  -6.479  0.00  0.00    +0.000 OA
ATOM      2  O   UNL     1     -26.368  85.057  -3.282  0.00  0.00    +0.000 OA
ATOM      3  C   UNL     1     -26.052  88.276  -4.894  0.00  0.00    +0.000 C 
ATOM      4  C   UNL     1     -27.293  88.293  -5.739  0.00  0.00    +0.000 C 
ATOM      5  C   UNL     1     -25.965  87.165  -4.206  0.00  0.00    +0.000 C 
ATOM      6  C   UNL     1     -28.003  85.969  -4.901  0.00  0.00    +0.000 C 
ATOM      7  C   UNL     1     -26.742  85.937  -4.033  0.00  0.00    +0.000 C 
ATOM      8  C   UNL     1     -28.084  87.078  -5.585  0.00  0.00    +0.000 C 
ATOM      9  C   UNL     1     -29.040  84.897  -4.994  0.00  0.00    +0.000 C 
ENDROOT
BRANCH   3  10
ATOM     10  C   UNL     1     -25.149  89.379  -4.907  0.00  0.00    +0.000 C 
ATOM     11  C   UNL     1     -23.897  89.337  -5.749  0.00  0.00    +0.000 C 
ATOM     12  C   UNL     1     -25.599  90.743  -4.445  0.00  0.00    +0.000 C 
ENDBRANCH   3  10
TORSDOF 1
ENDMDL
