MODEL 1
REMARK VINA RESULT:      -6.6      0.000      0.000
REMARK  Name = 10639_Physcion.pdbqt.pdb
REMARK  3 active torsions:
REMARK  status: ('A' for Active; 'I' for Inactive)
REMARK    1  A    between atoms: C_10  and  O_18
REMARK    2  A    between atoms: C_12  and  O_20
REMARK    3  A    between atoms: C_15  and  O_22
REMARK                            x       y       z     vdW  Elec       q    Type
REMARK                         _______ _______ _______ _____ _____    ______ ____
ROOT
ATOM      1  O   UNL     1     -41.888 102.956   5.869  0.00  0.00    +0.000 OA
ATOM      2  O   UNL     1     -40.801 101.066   1.008  0.00  0.00    +0.000 OA
ATOM      3  C   UNL     1     -40.007 102.062   2.967  0.00  0.00    +0.000 A 
ATOM      4  C   UNL     1     -40.300 102.554   4.237  0.00  0.00    +0.000 A 
ATOM      5  C   UNL     1     -42.766 101.939   3.897  0.00  0.00    +0.000 A 
ATOM      6  C   UNL     1     -42.443 101.454   2.629  0.00  0.00    +0.000 A 
ATOM      7  C   UNL     1     -41.688 102.510   4.745  0.00  0.00    +0.000 C 
ATOM      8  C   UNL     1     -41.064 101.497   2.122  0.00  0.00    +0.000 C 
ATOM      9  C   UNL     1     -38.701 102.096   2.472  0.00  0.00    +0.000 A 
ATOM     10  C   UNL     1     -39.259 103.086   5.011  0.00  0.00    +0.000 A 
ATOM     11  C   UNL     1     -37.680 102.627   3.252  0.00  0.00    +0.000 A 
ATOM     12  C   UNL     1     -44.102 101.866   4.314  0.00  0.00    +0.000 A 
ATOM     13  C   UNL     1     -43.424 100.907   1.794  0.00  0.00    +0.000 A 
ATOM     14  C   UNL     1     -37.953 103.123   4.522  0.00  0.00    +0.000 A 
ATOM     15  C   UNL     1     -44.749 100.837   2.215  0.00  0.00    +0.000 A 
ATOM     16  C   UNL     1     -45.080 101.320   3.480  0.00  0.00    +0.000 A 
ATOM     17  C   UNL     1     -36.280 102.662   2.717  0.00  0.00    +0.000 C 
ENDROOT
BRANCH  10  18
ATOM     18  O   UNL     1     -39.448 103.593   6.268  0.00  0.00    +0.000 OA
ATOM     19  H   UNL     1     -38.615 103.484   6.785  0.00  0.00    +0.000 HD
ENDBRANCH  10  18
BRANCH  12  20
ATOM     20  O   UNL     1     -44.493 102.321   5.540  0.00  0.00    +0.000 OA
ATOM     21  H   UNL     1     -44.824 101.580   6.079  0.00  0.00    +0.000 HD
ENDBRANCH  12  20
BRANCH  15  22
ATOM     22  O   UNL     1     -45.634 100.284   1.324  0.00  0.00    +0.000 OA
ATOM     23  C   UNL     1     -46.862  99.890   1.873  0.00  0.00    +0.000 C 
ENDBRANCH  15  22
TORSDOF 3
ENDMDL
MODEL 2
REMARK VINA RESULT:      -6.3     11.931     14.242
REMARK  Name = 10639_Physcion.pdbqt.pdb
REMARK  3 active torsions:
REMARK  status: ('A' for Active; 'I' for Inactive)
REMARK    1  A    between atoms: C_10  and  O_18
REMARK    2  A    between atoms: C_12  and  O_20
REMARK    3  A    between atoms: C_15  and  O_22
REMARK                            x       y       z     vdW  Elec       q    Type
REMARK                         _______ _______ _______ _____ _____    ______ ____
ROOT
ATOM      1  O   UNL     1     -34.011  98.040  16.905  0.00  0.00    +0.000 OA
ATOM      2  O   UNL     1     -32.971 101.600  13.080  0.00  0.00    +0.000 OA
ATOM      3  C   UNL     1     -32.161 100.291  14.839  0.00  0.00    +0.000 A 
ATOM      4  C   UNL     1     -32.442  99.360  15.836  0.00  0.00    +0.000 A 
ATOM      5  C   UNL     1     -34.905  99.350  15.122  0.00  0.00    +0.000 A 
ATOM      6  C   UNL     1     -34.595 100.283  14.131  0.00  0.00    +0.000 A 
ATOM      7  C   UNL     1     -33.822  98.858  16.012  0.00  0.00    +0.000 C 
ATOM      8  C   UNL     1     -33.223 100.783  13.955  0.00  0.00    +0.000 C 
ATOM      9  C   UNL     1     -30.864 100.775  14.659  0.00  0.00    +0.000 A 
ATOM     10  C   UNL     1     -31.397  98.917  16.658  0.00  0.00    +0.000 A 
ATOM     11  C   UNL     1     -29.838 100.326  15.483  0.00  0.00    +0.000 A 
ATOM     12  C   UNL     1     -36.233  98.918  15.232  0.00  0.00    +0.000 A 
ATOM     13  C   UNL     1     -35.581 100.775  13.269  0.00  0.00    +0.000 A 
ATOM     14  C   UNL     1     -30.098  99.397  16.484  0.00  0.00    +0.000 A 
ATOM     15  C   UNL     1     -36.898 100.342  13.385  0.00  0.00    +0.000 A 
ATOM     16  C   UNL     1     -37.216  99.411  14.371  0.00  0.00    +0.000 A 
ATOM     17  C   UNL     1     -28.446 100.848  15.287  0.00  0.00    +0.000 C 
ENDROOT
BRANCH  10  18
ATOM     18  O   UNL     1     -31.574  98.005  17.664  0.00  0.00    +0.000 OA
ATOM     19  H   UNL     1     -30.690  97.685  17.963  0.00  0.00    +0.000 HD
ENDBRANCH  10  18
BRANCH  12  20
ATOM     20  O   UNL     1     -36.612  98.009  16.176  0.00  0.00    +0.000 OA
ATOM     21  H   UNL     1     -36.457  98.370  17.067  0.00  0.00    +0.000 HD
ENDBRANCH  12  20
BRANCH  15  22
ATOM     22  O   UNL     1     -37.789 100.884  12.493  0.00  0.00    +0.000 OA
ATOM     23  C   UNL     1     -38.577 101.927  13.000  0.00  0.00    +0.000 C 
ENDBRANCH  15  22
TORSDOF 3
ENDMDL
MODEL 3
REMARK VINA RESULT:      -6.2     21.441     22.821
REMARK  Name = 10639_Physcion.pdbqt.pdb
REMARK  3 active torsions:
REMARK  status: ('A' for Active; 'I' for Inactive)
REMARK    1  A    between atoms: C_10  and  O_18
REMARK    2  A    between atoms: C_12  and  O_20
REMARK    3  A    between atoms: C_15  and  O_22
REMARK                            x       y       z     vdW  Elec       q    Type
REMARK                         _______ _______ _______ _____ _____    ______ ____
ROOT
ATOM      1  O   UNL     1     -27.587  89.626  14.503  0.00  0.00    +0.000 OA
ATOM      2  O   UNL     1     -30.693  85.912  16.725  0.00  0.00    +0.000 OA
ATOM      3  C   UNL     1     -29.033  86.428  15.162  0.00  0.00    +0.000 A 
ATOM      4  C   UNL     1     -28.225  87.405  14.587  0.00  0.00    +0.000 A 
ATOM      5  C   UNL     1     -29.284  89.170  16.117  0.00  0.00    +0.000 A 
ATOM      6  C   UNL     1     -30.081  88.170  16.675  0.00  0.00    +0.000 A 
ATOM      7  C   UNL     1     -28.322  88.808  15.044  0.00  0.00    +0.000 C 
ATOM      8  C   UNL     1     -29.986  86.774  16.222  0.00  0.00    +0.000 C 
ATOM      9  C   UNL     1     -28.954  85.098  14.743  0.00  0.00    +0.000 A 
ATOM     10  C   UNL     1     -27.328  87.030  13.577  0.00  0.00    +0.000 A 
ATOM     11  C   UNL     1     -28.059  84.741  13.740  0.00  0.00    +0.000 A 
ATOM     12  C   UNL     1     -29.429  90.477  16.598  0.00  0.00    +0.000 A 
ATOM     13  C   UNL     1     -31.001  88.462  17.688  0.00  0.00    +0.000 A 
ATOM     14  C   UNL     1     -27.244  85.703  13.153  0.00  0.00    +0.000 A 
ATOM     15  C   UNL     1     -31.140  89.763  18.161  0.00  0.00    +0.000 A 
ATOM     16  C   UNL     1     -30.348  90.768  17.609  0.00  0.00    +0.000 A 
ATOM     17  C   UNL     1     -27.976  83.313  13.292  0.00  0.00    +0.000 C 
ENDROOT
BRANCH  10  18
ATOM     18  O   UNL     1     -26.494  87.917  12.952  0.00  0.00    +0.000 OA
ATOM     19  H   UNL     1     -27.038  88.553  12.430  0.00  0.00    +0.000 HD
ENDBRANCH  10  18
BRANCH  12  20
ATOM     20  O   UNL     1     -28.684  91.507  16.100  0.00  0.00    +0.000 OA
ATOM     21  H   UNL     1     -29.018  92.356  16.444  0.00  0.00    +0.000 HD
ENDBRANCH  12  20
BRANCH  15  22
ATOM     22  O   UNL     1     -32.068  89.945  19.154  0.00  0.00    +0.000 OA
ATOM     23  C   UNL     1     -33.157  89.063  19.119  0.00  0.00    +0.000 C 
ENDBRANCH  15  22
TORSDOF 3
ENDMDL
MODEL 4
REMARK VINA RESULT:      -6.1     21.563     22.520
REMARK  Name = 10639_Physcion.pdbqt.pdb
REMARK  3 active torsions:
REMARK  status: ('A' for Active; 'I' for Inactive)
REMARK    1  A    between atoms: C_10  and  O_18
REMARK    2  A    between atoms: C_12  and  O_20
REMARK    3  A    between atoms: C_15  and  O_22
REMARK                            x       y       z     vdW  Elec       q    Type
REMARK                         _______ _______ _______ _____ _____    ______ ____
ROOT
ATOM      1  O   UNL     1     -28.943  91.065  16.108  0.00  0.00    +0.000 OA
ATOM      2  O   UNL     1     -30.830  86.258  17.415  0.00  0.00    +0.000 OA
ATOM      3  C   UNL     1     -29.491  87.538  15.989  0.00  0.00    +0.000 A 
ATOM      4  C   UNL     1     -29.003  88.798  15.655  0.00  0.00    +0.000 A 
ATOM      5  C   UNL     1     -30.328  89.819  17.598  0.00  0.00    +0.000 A 
ATOM      6  C   UNL     1     -30.801  88.544  17.911  0.00  0.00    +0.000 A 
ATOM      7  C   UNL     1     -29.404  89.981  16.446  0.00  0.00    +0.000 C 
ATOM      8  C   UNL     1     -30.404  87.367  17.125  0.00  0.00    +0.000 C 
ATOM      9  C   UNL     1     -29.122  86.410  15.252  0.00  0.00    +0.000 A 
ATOM     10  C   UNL     1     -28.132  88.916  14.562  0.00  0.00    +0.000 A 
ATOM     11  C   UNL     1     -28.258  86.544  14.171  0.00  0.00    +0.000 A 
ATOM     12  C   UNL     1     -30.749  90.894  18.391  0.00  0.00    +0.000 A 
ATOM     13  C   UNL     1     -31.674  88.342  18.986  0.00  0.00    +0.000 A 
ATOM     14  C   UNL     1     -27.760  87.794  13.821  0.00  0.00    +0.000 A 
ATOM     15  C   UNL     1     -32.088  89.415  19.769  0.00  0.00    +0.000 A 
ATOM     16  C   UNL     1     -31.620  90.691  19.464  0.00  0.00    +0.000 A 
ATOM     17  C   UNL     1     -27.864  85.331  13.382  0.00  0.00    +0.000 C 
ENDROOT
BRANCH  10  18
ATOM     18  O   UNL     1     -27.601  90.111  14.156  0.00  0.00    +0.000 OA
ATOM     19  H   UNL     1     -28.302  90.634  13.702  0.00  0.00    +0.000 HD
ENDBRANCH  10  18
BRANCH  12  20
ATOM     20  O   UNL     1     -30.328  92.169  18.147  0.00  0.00    +0.000 OA
ATOM     21  H   UNL     1     -29.356  92.210  18.175  0.00  0.00    +0.000 HD
ENDBRANCH  12  20
BRANCH  15  22
ATOM     22  O   UNL     1     -32.943  89.112  20.799  0.00  0.00    +0.000 OA
ATOM     23  C   UNL     1     -33.440  90.217  21.502  0.00  0.00    +0.000 C 
ENDBRANCH  15  22
TORSDOF 3
ENDMDL
MODEL 5
REMARK VINA RESULT:      -6.1      1.164      5.896
REMARK  Name = 10639_Physcion.pdbqt.pdb
REMARK  3 active torsions:
REMARK  status: ('A' for Active; 'I' for Inactive)
REMARK    1  A    between atoms: C_10  and  O_18
REMARK    2  A    between atoms: C_12  and  O_20
REMARK    3  A    between atoms: C_15  and  O_22
REMARK                            x       y       z     vdW  Elec       q    Type
REMARK                         _______ _______ _______ _____ _____    ______ ____
ROOT
ATOM      1  O   UNL     1     -42.606 103.069   6.092  0.00  0.00    +0.000 OA
ATOM      2  O   UNL     1     -41.254 100.926   1.405  0.00  0.00    +0.000 OA
ATOM      3  C   UNL     1     -42.945 101.424   2.940  0.00  0.00    +0.000 A 
ATOM      4  C   UNL     1     -43.290 101.986   4.166  0.00  0.00    +0.000 A 
ATOM      5  C   UNL     1     -40.831 102.590   4.571  0.00  0.00    +0.000 A 
ATOM      6  C   UNL     1     -40.514 102.020   3.337  0.00  0.00    +0.000 A 
ATOM      7  C   UNL     1     -42.246 102.588   5.023  0.00  0.00    +0.000 C 
ATOM      8  C   UNL     1     -41.551 101.421   2.483  0.00  0.00    +0.000 C 
ATOM      9  C   UNL     1     -43.919 100.852   2.117  0.00  0.00    +0.000 A 
ATOM     10  C   UNL     1     -44.634 101.967   4.563  0.00  0.00    +0.000 A 
ATOM     11  C   UNL     1     -45.248 100.841   2.525  0.00  0.00    +0.000 A 
ATOM     12  C   UNL     1     -39.791 103.142   5.331  0.00  0.00    +0.000 A 
ATOM     13  C   UNL     1     -39.196 101.998   2.869  0.00  0.00    +0.000 A 
ATOM     14  C   UNL     1     -45.612 101.397   3.746  0.00  0.00    +0.000 A 
ATOM     15  C   UNL     1     -38.169 102.548   3.629  0.00  0.00    +0.000 A 
ATOM     16  C   UNL     1     -38.476 103.120   4.862  0.00  0.00    +0.000 A 
ATOM     17  C   UNL     1     -46.291 100.226   1.640  0.00  0.00    +0.000 C 
ENDROOT
BRANCH  10  18
ATOM     18  O   UNL     1     -45.070 102.494   5.749  0.00  0.00    +0.000 OA
ATOM     19  H   UNL     1     -44.491 102.165   6.476  0.00  0.00    +0.000 HD
ENDBRANCH  10  18
BRANCH  12  20
ATOM     20  O   UNL     1     -40.024 103.717   6.547  0.00  0.00    +0.000 OA
ATOM     21  H   UNL     1     -39.192 103.781   7.049  0.00  0.00    +0.000 HD
ENDBRANCH  12  20
BRANCH  15  22
ATOM     22  O   UNL     1     -36.912 102.477   3.082  0.00  0.00    +0.000 OA
ATOM     23  C   UNL     1     -36.042 103.509   3.458  0.00  0.00    +0.000 C 
ENDBRANCH  15  22
TORSDOF 3
ENDMDL
MODEL 6
REMARK VINA RESULT:      -6.0     17.380     19.986
REMARK  Name = 10639_Physcion.pdbqt.pdb
REMARK  3 active torsions:
REMARK  status: ('A' for Active; 'I' for Inactive)
REMARK    1  A    between atoms: C_10  and  O_18
REMARK    2  A    between atoms: C_12  and  O_20
REMARK    3  A    between atoms: C_15  and  O_22
REMARK                            x       y       z     vdW  Elec       q    Type
REMARK                         _______ _______ _______ _____ _____    ______ ____
ROOT
ATOM      1  O   UNL     1     -22.232  99.417   4.505  0.00  0.00    +0.000 OA
ATOM      2  O   UNL     1     -23.471 103.863   7.166  0.00  0.00    +0.000 OA
ATOM      3  C   UNL     1     -23.522 102.684   5.148  0.00  0.00    +0.000 A 
ATOM      4  C   UNL     1     -23.194 101.518   4.460  0.00  0.00    +0.000 A 
ATOM      5  C   UNL     1     -22.144 100.564   6.596  0.00  0.00    +0.000 A 
ATOM      6  C   UNL     1     -22.485 101.743   7.260  0.00  0.00    +0.000 A 
ATOM      7  C   UNL     1     -22.495 100.419   5.159  0.00  0.00    +0.000 C 
ATOM      8  C   UNL     1     -23.181 102.837   6.566  0.00  0.00    +0.000 C 
ATOM      9  C   UNL     1     -24.183 103.732   4.503  0.00  0.00    +0.000 A 
ATOM     10  C   UNL     1     -23.540 101.415   3.105  0.00  0.00    +0.000 A 
ATOM     11  C   UNL     1     -24.519 103.614   3.159  0.00  0.00    +0.000 A 
ATOM     12  C   UNL     1     -21.482  99.564   7.320  0.00  0.00    +0.000 A 
ATOM     13  C   UNL     1     -22.176 101.925   8.612  0.00  0.00    +0.000 A 
ATOM     14  C   UNL     1     -24.200 102.458   2.455  0.00  0.00    +0.000 A 
ATOM     15  C   UNL     1     -21.518 100.927   9.325  0.00  0.00    +0.000 A 
ATOM     16  C   UNL     1     -21.174  99.747   8.670  0.00  0.00    +0.000 A 
ATOM     17  C   UNL     1     -25.228 104.741   2.469  0.00  0.00    +0.000 C 
ENDROOT
BRANCH  10  18
ATOM     18  O   UNL     1     -23.260 100.311   2.346  0.00  0.00    +0.000 OA
ATOM     19  H   UNL     1     -23.740 100.384   1.488  0.00  0.00    +0.000 HD
ENDBRANCH  10  18
BRANCH  12  20
ATOM     20  O   UNL     1     -21.117  98.384   6.739  0.00  0.00    +0.000 OA
ATOM     21  H   UNL     1     -20.156  98.374   6.582  0.00  0.00    +0.000 HD
ENDBRANCH  12  20
BRANCH  15  22
ATOM     22  O   UNL     1     -21.261 101.203  10.645  0.00  0.00    +0.000 OA
ATOM     23  C   UNL     1     -20.440 100.271  11.297  0.00  0.00    +0.000 C 
ENDBRANCH  15  22
TORSDOF 3
ENDMDL
MODEL 7
REMARK VINA RESULT:      -5.8      1.702      6.480
REMARK  Name = 10639_Physcion.pdbqt.pdb
REMARK  3 active torsions:
REMARK  status: ('A' for Active; 'I' for Inactive)
REMARK    1  A    between atoms: C_10  and  O_18
REMARK    2  A    between atoms: C_12  and  O_20
REMARK    3  A    between atoms: C_15  and  O_22
REMARK                            x       y       z     vdW  Elec       q    Type
REMARK                         _______ _______ _______ _____ _____    ______ ____
ROOT
ATOM      1  O   UNL     1     -44.686 100.282   1.552  0.00  0.00    +0.000 OA
ATOM      2  O   UNL     1     -42.399 102.961   5.548  0.00  0.00    +0.000 OA
ATOM      3  C   UNL     1     -44.305 101.895   4.716  0.00  0.00    +0.000 A 
ATOM      4  C   UNL     1     -44.895 101.196   3.666  0.00  0.00    +0.000 A 
ATOM      5  C   UNL     1     -42.706 101.355   2.340  0.00  0.00    +0.000 A 
ATOM      6  C   UNL     1     -42.140 102.054   3.407  0.00  0.00    +0.000 A 
ATOM      7  C   UNL     1     -44.117 100.902   2.443  0.00  0.00    +0.000 C 
ATOM      8  C   UNL     1     -42.912 102.347   4.624  0.00  0.00    +0.000 C 
ATOM      9  C   UNL     1     -45.025 102.182   5.878  0.00  0.00    +0.000 A 
ATOM     10  C   UNL     1     -46.228 100.783   3.796  0.00  0.00    +0.000 A 
ATOM     11  C   UNL     1     -46.347 101.765   5.991  0.00  0.00    +0.000 A 
ATOM     12  C   UNL     1     -41.911 101.111   1.213  0.00  0.00    +0.000 A 
ATOM     13  C   UNL     1     -40.816 102.501   3.356  0.00  0.00    +0.000 A 
ATOM     14  C   UNL     1     -46.954 101.066   4.954  0.00  0.00    +0.000 A 
ATOM     15  C   UNL     1     -40.032 102.255   2.233  0.00  0.00    +0.000 A 
ATOM     16  C   UNL     1     -40.588 101.558   1.163  0.00  0.00    +0.000 A 
ATOM     17  C   UNL     1     -47.118 102.074   7.240  0.00  0.00    +0.000 C 
ENDROOT
BRANCH  10  18
ATOM     18  O   UNL     1     -46.894 100.091   2.821  0.00  0.00    +0.000 OA
ATOM     19  H   UNL     1     -46.235  99.624   2.255  0.00  0.00    +0.000 HD
ENDBRANCH  10  18
BRANCH  12  20
ATOM     20  O   UNL     1     -42.394 100.434   0.131  0.00  0.00    +0.000 OA
ATOM     21  H   UNL     1     -43.160  99.892   0.393  0.00  0.00    +0.000 HD
ENDBRANCH  12  20
BRANCH  15  22
ATOM     22  O   UNL     1     -38.747 102.734   2.281  0.00  0.00    +0.000 OA
ATOM     23  C   UNL     1     -37.992 102.300   3.380  0.00  0.00    +0.000 C 
ENDBRANCH  15  22
TORSDOF 3
ENDMDL
MODEL 8
REMARK VINA RESULT:      -5.7      7.399     11.117
REMARK  Name = 10639_Physcion.pdbqt.pdb
REMARK  3 active torsions:
REMARK  status: ('A' for Active; 'I' for Inactive)
REMARK    1  A    between atoms: C_10  and  O_18
REMARK    2  A    between atoms: C_12  and  O_20
REMARK    3  A    between atoms: C_15  and  O_22
REMARK                            x       y       z     vdW  Elec       q    Type
REMARK                         _______ _______ _______ _____ _____    ______ ____
ROOT
ATOM      1  O   UNL     1     -50.528  95.222  -0.104  0.00  0.00    +0.000 OA
ATOM      2  O   UNL     1     -49.088  96.994   4.709  0.00  0.00    +0.000 OA
ATOM      3  C   UNL     1     -49.007  97.276   2.390  0.00  0.00    +0.000 A 
ATOM      4  C   UNL     1     -49.388  96.806   1.136  0.00  0.00    +0.000 A 
ATOM      5  C   UNL     1     -50.651  94.874   2.254  0.00  0.00    +0.000 A 
ATOM      6  C   UNL     1     -50.255  95.368   3.497  0.00  0.00    +0.000 A 
ATOM      7  C   UNL     1     -50.222  95.590   1.024  0.00  0.00    +0.000 C 
ATOM      8  C   UNL     1     -49.425  96.577   3.610  0.00  0.00    +0.000 C 
ATOM      9  C   UNL     1     -48.219  98.422   2.515  0.00  0.00    +0.000 A 
ATOM     10  C   UNL     1     -48.965  97.505  -0.003  0.00  0.00    +0.000 A 
ATOM     11  C   UNL     1     -47.808  99.105   1.375  0.00  0.00    +0.000 A 
ATOM     12  C   UNL     1     -51.442  93.718   2.222  0.00  0.00    +0.000 A 
ATOM     13  C   UNL     1     -50.634  94.728   4.682  0.00  0.00    +0.000 A 
ATOM     14  C   UNL     1     -48.178  98.651   0.114  0.00  0.00    +0.000 A 
ATOM     15  C   UNL     1     -51.419  93.580   4.643  0.00  0.00    +0.000 A 
ATOM     16  C   UNL     1     -51.820  93.080   3.405  0.00  0.00    +0.000 A 
ATOM     17  C   UNL     1     -46.962 100.336   1.511  0.00  0.00    +0.000 C 
ENDROOT
BRANCH  10  18
ATOM     18  O   UNL     1     -49.288  97.121  -1.277  0.00  0.00    +0.000 OA
ATOM     19  H   UNL     1     -50.270  97.059  -1.352  0.00  0.00    +0.000 HD
ENDBRANCH  10  18
BRANCH  12  20
ATOM     20  O   UNL     1     -51.867  93.176   1.044  0.00  0.00    +0.000 OA
ATOM     21  H   UNL     1     -51.357  92.372   0.843  0.00  0.00    +0.000 HD
ENDBRANCH  12  20
BRANCH  15  22
ATOM     22  O   UNL     1     -51.737  93.028   5.858  0.00  0.00    +0.000 OA
ATOM     23  C   UNL     1     -52.933  92.296   5.884  0.00  0.00    +0.000 C 
ENDBRANCH  15  22
TORSDOF 3
ENDMDL
MODEL 9
REMARK VINA RESULT:      -5.6     21.558     23.012
REMARK  Name = 10639_Physcion.pdbqt.pdb
REMARK  3 active torsions:
REMARK  status: ('A' for Active; 'I' for Inactive)
REMARK    1  A    between atoms: C_10  and  O_18
REMARK    2  A    between atoms: C_12  and  O_20
REMARK    3  A    between atoms: C_15  and  O_22
REMARK                            x       y       z     vdW  Elec       q    Type
REMARK                         _______ _______ _______ _____ _____    ______ ____
ROOT
ATOM      1  O   UNL     1     -30.394  90.566  17.720  0.00  0.00    +0.000 OA
ATOM      2  O   UNL     1     -30.277  85.477  16.147  0.00  0.00    +0.000 OA
ATOM      3  C   UNL     1     -31.141  87.075  17.618  0.00  0.00    +0.000 A 
ATOM      4  C   UNL     1     -31.165  88.407  18.023  0.00  0.00    +0.000 A 
ATOM      5  C   UNL     1     -29.472  88.987  16.186  0.00  0.00    +0.000 A 
ATOM      6  C   UNL     1     -29.467  87.645  15.803  0.00  0.00    +0.000 A 
ATOM      7  C   UNL     1     -30.332  89.408  17.322  0.00  0.00    +0.000 C 
ATOM      8  C   UNL     1     -30.295  86.649  16.498  0.00  0.00    +0.000 C 
ATOM      9  C   UNL     1     -31.921  86.116  18.269  0.00  0.00    +0.000 A 
ATOM     10  C   UNL     1     -31.988  88.771  19.098  0.00  0.00    +0.000 A 
ATOM     11  C   UNL     1     -32.733  86.493  19.333  0.00  0.00    +0.000 A 
ATOM     12  C   UNL     1     -28.658  89.881  15.478  0.00  0.00    +0.000 A 
ATOM     13  C   UNL     1     -28.673  87.202  14.740  0.00  0.00    +0.000 A 
ATOM     14  C   UNL     1     -32.770  87.818  19.752  0.00  0.00    +0.000 A 
ATOM     15  C   UNL     1     -27.868  88.095  14.041  0.00  0.00    +0.000 A 
ATOM     16  C   UNL     1     -27.866  89.437  14.417  0.00  0.00    +0.000 A 
ATOM     17  C   UNL     1     -33.569  85.462  20.030  0.00  0.00    +0.000 C 
ENDROOT
BRANCH  10  18
ATOM     18  O   UNL     1     -32.080  90.053  19.568  0.00  0.00    +0.000 OA
ATOM     19  H   UNL     1     -32.013  90.677  18.807  0.00  0.00    +0.000 HD
ENDBRANCH  10  18
BRANCH  12  20
ATOM     20  O   UNL     1     -28.610  91.207  15.796  0.00  0.00    +0.000 OA
ATOM     21  H   UNL     1     -27.726  91.437  16.134  0.00  0.00    +0.000 HD
ENDBRANCH  12  20
BRANCH  15  22
ATOM     22  O   UNL     1     -27.128  87.561  13.016  0.00  0.00    +0.000 OA
ATOM     23  C   UNL     1     -27.409  86.221  12.716  0.00  0.00    +0.000 C 
ENDBRANCH  15  22
TORSDOF 3
ENDMDL
