MODEL 1
REMARK VINA RESULT:      -6.6      0.000      0.000
REMARK  Name = 10940649_MilnamideD.pdbqt.pdb
REMARK  7 active torsions:
REMARK  status: ('A' for Active; 'I' for Inactive)
REMARK    1  A    between atoms: C_3  and  C_8
REMARK    2  A    between atoms: C_22  and  C_25
REMARK    3  A    between atoms: C_22  and  C_38
REMARK    4  A    between atoms: N_24  and  C_27
REMARK    5  A    between atoms: C_27  and  C_28
REMARK    6  A    between atoms: C_32  and  C_35
REMARK    7  A    between atoms: C_35  and  O_36
REMARK                            x       y       z     vdW  Elec       q    Type
REMARK                         _______ _______ _______ _____ _____    ______ ____
ROOT
ATOM      1  O   UNL     1     -31.730 100.029  18.781  0.00  0.00    +0.000 OA
ATOM      2  N   UNL     1     -30.091 101.504  18.242  0.00  0.00    +0.000 N 
ATOM      3  C   UNL     1     -30.812 100.752  19.149  0.00  0.00    +0.000 C 
ATOM      4  H   UNL     1     -29.399 102.172  18.600  0.00  0.00    +0.000 HD
ATOM      5  C   UNL     1     -30.279 101.486  16.838  0.00  0.00    +0.000 C 
ENDROOT
BRANCH   3   9
ATOM      6  N   UNL     1     -30.810 102.054  21.369  0.00  0.00    +0.000 NA
ATOM      7  N   UNL     1     -28.957 100.894  24.626  0.00  0.00    +0.000 N 
ATOM      8  C   UNL     1     -29.329  99.854  21.061  0.00  0.00    +0.000 C 
ATOM      9  C   UNL     1     -30.407 100.874  20.587  0.00  0.00    +0.000 C 
ATOM     10  C   UNL     1     -28.963  99.979  22.574  0.00  0.00    +0.000 A 
ATOM     11  C   UNL     1     -29.432 101.007  23.366  0.00  0.00    +0.000 A 
ATOM     12  C   UNL     1     -27.985 100.125  20.324  0.00  0.00    +0.000 C 
ATOM     13  C   UNL     1     -29.877  98.406  20.908  0.00  0.00    +0.000 C 
ATOM     14  C   UNL     1     -28.123  99.193  23.441  0.00  0.00    +0.000 A 
ATOM     15  C   UNL     1     -30.269 101.904  22.695  0.00  0.00    +0.000 C 
ATOM     16  C   UNL     1     -28.144  99.789  24.718  0.00  0.00    +0.000 A 
ATOM     17  C   UNL     1     -32.257 102.131  21.496  0.00  0.00    +0.000 C 
ATOM     18  C   UNL     1     -27.344  98.033  23.255  0.00  0.00    +0.000 A 
ATOM     19  C   UNL     1     -29.250 101.803  25.681  0.00  0.00    +0.000 C 
ATOM     20  C   UNL     1     -27.421  99.263  25.800  0.00  0.00    +0.000 A 
ATOM     21  C   UNL     1     -26.624  97.505  24.327  0.00  0.00    +0.000 A 
ATOM     22  C   UNL     1     -26.665  98.111  25.576  0.00  0.00    +0.000 A 
ENDBRANCH   3   9
BRANCH   5  25
ATOM     23  O   UNL     1     -30.709  99.378  15.950  0.00  0.00    +0.000 OA
ATOM     24  N   UNL     1     -32.525 100.884  16.074  0.00  0.00    +0.000 N 
ATOM     25  C   UNL     1     -31.176 100.481  16.219  0.00  0.00    +0.000 C 
ATOM     26  C   UNL     1     -33.023 102.232  16.372  0.00  0.00    +0.000 C 
BRANCH  24  27
ATOM     27  C   UNL     1     -33.500  99.968  15.641  0.00  0.00    +0.000 C 
ATOM     28  C   UNL     1     -33.956  98.907  16.496  0.00  0.00    +0.000 C 
ATOM     29  C   UNL     1     -34.373  97.943  17.264  0.00  0.00    +0.000 C 
ATOM     30  C   UNL     1     -35.810  98.055  17.726  0.00  0.00    +0.000 C 
BRANCH  27  31
ATOM     31  C   UNL     1     -34.109 100.066  14.323  0.00  0.00    +0.000 C 
ATOM     32  C   UNL     1     -35.582  99.763  14.131  0.00  0.00    +0.000 C 
ATOM     33  C   UNL     1     -33.518 101.014  13.295  0.00  0.00    +0.000 C 
ENDBRANCH  27  31
BRANCH  29  35
ATOM     34  O   UNL     1     -33.781  95.670  17.814  0.00  0.00    +0.000 OA
ATOM     35  C   UNL     1     -33.451  96.832  17.626  0.00  0.00    +0.000 C 
BRANCH  35  36
ATOM     36  O   UNL     1     -32.156  97.194  17.747  0.00  0.00    +0.000 OA
ATOM     37  H   UNL     1     -32.093  98.074  17.320  0.00  0.00    +0.000 HD
ENDBRANCH  35  36
ENDBRANCH  29  35
ENDBRANCH  24  27
ENDBRANCH   5  25
BRANCH   5  38
ATOM     38  C   UNL     1     -29.418 102.266  15.857  0.00  0.00    +0.000 C 
ATOM     39  C   UNL     1     -29.421 103.752  16.340  0.00  0.00    +0.000 C 
ATOM     40  C   UNL     1     -27.964 101.723  15.963  0.00  0.00    +0.000 C 
ATOM     41  C   UNL     1     -29.933 102.207  14.398  0.00  0.00    +0.000 C 
ENDBRANCH   5  38
TORSDOF 7
ENDMDL
MODEL 2
REMARK VINA RESULT:      -6.2      1.549      2.100
REMARK  Name = 10940649_MilnamideD.pdbqt.pdb
REMARK  7 active torsions:
REMARK  status: ('A' for Active; 'I' for Inactive)
REMARK    1  A    between atoms: C_3  and  C_8
REMARK    2  A    between atoms: C_22  and  C_25
REMARK    3  A    between atoms: C_22  and  C_38
REMARK    4  A    between atoms: N_24  and  C_27
REMARK    5  A    between atoms: C_27  and  C_28
REMARK    6  A    between atoms: C_32  and  C_35
REMARK    7  A    between atoms: C_35  and  O_36
REMARK                            x       y       z     vdW  Elec       q    Type
REMARK                         _______ _______ _______ _____ _____    ______ ____
ROOT
ATOM      1  O   UNL     1     -33.463  99.588  18.709  0.00  0.00    +0.000 OA
ATOM      2  N   UNL     1     -31.803 100.653  17.584  0.00  0.00    +0.000 N 
ATOM      3  C   UNL     1     -32.408 100.211  18.745  0.00  0.00    +0.000 C 
ATOM      4  H   UNL     1     -30.977 101.258  17.662  0.00  0.00    +0.000 HD
ATOM      5  C   UNL     1     -32.274 100.399  16.272  0.00  0.00    +0.000 C 
ENDROOT
BRANCH   3   9
ATOM      6  N   UNL     1     -31.968 101.818  20.707  0.00  0.00    +0.000 NA
ATOM      7  N   UNL     1     -29.420 101.136  23.610  0.00  0.00    +0.000 N 
ATOM      8  C   UNL     1     -30.519  99.597  20.393  0.00  0.00    +0.000 C 
ATOM      9  C   UNL     1     -31.706 100.538  20.028  0.00  0.00    +0.000 C 
ATOM     10  C   UNL     1     -29.839  99.937  21.756  0.00  0.00    +0.000 A 
ATOM     11  C   UNL     1     -30.159 101.067  22.481  0.00  0.00    +0.000 A 
ATOM     12  C   UNL     1     -29.375  99.762  19.349  0.00  0.00    +0.000 C 
ATOM     13  C   UNL     1     -31.041  98.141  20.565  0.00  0.00    +0.000 C 
ATOM     14  C   UNL     1     -28.807  99.284  22.520  0.00  0.00    +0.000 A 
ATOM     15  C   UNL     1     -31.150 101.858  21.891  0.00  0.00    +0.000 C 
ATOM     16  C   UNL     1     -28.571 100.056  23.674  0.00  0.00    +0.000 A 
ATOM     17  C   UNL     1     -33.355 101.910  21.135  0.00  0.00    +0.000 C 
ATOM     18  C   UNL     1     -28.050  98.110  22.331  0.00  0.00    +0.000 A 
ATOM     19  C   UNL     1     -29.507 102.186  24.567  0.00  0.00    +0.000 C 
ATOM     20  C   UNL     1     -27.615  99.690  24.635  0.00  0.00    +0.000 A 
ATOM     21  C   UNL     1     -27.098  97.741  23.283  0.00  0.00    +0.000 A 
ATOM     22  C   UNL     1     -26.889  98.519  24.414  0.00  0.00    +0.000 A 
ENDBRANCH   3   9
BRANCH   5  25
ATOM     23  O   UNL     1     -33.128  98.256  15.959  0.00  0.00    +0.000 OA
ATOM     24  N   UNL     1     -34.685 100.031  16.055  0.00  0.00    +0.000 N 
ATOM     25  C   UNL     1     -33.393  99.451  16.053  0.00  0.00    +0.000 C 
ATOM     26  C   UNL     1     -34.945 101.474  16.129  0.00  0.00    +0.000 C 
BRANCH  24  27
ATOM     27  C   UNL     1     -35.831  99.218  16.009  0.00  0.00    +0.000 C 
ATOM     28  C   UNL     1     -36.190  98.374  17.115  0.00  0.00    +0.000 C 
ATOM     29  C   UNL     1     -36.522  97.606  18.112  0.00  0.00    +0.000 C 
ATOM     30  C   UNL     1     -37.789  97.999  18.842  0.00  0.00    +0.000 C 
BRANCH  27  31
ATOM     31  C   UNL     1     -36.717  99.212  14.854  0.00  0.00    +0.000 C 
ATOM     32  C   UNL     1     -38.186  99.552  15.010  0.00  0.00    +0.000 C 
ATOM     33  C   UNL     1     -36.146  99.480  13.473  0.00  0.00    +0.000 C 
ENDBRANCH  27  31
BRANCH  29  35
ATOM     34  O   UNL     1     -34.703  96.048  17.822  0.00  0.00    +0.000 OA
ATOM     35  C   UNL     1     -35.672  96.435  18.460  0.00  0.00    +0.000 C 
BRANCH  35  36
ATOM     36  O   UNL     1     -36.047  95.783  19.580  0.00  0.00    +0.000 OA
ATOM     37  H   UNL     1     -35.445  96.106  20.282  0.00  0.00    +0.000 HD
ENDBRANCH  35  36
ENDBRANCH  29  35
ENDBRANCH  24  27
ENDBRANCH   5  25
BRANCH   5  38
ATOM     38  C   UNL     1     -31.545 100.831  15.010  0.00  0.00    +0.000 C 
ATOM     39  C   UNL     1     -31.090 102.309  15.238  0.00  0.00    +0.000 C 
ATOM     40  C   UNL     1     -30.273  99.947  14.869  0.00  0.00    +0.000 C 
ATOM     41  C   UNL     1     -32.419 100.762  13.735  0.00  0.00    +0.000 C 
ENDBRANCH   5  38
TORSDOF 7
ENDMDL
MODEL 3
REMARK VINA RESULT:      -6.1      2.356      3.797
REMARK  Name = 10940649_MilnamideD.pdbqt.pdb
REMARK  7 active torsions:
REMARK  status: ('A' for Active; 'I' for Inactive)
REMARK    1  A    between atoms: C_3  and  C_8
REMARK    2  A    between atoms: C_22  and  C_25
REMARK    3  A    between atoms: C_22  and  C_38
REMARK    4  A    between atoms: N_24  and  C_27
REMARK    5  A    between atoms: C_27  and  C_28
REMARK    6  A    between atoms: C_32  and  C_35
REMARK    7  A    between atoms: C_35  and  O_36
REMARK                            x       y       z     vdW  Elec       q    Type
REMARK                         _______ _______ _______ _____ _____    ______ ____
ROOT
ATOM      1  O   UNL     1     -32.219 100.739  19.121  0.00  0.00    +0.000 OA
ATOM      2  N   UNL     1     -30.497 100.391  17.683  0.00  0.00    +0.000 N 
ATOM      3  C   UNL     1     -31.069 100.358  18.940  0.00  0.00    +0.000 C 
ATOM      4  H   UNL     1     -29.501 100.161  17.592  0.00  0.00    +0.000 HD
ATOM      5  C   UNL     1     -31.159 100.794  16.498  0.00  0.00    +0.000 C 
ENDROOT
BRANCH   3   9
ATOM      6  N   UNL     1     -30.286  98.419  20.442  0.00  0.00    +0.000 NA
ATOM      7  N   UNL     1     -27.665  98.769  23.339  0.00  0.00    +0.000 N 
ATOM      8  C   UNL     1     -29.495 100.927  20.905  0.00  0.00    +0.000 C 
ATOM      9  C   UNL     1     -30.208  99.837  20.051  0.00  0.00    +0.000 C 
ATOM     10  C   UNL     1     -28.572 100.349  22.024  0.00  0.00    +0.000 A 
ATOM     11  C   UNL     1     -28.528  99.003  22.326  0.00  0.00    +0.000 A 
ATOM     12  C   UNL     1     -30.554 101.763  21.684  0.00  0.00    +0.000 C 
ATOM     13  C   UNL     1     -28.542 101.760  20.000  0.00  0.00    +0.000 C 
ATOM     14  C   UNL     1     -27.660 100.970  22.952  0.00  0.00    +0.000 A 
ATOM     15  C   UNL     1     -29.369  98.216  21.532  0.00  0.00    +0.000 C 
ATOM     16  C   UNL     1     -27.108  99.954  23.757  0.00  0.00    +0.000 A 
ATOM     17  C   UNL     1     -29.866  97.551  19.353  0.00  0.00    +0.000 C 
ATOM     18  C   UNL     1     -27.260 102.301  23.182  0.00  0.00    +0.000 A 
ATOM     19  C   UNL     1     -27.401  97.483  23.890  0.00  0.00    +0.000 C 
ATOM     20  C   UNL     1     -26.175 100.228  24.769  0.00  0.00    +0.000 A 
ATOM     21  C   UNL     1     -26.334 102.580  24.188  0.00  0.00    +0.000 A 
ATOM     22  C   UNL     1     -25.801 101.559  24.964  0.00  0.00    +0.000 A 
ENDBRANCH   3   9
BRANCH   5  25
ATOM     23  O   UNL     1     -33.010 102.205  16.566  0.00  0.00    +0.000 OA
ATOM     24  N   UNL     1     -33.430  99.888  16.371  0.00  0.00    +0.000 N 
ATOM     25  C   UNL     1     -32.621 101.042  16.509  0.00  0.00    +0.000 C 
ATOM     26  C   UNL     1     -32.915  98.514  16.350  0.00  0.00    +0.000 C 
BRANCH  24  27
ATOM     27  C   UNL     1     -34.822 100.008  16.215  0.00  0.00    +0.000 C 
ATOM     28  C   UNL     1     -35.409 100.261  14.928  0.00  0.00    +0.000 C 
ATOM     29  C   UNL     1     -35.947 100.490  13.766  0.00  0.00    +0.000 C 
ATOM     30  C   UNL     1     -36.770  99.355  13.195  0.00  0.00    +0.000 C 
BRANCH  27  31
ATOM     31  C   UNL     1     -35.732  99.858  17.341  0.00  0.00    +0.000 C 
ATOM     32  C   UNL     1     -35.946 101.001  18.315  0.00  0.00    +0.000 C 
ATOM     33  C   UNL     1     -36.893  98.886  17.239  0.00  0.00    +0.000 C 
ENDBRANCH  27  31
BRANCH  29  35
ATOM     34  O   UNL     1     -34.741 102.112  12.449  0.00  0.00    +0.000 OA
ATOM     35  C   UNL     1     -35.732 101.801  13.095  0.00  0.00    +0.000 C 
BRANCH  35  36
ATOM     36  O   UNL     1     -36.743 102.682  13.247  0.00  0.00    +0.000 OA
ATOM     37  H   UNL     1     -36.581 103.378  12.576  0.00  0.00    +0.000 HD
ENDBRANCH  35  36
ENDBRANCH  29  35
ENDBRANCH  24  27
ENDBRANCH   5  25
BRANCH   5  38
ATOM     38  C   UNL     1     -30.528 100.746  15.115  0.00  0.00    +0.000 C 
ATOM     39  C   UNL     1     -29.549 101.960  15.026  0.00  0.00    +0.000 C 
ATOM     40  C   UNL     1     -29.692  99.438  15.019  0.00  0.00    +0.000 C 
ATOM     41  C   UNL     1     -31.556 100.840  13.961  0.00  0.00    +0.000 C 
ENDBRANCH   5  38
TORSDOF 7
ENDMDL
MODEL 4
REMARK VINA RESULT:      -5.5      1.910      3.062
REMARK  Name = 10940649_MilnamideD.pdbqt.pdb
REMARK  7 active torsions:
REMARK  status: ('A' for Active; 'I' for Inactive)
REMARK    1  A    between atoms: C_3  and  C_8
REMARK    2  A    between atoms: C_22  and  C_25
REMARK    3  A    between atoms: C_22  and  C_38
REMARK    4  A    between atoms: N_24  and  C_27
REMARK    5  A    between atoms: C_27  and  C_28
REMARK    6  A    between atoms: C_32  and  C_35
REMARK    7  A    between atoms: C_35  and  O_36
REMARK                            x       y       z     vdW  Elec       q    Type
REMARK                         _______ _______ _______ _____ _____    ______ ____
ROOT
ATOM      1  O   UNL     1     -32.374 100.470  19.269  0.00  0.00    +0.000 OA
ATOM      2  N   UNL     1     -30.667 100.302  17.782  0.00  0.00    +0.000 N 
ATOM      3  C   UNL     1     -31.193 100.221  19.057  0.00  0.00    +0.000 C 
ATOM      4  H   UNL     1     -29.654 100.186  17.663  0.00  0.00    +0.000 HD
ATOM      5  C   UNL     1     -31.406 100.609  16.614  0.00  0.00    +0.000 C 
ENDROOT
BRANCH   3   9
ATOM      6  N   UNL     1     -30.198  98.419  20.602  0.00  0.00    +0.000 NA
ATOM      7  N   UNL     1     -27.483  99.098  23.350  0.00  0.00    +0.000 N 
ATOM      8  C   UNL     1     -29.580 100.997  20.916  0.00  0.00    +0.000 C 
ATOM      9  C   UNL     1     -30.246  99.818  20.146  0.00  0.00    +0.000 C 
ATOM     10  C   UNL     1     -28.565 100.543  22.012  0.00  0.00    +0.000 A 
ATOM     11  C   UNL     1     -28.406  99.220  22.371  0.00  0.00    +0.000 A 
ATOM     12  C   UNL     1     -30.662 101.789  21.708  0.00  0.00    +0.000 C 
ATOM     13  C   UNL     1     -28.735 101.854  19.929  0.00  0.00    +0.000 C 
ATOM     14  C   UNL     1     -27.663 101.273  22.867  0.00  0.00    +0.000 A 
ATOM     15  C   UNL     1     -29.219  98.336  21.654  0.00  0.00    +0.000 C 
ATOM     16  C   UNL     1     -26.998 100.340  23.687  0.00  0.00    +0.000 A 
ATOM     17  C   UNL     1     -29.763  97.533  19.533  0.00  0.00    +0.000 C 
ATOM     18  C   UNL     1     -27.355 102.639  23.018  0.00  0.00    +0.000 A 
ATOM     19  C   UNL     1     -27.097  97.863  23.943  0.00  0.00    +0.000 C 
ATOM     20  C   UNL     1     -26.044 100.730  24.640  0.00  0.00    +0.000 A 
ATOM     21  C   UNL     1     -26.408 103.033  23.964  0.00  0.00    +0.000 A 
ATOM     22  C   UNL     1     -25.764 102.092  24.758  0.00  0.00    +0.000 A 
ENDBRANCH   3   9
BRANCH   5  25
ATOM     23  O   UNL     1     -33.404 101.800  16.705  0.00  0.00    +0.000 OA
ATOM     24  N   UNL     1     -33.559  99.444  16.588  0.00  0.00    +0.000 N 
ATOM     25  C   UNL     1     -32.885 100.687  16.667  0.00  0.00    +0.000 C 
ATOM     26  C   UNL     1     -32.889  98.139  16.588  0.00  0.00    +0.000 C 
BRANCH  24  27
ATOM     27  C   UNL     1     -34.960  99.399  16.477  0.00  0.00    +0.000 C 
ATOM     28  C   UNL     1     -35.768  98.785  17.494  0.00  0.00    +0.000 C 
ATOM     29  C   UNL     1     -36.507  98.231  18.410  0.00  0.00    +0.000 C 
ATOM     30  C   UNL     1     -37.385  99.179  19.199  0.00  0.00    +0.000 C 
BRANCH  27  31
ATOM     31  C   UNL     1     -35.655  99.991  15.343  0.00  0.00    +0.000 C 
ATOM     32  C   UNL     1     -35.780  99.233  14.036  0.00  0.00    +0.000 C 
ATOM     33  C   UNL     1     -36.747 101.016  15.589  0.00  0.00    +0.000 C 
ENDBRANCH  27  31
BRANCH  29  35
ATOM     34  O   UNL     1     -36.959  96.154  19.551  0.00  0.00    +0.000 OA
ATOM     35  C   UNL     1     -36.449  96.758  18.618  0.00  0.00    +0.000 C 
BRANCH  35  36
ATOM     36  O   UNL     1     -35.762  96.084  17.672  0.00  0.00    +0.000 OA
ATOM     37  H   UNL     1     -35.896  95.137  17.881  0.00  0.00    +0.000 HD
ENDBRANCH  35  36
ENDBRANCH  29  35
ENDBRANCH  24  27
ENDBRANCH   5  25
BRANCH   5  38
ATOM     38  C   UNL     1     -30.814 100.613  15.213  0.00  0.00    +0.000 C 
ATOM     39  C   UNL     1     -32.018 100.642  14.218  0.00  0.00    +0.000 C 
ATOM     40  C   UNL     1     -30.008 101.933  15.040  0.00  0.00    +0.000 C 
ATOM     41  C   UNL     1     -29.934  99.377  14.908  0.00  0.00    +0.000 C 
ENDBRANCH   5  38
TORSDOF 7
ENDMDL
MODEL 5
REMARK VINA RESULT:      -5.2     14.091     19.460
REMARK  Name = 10940649_MilnamideD.pdbqt.pdb
REMARK  7 active torsions:
REMARK  status: ('A' for Active; 'I' for Inactive)
REMARK    1  A    between atoms: C_3  and  C_8
REMARK    2  A    between atoms: C_22  and  C_25
REMARK    3  A    between atoms: C_22  and  C_38
REMARK    4  A    between atoms: N_24  and  C_27
REMARK    5  A    between atoms: C_27  and  C_28
REMARK    6  A    between atoms: C_32  and  C_35
REMARK    7  A    between atoms: C_35  and  O_36
REMARK                            x       y       z     vdW  Elec       q    Type
REMARK                         _______ _______ _______ _____ _____    ______ ____
ROOT
ATOM      1  O   UNL     1     -21.889 101.557   5.460  0.00  0.00    +0.000 OA
ATOM      2  N   UNL     1     -22.269 103.777   5.747  0.00  0.00    +0.000 N 
ATOM      3  C   UNL     1     -22.158 102.645   4.963  0.00  0.00    +0.000 C 
ATOM      4  H   UNL     1     -22.393 104.683   5.283  0.00  0.00    +0.000 HD
ATOM      5  C   UNL     1     -22.151 103.805   7.158  0.00  0.00    +0.000 C 
ENDROOT
BRANCH   3   9
ATOM      6  N   UNL     1     -23.625 102.346   2.870  0.00  0.00    +0.000 NA
ATOM      7  N   UNL     1     -22.586 103.444  -0.750  0.00  0.00    +0.000 N 
ATOM      8  C   UNL     1     -21.126 103.266   2.681  0.00  0.00    +0.000 C 
ATOM      9  C   UNL     1     -22.381 102.828   3.492  0.00  0.00    +0.000 C 
ATOM     10  C   UNL     1     -21.404 103.491   1.161  0.00  0.00    +0.000 A 
ATOM     11  C   UNL     1     -22.610 103.168   0.573  0.00  0.00    +0.000 A 
ATOM     12  C   UNL     1     -20.058 102.133   2.706  0.00  0.00    +0.000 C 
ATOM     13  C   UNL     1     -20.626 104.646   3.198  0.00  0.00    +0.000 C 
ATOM     14  C   UNL     1     -20.586 103.993   0.085  0.00  0.00    +0.000 A 
ATOM     15  C   UNL     1     -23.551 102.642   1.463  0.00  0.00    +0.000 C 
ATOM     16  C   UNL     1     -21.356 103.954  -1.095  0.00  0.00    +0.000 A 
ATOM     17  C   UNL     1     -24.784 103.047   3.401  0.00  0.00    +0.000 C 
ATOM     18  C   UNL     1     -19.263 104.471   0.008  0.00  0.00    +0.000 A 
ATOM     19  C   UNL     1     -23.673 103.217  -1.639  0.00  0.00    +0.000 C 
ATOM     20  C   UNL     1     -20.848 104.379  -2.332  0.00  0.00    +0.000 A 
ATOM     21  C   UNL     1     -18.752 104.894  -1.220  0.00  0.00    +0.000 A 
ATOM     22  C   UNL     1     -19.534 104.849  -2.367  0.00  0.00    +0.000 A 
ENDBRANCH   3   9
BRANCH   5  25
ATOM     23  O   UNL     1     -23.130 101.964   8.195  0.00  0.00    +0.000 OA
ATOM     24  N   UNL     1     -20.769 102.075   8.203  0.00  0.00    +0.000 N 
ATOM     25  C   UNL     1     -22.078 102.538   7.925  0.00  0.00    +0.000 C 
ATOM     26  C   UNL     1     -19.544 102.822   7.896  0.00  0.00    +0.000 C 
BRANCH  24  27
ATOM     27  C   UNL     1     -20.569 100.812   8.789  0.00  0.00    +0.000 C 
ATOM     28  C   UNL     1     -20.074  99.704   8.019  0.00  0.00    +0.000 C 
ATOM     29  C   UNL     1     -19.628  98.696   7.329  0.00  0.00    +0.000 C 
ATOM     30  C   UNL     1     -18.240  98.218   7.701  0.00  0.00    +0.000 C 
BRANCH  27  31
ATOM     31  C   UNL     1     -20.829 100.576  10.201  0.00  0.00    +0.000 C 
ATOM     32  C   UNL     1     -21.623  99.363  10.645  0.00  0.00    +0.000 C 
ATOM     33  C   UNL     1     -19.863 101.117  11.239  0.00  0.00    +0.000 C 
ENDBRANCH  27  31
BRANCH  29  35
ATOM     34  O   UNL     1     -20.281  97.010   5.732  0.00  0.00    +0.000 OA
ATOM     35  C   UNL     1     -20.472  98.096   6.260  0.00  0.00    +0.000 C 
BRANCH  35  36
ATOM     36  O   UNL     1     -21.520  98.857   5.880  0.00  0.00    +0.000 OA
ATOM     37  H   UNL     1     -21.181  99.776   5.868  0.00  0.00    +0.000 HD
ENDBRANCH  35  36
ENDBRANCH  29  35
ENDBRANCH  24  27
ENDBRANCH   5  25
BRANCH   5  38
ATOM     38  C   UNL     1     -22.356 105.053   8.002  0.00  0.00    +0.000 C 
ATOM     39  C   UNL     1     -21.264 106.078   7.560  0.00  0.00    +0.000 C 
ATOM     40  C   UNL     1     -23.751 105.643   7.648  0.00  0.00    +0.000 C 
ATOM     41  C   UNL     1     -22.226 104.800   9.524  0.00  0.00    +0.000 C 
ENDBRANCH   5  38
TORSDOF 7
ENDMDL
MODEL 6
REMARK VINA RESULT:      -5.2     26.515     29.843
REMARK  Name = 10940649_MilnamideD.pdbqt.pdb
REMARK  7 active torsions:
REMARK  status: ('A' for Active; 'I' for Inactive)
REMARK    1  A    between atoms: C_3  and  C_8
REMARK    2  A    between atoms: C_22  and  C_25
REMARK    3  A    between atoms: C_22  and  C_38
REMARK    4  A    between atoms: N_24  and  C_27
REMARK    5  A    between atoms: C_27  and  C_28
REMARK    6  A    between atoms: C_32  and  C_35
REMARK    7  A    between atoms: C_35  and  O_36
REMARK                            x       y       z     vdW  Elec       q    Type
REMARK                         _______ _______ _______ _____ _____    ______ ____
ROOT
ATOM      1  O   UNL     1     -37.745  85.936  -3.620  0.00  0.00    +0.000 OA
ATOM      2  N   UNL     1     -35.593  85.313  -3.987  0.00  0.00    +0.000 N 
ATOM      3  C   UNL     1     -36.739  86.012  -4.315  0.00  0.00    +0.000 C 
ATOM      4  H   UNL     1     -34.809  85.322  -4.649  0.00  0.00    +0.000 HD
ATOM      5  C   UNL     1     -35.432  84.509  -2.832  0.00  0.00    +0.000 C 
ENDROOT
BRANCH   3   9
ATOM      6  N   UNL     1     -36.791  88.319  -5.456  0.00  0.00    +0.000 NA
ATOM      7  N   UNL     1     -36.553  88.890  -9.329  0.00  0.00    +0.000 N 
ATOM      8  C   UNL     1     -36.780  86.070  -6.895  0.00  0.00    +0.000 C 
ATOM      9  C   UNL     1     -36.675  86.854  -5.553  0.00  0.00    +0.000 C 
ATOM     10  C   UNL     1     -36.665  86.972  -8.164  0.00  0.00    +0.000 A 
ATOM     11  C   UNL     1     -36.641  88.350  -8.094  0.00  0.00    +0.000 A 
ATOM     12  C   UNL     1     -38.191  85.422  -7.019  0.00  0.00    +0.000 C 
ATOM     13  C   UNL     1     -35.591  85.073  -7.011  0.00  0.00    +0.000 C 
ATOM     14  C   UNL     1     -36.599  86.669  -9.572  0.00  0.00    +0.000 A 
ATOM     15  C   UNL     1     -36.712  88.852  -6.790  0.00  0.00    +0.000 C 
ATOM     16  C   UNL     1     -36.525  87.889 -10.272  0.00  0.00    +0.000 A 
ATOM     17  C   UNL     1     -35.686  88.884  -4.696  0.00  0.00    +0.000 C 
ATOM     18  C   UNL     1     -36.599  85.469 -10.311  0.00  0.00    +0.000 A 
ATOM     19  C   UNL     1     -36.515  90.287  -9.596  0.00  0.00    +0.000 C 
ATOM     20  C   UNL     1     -36.449  87.943 -11.672  0.00  0.00    +0.000 A 
ATOM     21  C   UNL     1     -36.523  85.517 -11.704  0.00  0.00    +0.000 A 
ATOM     22  C   UNL     1     -36.448  86.734 -12.369  0.00  0.00    +0.000 A 
ENDBRANCH   3   9
BRANCH   5  25
ATOM     23  O   UNL     1     -36.462  85.447  -0.967  0.00  0.00    +0.000 OA
ATOM     24  N   UNL     1     -37.415  83.470  -1.842  0.00  0.00    +0.000 N 
ATOM     25  C   UNL     1     -36.465  84.518  -1.769  0.00  0.00    +0.000 C 
ATOM     26  C   UNL     1     -37.349  82.358  -2.796  0.00  0.00    +0.000 C 
BRANCH  24  27
ATOM     27  C   UNL     1     -38.528  83.456  -0.983  0.00  0.00    +0.000 C 
ATOM     28  C   UNL     1     -39.616  84.379  -1.159  0.00  0.00    +0.000 C 
ATOM     29  C   UNL     1     -40.604  85.212  -1.312  0.00  0.00    +0.000 C 
ATOM     30  C   UNL     1     -41.916  84.592  -1.743  0.00  0.00    +0.000 C 
BRANCH  27  31
ATOM     31  C   UNL     1     -38.643  82.495   0.104  0.00  0.00    +0.000 C 
ATOM     32  C   UNL     1     -37.610  82.463   1.214  0.00  0.00    +0.000 C 
ATOM     33  C   UNL     1     -40.012  81.969   0.495  0.00  0.00    +0.000 C 
ENDBRANCH  27  31
BRANCH  29  35
ATOM     34  O   UNL     1     -41.266  87.461  -0.746  0.00  0.00    +0.000 OA
ATOM     35  C   UNL     1     -40.395  86.664  -1.062  0.00  0.00    +0.000 C 
BRANCH  35  36
ATOM     36  O   UNL     1     -39.120  87.082  -1.214  0.00  0.00    +0.000 OA
ATOM     37  H   UNL     1     -39.022  87.840  -0.601  0.00  0.00    +0.000 HD
ENDBRANCH  35  36
ENDBRANCH  29  35
ENDBRANCH  24  27
ENDBRANCH   5  25
BRANCH   5  38
ATOM     38  C   UNL     1     -34.133  83.814  -2.457  0.00  0.00    +0.000 C 
ATOM     39  C   UNL     1     -33.876  82.725  -3.547  0.00  0.00    +0.000 C 
ATOM     40  C   UNL     1     -32.989  84.865  -2.540  0.00  0.00    +0.000 C 
ATOM     41  C   UNL     1     -34.172  83.137  -1.065  0.00  0.00    +0.000 C 
ENDBRANCH   5  38
TORSDOF 7
ENDMDL
MODEL 7
REMARK VINA RESULT:      -5.1     19.567     25.011
REMARK  Name = 10940649_MilnamideD.pdbqt.pdb
REMARK  7 active torsions:
REMARK  status: ('A' for Active; 'I' for Inactive)
REMARK    1  A    between atoms: C_3  and  C_8
REMARK    2  A    between atoms: C_22  and  C_25
REMARK    3  A    between atoms: C_22  and  C_38
REMARK    4  A    between atoms: N_24  and  C_27
REMARK    5  A    between atoms: C_27  and  C_28
REMARK    6  A    between atoms: C_32  and  C_35
REMARK    7  A    between atoms: C_35  and  O_36
REMARK                            x       y       z     vdW  Elec       q    Type
REMARK                         _______ _______ _______ _____ _____    ______ ____
ROOT
ATOM      1  O   UNL     1     -44.168 103.136  -2.583  0.00  0.00    +0.000 OA
ATOM      2  N   UNL     1     -43.738 105.339  -2.247  0.00  0.00    +0.000 N 
ATOM      3  C   UNL     1     -43.839 104.031  -1.814  0.00  0.00    +0.000 C 
ATOM      4  H   UNL     1     -43.560 106.073  -1.551  0.00  0.00    +0.000 HD
ATOM      5  C   UNL     1     -43.935 105.773  -3.580  0.00  0.00    +0.000 C 
ENDROOT
BRANCH   3   9
ATOM      6  N   UNL     1     -44.554 104.019   0.659  0.00  0.00    +0.000 NA
ATOM      7  N   UNL     1     -42.204 103.051   3.648  0.00  0.00    +0.000 N 
ATOM      8  C   UNL     1     -42.020 103.558  -0.045  0.00  0.00    +0.000 C 
ATOM      9  C   UNL     1     -43.527 103.781  -0.369  0.00  0.00    +0.000 C 
ATOM     10  C   UNL     1     -41.735 103.256   1.460  0.00  0.00    +0.000 A 
ATOM     11  C   UNL     1     -42.712 103.346   2.430  0.00  0.00    +0.000 A 
ATOM     12  C   UNL     1     -41.221 104.866  -0.326  0.00  0.00    +0.000 C 
ATOM     13  C   UNL     1     -41.503 102.302  -0.804  0.00  0.00    +0.000 C 
ATOM     14  C   UNL     1     -40.536 102.888   2.169  0.00  0.00    +0.000 A 
ATOM     15  C   UNL     1     -43.969 103.712   1.938  0.00  0.00    +0.000 C 
ATOM     16  C   UNL     1     -40.865 102.763   3.534  0.00  0.00    +0.000 A 
ATOM     17  C   UNL     1     -45.693 103.132   0.479  0.00  0.00    +0.000 C 
ATOM     18  C   UNL     1     -39.203 102.653   1.776  0.00  0.00    +0.000 A 
ATOM     19  C   UNL     1     -42.955 103.062   4.856  0.00  0.00    +0.000 C 
ATOM     20  C   UNL     1     -39.911 102.412   4.502  0.00  0.00    +0.000 A 
ATOM     21  C   UNL     1     -38.252 102.304   2.734  0.00  0.00    +0.000 A 
ATOM     22  C   UNL     1     -38.603 102.184   4.073  0.00  0.00    +0.000 A 
ENDBRANCH   3   9
BRANCH   5  25
ATOM     23  O   UNL     1     -43.074 104.294  -5.158  0.00  0.00    +0.000 OA
ATOM     24  N   UNL     1     -45.426 104.436  -4.989  0.00  0.00    +0.000 N 
ATOM     25  C   UNL     1     -44.090 104.781  -4.671  0.00  0.00    +0.000 C 
ATOM     26  C   UNL     1     -46.608 105.082  -4.406  0.00  0.00    +0.000 C 
BRANCH  24  27
ATOM     27  C   UNL     1     -45.698 103.398  -5.898  0.00  0.00    +0.000 C 
ATOM     28  C   UNL     1     -46.228 102.139  -5.453  0.00  0.00    +0.000 C 
ATOM     29  C   UNL     1     -46.708 100.996  -5.058  0.00  0.00    +0.000 C 
ATOM     30  C   UNL     1     -48.124 100.697  -5.503  0.00  0.00    +0.000 C 
BRANCH  27  31
ATOM     31  C   UNL     1     -45.479 103.559  -7.328  0.00  0.00    +0.000 C 
ATOM     32  C   UNL     1     -45.538 104.933  -7.966  0.00  0.00    +0.000 C 
ATOM     33  C   UNL     1     -44.619 102.551  -8.069  0.00  0.00    +0.000 C 
ENDBRANCH  27  31
BRANCH  29  35
ATOM     34  O   UNL     1     -46.250  99.043  -3.719  0.00  0.00    +0.000 OA
ATOM     35  C   UNL     1     -45.870 100.087  -4.229  0.00  0.00    +0.000 C 
BRANCH  35  36
ATOM     36  O   UNL     1     -44.597 100.500  -4.056  0.00  0.00    +0.000 OA
ATOM     37  H   UNL     1     -44.446 100.473  -3.089  0.00  0.00    +0.000 HD
ENDBRANCH  35  36
ENDBRANCH  29  35
ENDBRANCH  24  27
ENDBRANCH   5  25
BRANCH   5  38
ATOM     38  C   UNL     1     -43.741 107.208  -4.043  0.00  0.00    +0.000 C 
ATOM     39  C   UNL     1     -44.744 108.084  -3.225  0.00  0.00    +0.000 C 
ATOM     40  C   UNL     1     -42.295 107.640  -3.663  0.00  0.00    +0.000 C 
ATOM     41  C   UNL     1     -44.006 107.414  -5.555  0.00  0.00    +0.000 C 
ENDBRANCH   5  38
TORSDOF 7
ENDMDL
MODEL 8
REMARK VINA RESULT:      -5.1      4.495      6.294
REMARK  Name = 10940649_MilnamideD.pdbqt.pdb
REMARK  7 active torsions:
REMARK  status: ('A' for Active; 'I' for Inactive)
REMARK    1  A    between atoms: C_3  and  C_8
REMARK    2  A    between atoms: C_22  and  C_25
REMARK    3  A    between atoms: C_22  and  C_38
REMARK    4  A    between atoms: N_24  and  C_27
REMARK    5  A    between atoms: C_27  and  C_28
REMARK    6  A    between atoms: C_32  and  C_35
REMARK    7  A    between atoms: C_35  and  O_36
REMARK                            x       y       z     vdW  Elec       q    Type
REMARK                         _______ _______ _______ _____ _____    ______ ____
ROOT
ATOM      1  O   UNL     1     -35.212  99.956  18.385  0.00  0.00    +0.000 OA
ATOM      2  N   UNL     1     -33.215  99.012  17.857  0.00  0.00    +0.000 N 
ATOM      3  C   UNL     1     -34.424  99.027  18.526  0.00  0.00    +0.000 C 
ATOM      4  H   UNL     1     -32.542  98.270  18.081  0.00  0.00    +0.000 HD
ATOM      5  C   UNL     1     -32.787  99.990  16.927  0.00  0.00    +0.000 C 
ENDROOT
BRANCH   3   9
ATOM      6  N   UNL     1     -35.684  97.986  20.515  0.00  0.00    +0.000 NA
ATOM      7  N   UNL     1     -35.147  94.324  21.815  0.00  0.00    +0.000 N 
ATOM      8  C   UNL     1     -33.711  96.668  19.291  0.00  0.00    +0.000 C 
ATOM      9  C   UNL     1     -34.707  97.858  19.421  0.00  0.00    +0.000 C 
ATOM     10  C   UNL     1     -34.059  95.450  20.203  0.00  0.00    +0.000 A 
ATOM     11  C   UNL     1     -35.060  95.499  21.152  0.00  0.00    +0.000 A 
ATOM     12  C   UNL     1     -32.297  97.108  19.773  0.00  0.00    +0.000 C 
ATOM     13  C   UNL     1     -33.760  96.102  17.842  0.00  0.00    +0.000 C 
ATOM     14  C   UNL     1     -33.494  94.130  20.324  0.00  0.00    +0.000 A 
ATOM     15  C   UNL     1     -35.732  96.724  21.205  0.00  0.00    +0.000 C 
ATOM     16  C   UNL     1     -34.199  93.451  21.337  0.00  0.00    +0.000 A 
ATOM     17  C   UNL     1     -37.018  98.251  20.000  0.00  0.00    +0.000 C 
ATOM     18  C   UNL     1     -32.446  93.454  19.667  0.00  0.00    +0.000 A 
ATOM     19  C   UNL     1     -36.075  94.057  22.861  0.00  0.00    +0.000 C 
ATOM     20  C   UNL     1     -33.892  92.131  21.704  0.00  0.00    +0.000 A 
ATOM     21  C   UNL     1     -32.136  92.143  20.028  0.00  0.00    +0.000 A 
ATOM     22  C   UNL     1     -32.850  91.495  21.028  0.00  0.00    +0.000 A 
ENDBRANCH   3   9
BRANCH   5  25
ATOM     23  O   UNL     1     -33.640 102.156  16.959  0.00  0.00    +0.000 OA
ATOM     24  N   UNL     1     -34.593 100.646  15.411  0.00  0.00    +0.000 N 
ATOM     25  C   UNL     1     -33.727 101.037  16.461  0.00  0.00    +0.000 C 
ATOM     26  C   UNL     1     -34.688  99.281  14.880  0.00  0.00    +0.000 C 
BRANCH  24  27
ATOM     27  C   UNL     1     -35.423 101.591  14.783  0.00  0.00    +0.000 C 
ATOM     28  C   UNL     1     -36.851 101.431  14.761  0.00  0.00    +0.000 C 
ATOM     29  C   UNL     1     -38.145 101.292  14.736  0.00  0.00    +0.000 C 
ATOM     30  C   UNL     1     -38.923 102.308  15.544  0.00  0.00    +0.000 C 
BRANCH  27  31
ATOM     31  C   UNL     1     -34.880 102.784  14.149  0.00  0.00    +0.000 C 
ATOM     32  C   UNL     1     -34.451 102.755  12.696  0.00  0.00    +0.000 C 
ATOM     33  C   UNL     1     -35.282 104.153  14.666  0.00  0.00    +0.000 C 
ENDBRANCH  27  31
BRANCH  29  35
ATOM     34  O   UNL     1     -38.337  99.042  13.887  0.00  0.00    +0.000 OA
ATOM     35  C   UNL     1     -38.757 100.189  13.946  0.00  0.00    +0.000 C 
BRANCH  35  36
ATOM     36  O   UNL     1     -39.862 100.540  13.255  0.00  0.00    +0.000 OA
ATOM     37  H   UNL     1     -40.614 100.197  13.780  0.00  0.00    +0.000 HD
ENDBRANCH  35  36
ENDBRANCH  29  35
ENDBRANCH  24  27
ENDBRANCH   5  25
BRANCH   5  38
ATOM     38  C   UNL     1     -31.484  99.905  16.147  0.00  0.00    +0.000 C 
ATOM     39  C   UNL     1     -30.354 100.401  17.106  0.00  0.00    +0.000 C 
ATOM     40  C   UNL     1     -31.222  98.408  15.819  0.00  0.00    +0.000 C 
ATOM     41  C   UNL     1     -31.474 100.770  14.863  0.00  0.00    +0.000 C 
ENDBRANCH   5  38
TORSDOF 7
ENDMDL
MODEL 9
REMARK VINA RESULT:      -4.9     27.907     32.997
REMARK  Name = 10940649_MilnamideD.pdbqt.pdb
REMARK  7 active torsions:
REMARK  status: ('A' for Active; 'I' for Inactive)
REMARK    1  A    between atoms: C_3  and  C_8
REMARK    2  A    between atoms: C_22  and  C_25
REMARK    3  A    between atoms: C_22  and  C_38
REMARK    4  A    between atoms: N_24  and  C_27
REMARK    5  A    between atoms: C_27  and  C_28
REMARK    6  A    between atoms: C_32  and  C_35
REMARK    7  A    between atoms: C_35  and  O_36
REMARK                            x       y       z     vdW  Elec       q    Type
REMARK                         _______ _______ _______ _____ _____    ______ ____
ROOT
ATOM      1  O   UNL     1     -39.444  90.860  -9.319  0.00  0.00    +0.000 OA
ATOM      2  N   UNL     1     -40.337  89.379 -10.790  0.00  0.00    +0.000 N 
ATOM      3  C   UNL     1     -39.632  90.527 -10.483  0.00  0.00    +0.000 C 
ATOM      4  H   UNL     1     -40.560  89.191 -11.774  0.00  0.00    +0.000 HD
ATOM      5  C   UNL     1     -40.852  88.462  -9.842  0.00  0.00    +0.000 C 
ENDROOT
BRANCH   3   9
ATOM      6  N   UNL     1     -40.066  91.932 -12.596  0.00  0.00    +0.000 NA
ATOM      7  N   UNL     1     -37.257  93.437 -14.882  0.00  0.00    +0.000 N 
ATOM      8  C   UNL     1     -37.591  91.205 -11.910  0.00  0.00    +0.000 C 
ATOM      9  C   UNL     1     -39.121  91.326 -11.644  0.00  0.00    +0.000 C 
ATOM     10  C   UNL     1     -37.084  92.084 -13.097  0.00  0.00    +0.000 A 
ATOM     11  C   UNL     1     -37.945  92.769 -13.930  0.00  0.00    +0.000 A 
ATOM     12  C   UNL     1     -37.244  89.750 -12.343  0.00  0.00    +0.000 C 
ATOM     13  C   UNL     1     -36.803  91.724 -10.672  0.00  0.00    +0.000 C 
ATOM     14  C   UNL     1     -35.767  92.361 -13.611  0.00  0.00    +0.000 A 
ATOM     15  C   UNL     1     -39.295  92.615 -13.601  0.00  0.00    +0.000 C 
ATOM     16  C   UNL     1     -35.910  93.213 -14.724  0.00  0.00    +0.000 A 
ATOM     17  C   UNL     1     -40.905  92.924 -11.943  0.00  0.00    +0.000 C 
ATOM     18  C   UNL     1     -34.469  91.961 -13.234  0.00  0.00    +0.000 A 
ATOM     19  C   UNL     1     -37.856  94.233 -15.899  0.00  0.00    +0.000 C 
ATOM     20  C   UNL     1     -34.805  93.673 -15.458  0.00  0.00    +0.000 A 
ATOM     21  C   UNL     1     -33.368  92.415 -13.960  0.00  0.00    +0.000 A 
ATOM     22  C   UNL     1     -33.537  93.258 -15.051  0.00  0.00    +0.000 A 
ENDBRANCH   3   9
BRANCH   5  25
ATOM     23  O   UNL     1     -39.434  88.093  -8.032  0.00  0.00    +0.000 OA
ATOM     24  N   UNL     1     -41.388  89.359  -7.628  0.00  0.00    +0.000 N 
ATOM     25  C   UNL     1     -40.492  88.591  -8.409  0.00  0.00    +0.000 C 
ATOM     26  C   UNL     1     -42.662  89.896  -8.119  0.00  0.00    +0.000 C 
BRANCH  24  27
ATOM     27  C   UNL     1     -41.078  89.679  -6.294  0.00  0.00    +0.000 C 
ATOM     28  C   UNL     1     -40.389  90.895  -5.961  0.00  0.00    +0.000 C 
ATOM     29  C   UNL     1     -39.765  91.994  -5.652  0.00  0.00    +0.000 C 
ATOM     30  C   UNL     1     -40.582  93.010  -4.881  0.00  0.00    +0.000 C 
BRANCH  27  31
ATOM     31  C   UNL     1     -41.459  88.809  -5.191  0.00  0.00    +0.000 C 
ATOM     32  C   UNL     1     -40.542  87.688  -4.744  0.00  0.00    +0.000 C 
ATOM     33  C   UNL     1     -42.394  89.331  -4.116  0.00  0.00    +0.000 C 
ENDBRANCH  27  31
BRANCH  29  35
ATOM     34  O   UNL     1     -37.371  91.863  -5.387  0.00  0.00    +0.000 OA
ATOM     35  C   UNL     1     -38.345  92.180  -6.056  0.00  0.00    +0.000 C 
BRANCH  35  36
ATOM     36  O   UNL     1     -38.176  92.751  -7.267  0.00  0.00    +0.000 OA
ATOM     37  H   UNL     1     -37.247  92.563  -7.513  0.00  0.00    +0.000 HD
ENDBRANCH  35  36
ENDBRANCH  29  35
ENDBRANCH  24  27
ENDBRANCH   5  25
BRANCH   5  38
ATOM     38  C   UNL     1     -41.556  87.166 -10.211  0.00  0.00    +0.000 C 
ATOM     39  C   UNL     1     -41.946  86.469  -8.868  0.00  0.00    +0.000 C 
ATOM     40  C   UNL     1     -42.865  87.534 -10.966  0.00  0.00    +0.000 C 
ATOM     41  C   UNL     1     -40.681  86.202 -11.047  0.00  0.00    +0.000 C 
ENDBRANCH   5  38
TORSDOF 7
ENDMDL
