REMARK  Name = 11167602_Regorafenib.pdbqt.pdb
REMARK  6 active torsions:
REMARK  status: ('A' for Active; 'I' for Inactive)
REMARK    1  A    between atoms: C_2  and  N_10
REMARK    2  A    between atoms: C_3  and  O_25
REMARK    3  A    between atoms: N_9  and  C_15
REMARK    4  A    between atoms: C_16  and  C_24
REMARK    5  A    between atoms: O_25  and  C_27
REMARK    6  A    between atoms: C_29  and  C_34
REMARK                            x       y       z     vdW  Elec       q    Type
REMARK                         _______ _______ _______ _____ _____    ______ ____
ROOT
ATOM      1  F   UNL     1      -1.123  -0.114  -2.472  0.00  0.00    +0.000 F 
ATOM      2  C   UNL     1      -0.447   0.929  -0.458  0.00  0.00    +0.000 A 
ATOM      3  C   UNL     1      -3.098   1.715  -0.048  0.00  0.00    +0.000 A 
ATOM      4  C   UNL     1      -1.444   0.597  -1.380  0.00  0.00    +0.000 A 
ATOM      5  C   UNL     1      -0.794   1.680   0.664  0.00  0.00    +0.000 A 
ATOM      6  C   UNL     1      -2.764   0.994  -1.194  0.00  0.00    +0.000 A 
ATOM      7  C   UNL     1      -2.113   2.085   0.865  0.00  0.00    +0.000 A 
ENDROOT
BRANCH   2  10
ATOM      8  O   UNL     1       1.949   1.421   1.108  0.00  0.00    +0.000 OA
ATOM      9  N   UNL     1       3.107   0.136  -0.426  0.00  0.00    +0.000 N 
ATOM     10  N   UNL     1       0.869   0.485  -0.706  0.00  0.00    +0.000 N 
ATOM     11  C   UNL     1       1.973   0.744   0.089  0.00  0.00    +0.000 C 
ATOM     12  H   UNL     1       3.005  -0.425  -1.259  0.00  0.00    +0.000 HD
ATOM     13  H   UNL     1       0.996  -0.056  -1.550  0.00  0.00    +0.000 HD
BRANCH   9  15
ATOM     14 CL   UNL     1       8.583   0.357   1.816  0.00  0.00    +0.000 Cl
ATOM     15  C   UNL     1       4.397   0.208   0.132  0.00  0.00    +0.000 A 
ATOM     16  C   UNL     1       6.736  -0.466  -0.028  0.00  0.00    +0.000 A 
ATOM     17  C   UNL     1       5.423  -0.483  -0.513  0.00  0.00    +0.000 A 
ATOM     18  C   UNL     1       4.689   0.931   1.284  0.00  0.00    +0.000 A 
ATOM     19  C   UNL     1       7.007   0.265   1.130  0.00  0.00    +0.000 A 
ATOM     20  C   UNL     1       5.988   0.959   1.782  0.00  0.00    +0.000 A 
BRANCH  16  24
ATOM     21  F   UNL     1       7.304  -1.868  -1.872  0.00  0.00    +0.000 F 
ATOM     22  F   UNL     1       8.796  -0.435  -1.226  0.00  0.00    +0.000 F 
ATOM     23  F   UNL     1       8.372  -2.200  -0.016  0.00  0.00    +0.000 F 
ATOM     24  C   UNL     1       7.789  -1.228  -0.769  0.00  0.00    +0.000 C 
ENDBRANCH  16  24
ENDBRANCH   9  15
ENDBRANCH   2  10
BRANCH   3  25
ATOM     25  O   UNL     1      -4.366   2.204   0.163  0.00  0.00    +0.000 OA
BRANCH  25  27
ATOM     26  N   UNL     1      -7.704  -0.286  -0.094  0.00  0.00    +0.000 NA
ATOM     27  C   UNL     1      -5.421   1.327   0.045  0.00  0.00    +0.000 A 
ATOM     28  C   UNL     1      -5.317  -0.035   0.307  0.00  0.00    +0.000 A 
ATOM     29  C   UNL     1      -6.475  -0.789   0.214  0.00  0.00    +0.000 A 
ATOM     30  C   UNL     1      -6.658   1.891  -0.251  0.00  0.00    +0.000 A 
ATOM     31  C   UNL     1      -7.756   1.048  -0.314  0.00  0.00    +0.000 A 
BRANCH  29  34
ATOM     32  O   UNL     1      -5.337  -2.793   0.712  0.00  0.00    +0.000 OA
ATOM     33  N   UNL     1      -7.644  -2.867   0.339  0.00  0.00    +0.000 N 
ATOM     34  C   UNL     1      -6.408  -2.254   0.452  0.00  0.00    +0.000 C 
ATOM     35  C   UNL     1      -8.043  -4.241   0.480  0.00  0.00    +0.000 C 
ATOM     36  H   UNL     1      -8.408  -2.232   0.111  0.00  0.00    +0.000 HD
ENDBRANCH  29  34
ENDBRANCH  25  27
ENDBRANCH   3  25
TORSDOF 6
