MODEL 1
REMARK VINA RESULT:      -8.1      0.000      0.000
REMARK  Name = 11167602_Regorafenib.pdbqt.pdb
REMARK  6 active torsions:
REMARK  status: ('A' for Active; 'I' for Inactive)
REMARK    1  A    between atoms: C_2  and  N_10
REMARK    2  A    between atoms: C_3  and  O_25
REMARK    3  A    between atoms: N_9  and  C_15
REMARK    4  A    between atoms: C_16  and  C_24
REMARK    5  A    between atoms: O_25  and  C_27
REMARK    6  A    between atoms: C_29  and  C_34
REMARK                            x       y       z     vdW  Elec       q    Type
REMARK                         _______ _______ _______ _____ _____    ______ ____
ROOT
ATOM      1  F   UNL     1     -26.394  84.126  11.036  0.00  0.00    +0.000 F 
ATOM      2  C   UNL     1     -28.521  85.149  10.870  0.00  0.00    +0.000 A 
ATOM      3  C   UNL     1     -27.760  86.918  12.896  0.00  0.00    +0.000 A 
ATOM      4  C   UNL     1     -27.255  85.065  11.457  0.00  0.00    +0.000 A 
ATOM      5  C   UNL     1     -29.410  86.121  11.328  0.00  0.00    +0.000 A 
ATOM      6  C   UNL     1     -26.870  85.930  12.475  0.00  0.00    +0.000 A 
ATOM      7  C   UNL     1     -29.038  86.996  12.347  0.00  0.00    +0.000 A 
ENDROOT
BRANCH   2  10
ATOM      8  O   UNL     1     -29.467  82.412  11.094  0.00  0.00    +0.000 OA
ATOM      9  N   UNL     1     -29.546  82.345   8.784  0.00  0.00    +0.000 N 
ATOM     10  N   UNL     1     -28.841  84.245   9.835  0.00  0.00    +0.000 N 
ATOM     11  C   UNL     1     -29.301  82.950  10.007  0.00  0.00    +0.000 C 
ATOM     12  H   UNL     1     -29.402  82.894   7.949  0.00  0.00    +0.000 HD
ATOM     13  H   UNL     1     -28.702  84.589   8.895  0.00  0.00    +0.000 HD
BRANCH   9  15
ATOM     14 CL   UNL     1     -31.631  76.852   8.053  0.00  0.00    +0.000 Cl
ATOM     15  C   UNL     1     -30.010  81.029   8.602  0.00  0.00    +0.000 A 
ATOM     16  C   UNL     1     -31.911  79.502   8.675  0.00  0.00    +0.000 A 
ATOM     17  C   UNL     1     -31.364  80.781   8.832  0.00  0.00    +0.000 A 
ATOM     18  C   UNL     1     -29.188  79.980   8.206  0.00  0.00    +0.000 A 
ATOM     19  C   UNL     1     -31.068  78.463   8.278  0.00  0.00    +0.000 A 
ATOM     20  C   UNL     1     -29.714  78.701   8.045  0.00  0.00    +0.000 A 
BRANCH  16  24
ATOM     21  F   UNL     1     -34.074  78.987   7.812  0.00  0.00    +0.000 F 
ATOM     22  F   UNL     1     -33.621  78.297   9.816  0.00  0.00    +0.000 F 
ATOM     23  F   UNL     1     -33.977  80.416   9.438  0.00  0.00    +0.000 F 
ATOM     24  C   UNL     1     -33.371  79.305   8.937  0.00  0.00    +0.000 C 
ENDBRANCH  16  24
ENDBRANCH   9  15
ENDBRANCH   2  10
BRANCH   3  25
ATOM     25  O   UNL     1     -27.475  87.758  13.947  0.00  0.00    +0.000 OA
BRANCH  25  27
ATOM     26  N   UNL     1     -30.219  87.599  17.086  0.00  0.00    +0.000 NA
ATOM     27  C   UNL     1     -28.343  87.767  15.016  0.00  0.00    +0.000 A 
ATOM     28  C   UNL     1     -28.860  88.933  15.571  0.00  0.00    +0.000 A 
ATOM     29  C   UNL     1     -29.777  88.793  16.600  0.00  0.00    +0.000 A 
ATOM     30  C   UNL     1     -28.780  86.525  15.463  0.00  0.00    +0.000 A 
ATOM     31  C   UNL     1     -29.705  86.496  16.495  0.00  0.00    +0.000 A 
BRANCH  29  34
ATOM     32  O   UNL     1     -30.864  90.885  16.572  0.00  0.00    +0.000 OA
ATOM     33  N   UNL     1     -30.165  90.003  18.621  0.00  0.00    +0.000 N 
ATOM     34  C   UNL     1     -30.332  90.010  17.247  0.00  0.00    +0.000 C 
ATOM     35  C   UNL     1     -30.535  90.956  19.632  0.00  0.00    +0.000 C 
ATOM     36  H   UNL     1     -29.690  89.176  18.982  0.00  0.00    +0.000 HD
ENDBRANCH  29  34
ENDBRANCH  25  27
ENDBRANCH   3  25
TORSDOF 6
ENDMDL
MODEL 2
REMARK VINA RESULT:      -7.4      1.617      2.093
REMARK  Name = 11167602_Regorafenib.pdbqt.pdb
REMARK  6 active torsions:
REMARK  status: ('A' for Active; 'I' for Inactive)
REMARK    1  A    between atoms: C_2  and  N_10
REMARK    2  A    between atoms: C_3  and  O_25
REMARK    3  A    between atoms: N_9  and  C_15
REMARK    4  A    between atoms: C_16  and  C_24
REMARK    5  A    between atoms: O_25  and  C_27
REMARK    6  A    between atoms: C_29  and  C_34
REMARK                            x       y       z     vdW  Elec       q    Type
REMARK                         _______ _______ _______ _____ _____    ______ ____
ROOT
ATOM      1  F   UNL     1     -26.692  82.193  10.930  0.00  0.00    +0.000 F 
ATOM      2  C   UNL     1     -28.519  83.686  10.741  0.00  0.00    +0.000 A 
ATOM      3  C   UNL     1     -27.693  84.899  13.120  0.00  0.00    +0.000 A 
ATOM      4  C   UNL     1     -27.390  83.226  11.426  0.00  0.00    +0.000 A 
ATOM      5  C   UNL     1     -29.241  84.751  11.277  0.00  0.00    +0.000 A 
ATOM      6  C   UNL     1     -26.977  83.812  12.618  0.00  0.00    +0.000 A 
ATOM      7  C   UNL     1     -28.839  85.350  12.470  0.00  0.00    +0.000 A 
ENDROOT
BRANCH   2  10
ATOM      8  O   UNL     1     -30.143  81.308  10.364  0.00  0.00    +0.000 OA
ATOM      9  N   UNL     1     -29.843  81.573   8.087  0.00  0.00    +0.000 N 
ATOM     10  N   UNL     1     -28.874  83.049   9.533  0.00  0.00    +0.000 N 
ATOM     11  C   UNL     1     -29.666  81.919   9.417  0.00  0.00    +0.000 C 
ATOM     12  H   UNL     1     -29.426  82.167   7.385  0.00  0.00    +0.000 HD
ATOM     13  H   UNL     1     -28.496  83.464   8.693  0.00  0.00    +0.000 HD
BRANCH   9  15
ATOM     14 CL   UNL     1     -33.070  76.977   6.211  0.00  0.00    +0.000 Cl
ATOM     15  C   UNL     1     -30.584  80.471   7.621  0.00  0.00    +0.000 A 
ATOM     16  C   UNL     1     -32.678  79.224   7.722  0.00  0.00    +0.000 A 
ATOM     17  C   UNL     1     -31.871  80.292   8.130  0.00  0.00    +0.000 A 
ATOM     18  C   UNL     1     -30.095  79.565   6.686  0.00  0.00    +0.000 A 
ATOM     19  C   UNL     1     -32.167  78.325   6.784  0.00  0.00    +0.000 A 
ATOM     20  C   UNL     1     -30.882  78.496   6.270  0.00  0.00    +0.000 A 
BRANCH  16  24
ATOM     21  F   UNL     1     -34.283  79.977   9.318  0.00  0.00    +0.000 F 
ATOM     22  F   UNL     1     -35.037  79.312   7.398  0.00  0.00    +0.000 F 
ATOM     23  F   UNL     1     -34.283  77.863   8.843  0.00  0.00    +0.000 F 
ATOM     24  C   UNL     1     -34.049  79.091   8.307  0.00  0.00    +0.000 C 
ENDBRANCH  16  24
ENDBRANCH   9  15
ENDBRANCH   2  10
BRANCH   3  25
ATOM     25  O   UNL     1     -27.387  85.478  14.329  0.00  0.00    +0.000 OA
BRANCH  25  27
ATOM     26  N   UNL     1     -27.602  89.632  14.656  0.00  0.00    +0.000 NA
ATOM     27  C   UNL     1     -27.537  86.842  14.445  0.00  0.00    +0.000 A 
ATOM     28  C   UNL     1     -28.407  87.443  15.348  0.00  0.00    +0.000 A 
ATOM     29  C   UNL     1     -28.407  88.826  15.404  0.00  0.00    +0.000 A 
ATOM     30  C   UNL     1     -26.679  87.622  13.675  0.00  0.00    +0.000 A 
ATOM     31  C   UNL     1     -26.755  88.998  13.812  0.00  0.00    +0.000 A 
BRANCH  29  34
ATOM     32  O   UNL     1     -29.577  90.712  16.201  0.00  0.00    +0.000 OA
ATOM     33  N   UNL     1     -29.868  88.662  17.286  0.00  0.00    +0.000 N 
ATOM     34  C   UNL     1     -29.344  89.515  16.330  0.00  0.00    +0.000 C 
ATOM     35  C   UNL     1     -30.791  88.890  18.364  0.00  0.00    +0.000 C 
ATOM     36  H   UNL     1     -29.538  87.700  17.216  0.00  0.00    +0.000 HD
ENDBRANCH  29  34
ENDBRANCH  25  27
ENDBRANCH   3  25
TORSDOF 6
ENDMDL
MODEL 3
REMARK VINA RESULT:      -7.3     24.317     25.459
REMARK  Name = 11167602_Regorafenib.pdbqt.pdb
REMARK  6 active torsions:
REMARK  status: ('A' for Active; 'I' for Inactive)
REMARK    1  A    between atoms: C_2  and  N_10
REMARK    2  A    between atoms: C_3  and  O_25
REMARK    3  A    between atoms: N_9  and  C_15
REMARK    4  A    between atoms: C_16  and  C_24
REMARK    5  A    between atoms: O_25  and  C_27
REMARK    6  A    between atoms: C_29  and  C_34
REMARK                            x       y       z     vdW  Elec       q    Type
REMARK                         _______ _______ _______ _____ _____    ______ ____
ROOT
ATOM      1  F   UNL     1     -41.677 100.153  -0.151  0.00  0.00    +0.000 F 
ATOM      2  C   UNL     1     -41.492 102.489  -0.486  0.00  0.00    +0.000 A 
ATOM      3  C   UNL     1     -40.419 102.709   2.086  0.00  0.00    +0.000 A 
ATOM      4  C   UNL     1     -41.324 101.359   0.320  0.00  0.00    +0.000 A 
ATOM      5  C   UNL     1     -41.133 103.736   0.024  0.00  0.00    +0.000 A 
ATOM      6  C   UNL     1     -40.804 101.458   1.607  0.00  0.00    +0.000 A 
ATOM      7  C   UNL     1     -40.610 103.851   1.311  0.00  0.00    +0.000 A 
ENDROOT
BRANCH   2  10
ATOM      8  O   UNL     1     -44.270 102.231  -1.290  0.00  0.00    +0.000 OA
ATOM      9  N   UNL     1     -43.530 102.073  -3.474  0.00  0.00    +0.000 N 
ATOM     10  N   UNL     1     -42.016 102.313  -1.784  0.00  0.00    +0.000 N 
ATOM     11  C   UNL     1     -43.359 102.209  -2.106  0.00  0.00    +0.000 C 
ATOM     12  H   UNL     1     -42.707 102.097  -4.058  0.00  0.00    +0.000 HD
ATOM     13  H   UNL     1     -41.333 102.247  -2.526  0.00  0.00    +0.000 HD
BRANCH   9  15
ATOM     14 CL   UNL     1     -48.735 101.346  -6.203  0.00  0.00    +0.000 Cl
ATOM     15  C   UNL     1     -44.766 101.933  -4.133  0.00  0.00    +0.000 A 
ATOM     16  C   UNL     1     -46.609 100.451  -4.730  0.00  0.00    +0.000 A 
ATOM     17  C   UNL     1     -45.379 100.680  -4.103  0.00  0.00    +0.000 A 
ATOM     18  C   UNL     1     -45.395 102.977  -4.802  0.00  0.00    +0.000 A 
ATOM     19  C   UNL     1     -47.223 101.512  -5.397  0.00  0.00    +0.000 A 
ATOM     20  C   UNL     1     -46.618 102.769  -5.433  0.00  0.00    +0.000 A 
BRANCH  16  24
ATOM     21  F   UNL     1     -48.502  99.094  -4.214  0.00  0.00    +0.000 F 
ATOM     22  F   UNL     1     -47.253  98.457  -5.866  0.00  0.00    +0.000 F 
ATOM     23  F   UNL     1     -46.546  98.251  -3.813  0.00  0.00    +0.000 F 
ATOM     24  C   UNL     1     -47.212  99.083  -4.659  0.00  0.00    +0.000 C 
ENDBRANCH  16  24
ENDBRANCH   9  15
ENDBRANCH   2  10
BRANCH   3  25
ATOM     25  O   UNL     1     -39.969 102.891   3.373  0.00  0.00    +0.000 OA
BRANCH  25  27
ATOM     26  N   UNL     1     -35.913 103.703   3.920  0.00  0.00    +0.000 NA
ATOM     27  C   UNL     1     -38.648 103.237   3.549  0.00  0.00    +0.000 A 
ATOM     28  C   UNL     1     -38.234 104.298   4.347  0.00  0.00    +0.000 A 
ATOM     29  C   UNL     1     -36.869 104.490   4.489  0.00  0.00    +0.000 A 
ATOM     30  C   UNL     1     -37.709 102.391   2.966  0.00  0.00    +0.000 A 
ATOM     31  C   UNL     1     -36.368 102.669   3.175  0.00  0.00    +0.000 A 
BRANCH  29  34
ATOM     32  O   UNL     1     -35.241 106.063   5.149  0.00  0.00    +0.000 OA
ATOM     33  N   UNL     1     -37.329 106.090   6.201  0.00  0.00    +0.000 N 
ATOM     34  C   UNL     1     -36.379 105.631   5.305  0.00  0.00    +0.000 C 
ATOM     35  C   UNL     1     -37.290 107.149   7.172  0.00  0.00    +0.000 C 
ATOM     36  H   UNL     1     -38.213 105.584   6.171  0.00  0.00    +0.000 HD
ENDBRANCH  29  34
ENDBRANCH  25  27
ENDBRANCH   3  25
TORSDOF 6
ENDMDL
MODEL 4
REMARK VINA RESULT:      -7.2     23.120     25.239
REMARK  Name = 11167602_Regorafenib.pdbqt.pdb
REMARK  6 active torsions:
REMARK  status: ('A' for Active; 'I' for Inactive)
REMARK    1  A    between atoms: C_2  and  N_10
REMARK    2  A    between atoms: C_3  and  O_25
REMARK    3  A    between atoms: N_9  and  C_15
REMARK    4  A    between atoms: C_16  and  C_24
REMARK    5  A    between atoms: O_25  and  C_27
REMARK    6  A    between atoms: C_29  and  C_34
REMARK                            x       y       z     vdW  Elec       q    Type
REMARK                         _______ _______ _______ _____ _____    ______ ____
ROOT
ATOM      1  F   UNL     1     -43.662 102.319   5.391  0.00  0.00    +0.000 F 
ATOM      2  C   UNL     1     -42.961 101.140   3.463  0.00  0.00    +0.000 A 
ATOM      3  C   UNL     1     -45.621 101.085   2.605  0.00  0.00    +0.000 A 
ATOM      4  C   UNL     1     -43.974 101.722   4.231  0.00  0.00    +0.000 A 
ATOM      5  C   UNL     1     -43.303 100.511   2.267  0.00  0.00    +0.000 A 
ATOM      6  C   UNL     1     -45.303 101.689   3.822  0.00  0.00    +0.000 A 
ATOM      7  C   UNL     1     -44.630 100.470   1.843  0.00  0.00    +0.000 A 
ENDROOT
BRANCH   2  10
ATOM      8  O   UNL     1     -40.889 103.033   2.715  0.00  0.00    +0.000 OA
ATOM      9  N   UNL     1     -39.498 101.970   4.224  0.00  0.00    +0.000 N 
ATOM     10  N   UNL     1     -41.633 101.219   3.935  0.00  0.00    +0.000 N 
ATOM     11  C   UNL     1     -40.692 102.158   3.547  0.00  0.00    +0.000 C 
ATOM     12  H   UNL     1     -39.456 101.232   4.912  0.00  0.00    +0.000 HD
ATOM     13  H   UNL     1     -41.364 100.511   4.604  0.00  0.00    +0.000 HD
BRANCH   9  15
ATOM     14 CL   UNL     1     -34.650 105.316   3.622  0.00  0.00    +0.000 Cl
ATOM     15  C   UNL     1     -38.334 102.743   4.058  0.00  0.00    +0.000 A 
ATOM     16  C   UNL     1     -37.091 104.737   4.714  0.00  0.00    +0.000 A 
ATOM     17  C   UNL     1     -38.215 103.908   4.816  0.00  0.00    +0.000 A 
ATOM     18  C   UNL     1     -37.309 102.399   3.182  0.00  0.00    +0.000 A 
ATOM     19  C   UNL     1     -36.075 104.374   3.828  0.00  0.00    +0.000 A 
ATOM     20  C   UNL     1     -36.185 103.211   3.066  0.00  0.00    +0.000 A 
BRANCH  16  24
ATOM     21  F   UNL     1     -36.878 107.110   4.820  0.00  0.00    +0.000 F 
ATOM     22  F   UNL     1     -38.150 106.167   6.299  0.00  0.00    +0.000 F 
ATOM     23  F   UNL     1     -35.981 105.968   6.428  0.00  0.00    +0.000 F 
ATOM     24  C   UNL     1     -37.027 105.972   5.557  0.00  0.00    +0.000 C 
ENDBRANCH  16  24
ENDBRANCH   9  15
ENDBRANCH   2  10
BRANCH   3  25
ATOM     25  O   UNL     1     -46.920 100.949   2.175  0.00  0.00    +0.000 OA
BRANCH  25  27
ATOM     26  N   UNL     1     -48.961  97.377   2.866  0.00  0.00    +0.000 NA
ATOM     27  C   UNL     1     -47.580  99.780   2.481  0.00  0.00    +0.000 A 
ATOM     28  C   UNL     1     -48.433  99.645   3.571  0.00  0.00    +0.000 A 
ATOM     29  C   UNL     1     -49.084  98.432   3.721  0.00  0.00    +0.000 A 
ATOM     30  C   UNL     1     -47.440  98.740   1.568  0.00  0.00    +0.000 A 
ATOM     31  C   UNL     1     -48.140  97.568   1.808  0.00  0.00    +0.000 A 
BRANCH  29  34
ATOM     32  O   UNL     1     -50.733  97.261   4.932  0.00  0.00    +0.000 OA
ATOM     33  N   UNL     1     -49.843  99.223   5.841  0.00  0.00    +0.000 N 
ATOM     34  C   UNL     1     -49.979  98.228   4.889  0.00  0.00    +0.000 C 
ATOM     35  C   UNL     1     -50.499  99.429   7.104  0.00  0.00    +0.000 C 
ATOM     36  H   UNL     1     -49.159  99.940   5.605  0.00  0.00    +0.000 HD
ENDBRANCH  29  34
ENDBRANCH  25  27
ENDBRANCH   3  25
TORSDOF 6
ENDMDL
MODEL 5
REMARK VINA RESULT:      -7.1     17.162     19.484
REMARK  Name = 11167602_Regorafenib.pdbqt.pdb
REMARK  6 active torsions:
REMARK  status: ('A' for Active; 'I' for Inactive)
REMARK    1  A    between atoms: C_2  and  N_10
REMARK    2  A    between atoms: C_3  and  O_25
REMARK    3  A    between atoms: N_9  and  C_15
REMARK    4  A    between atoms: C_16  and  C_24
REMARK    5  A    between atoms: O_25  and  C_27
REMARK    6  A    between atoms: C_29  and  C_34
REMARK                            x       y       z     vdW  Elec       q    Type
REMARK                         _______ _______ _______ _____ _____    ______ ____
ROOT
ATOM      1  F   UNL     1     -29.426 102.816  16.660  0.00  0.00    +0.000 F 
ATOM      2  C   UNL     1     -29.485 100.450  16.644  0.00  0.00    +0.000 A 
ATOM      3  C   UNL     1     -31.217 100.569  14.454  0.00  0.00    +0.000 A 
ATOM      4  C   UNL     1     -29.886 101.679  16.113  0.00  0.00    +0.000 A 
ATOM      5  C   UNL     1     -29.982  99.279  16.074  0.00  0.00    +0.000 A 
ATOM      6  C   UNL     1     -30.758 101.751  15.032  0.00  0.00    +0.000 A 
ATOM      7  C   UNL     1     -30.857  99.334  14.990  0.00  0.00    +0.000 A 
ENDROOT
BRANCH   2  10
ATOM      8  O   UNL     1     -30.098 100.577  19.480  0.00  0.00    +0.000 OA
ATOM      9  N   UNL     1     -27.825 100.458  19.885  0.00  0.00    +0.000 N 
ATOM     10  N   UNL     1     -28.590 100.451  17.735  0.00  0.00    +0.000 N 
ATOM     11  C   UNL     1     -28.947 100.502  19.073  0.00  0.00    +0.000 C 
ATOM     12  H   UNL     1     -26.923 100.366  19.441  0.00  0.00    +0.000 HD
ATOM     13  H   UNL     1     -27.609 100.427  17.496  0.00  0.00    +0.000 HD
BRANCH   9  15
ATOM     14 CL   UNL     1     -27.826 100.503  25.807  0.00  0.00    +0.000 Cl
ATOM     15  C   UNL     1     -27.833 100.501  21.292  0.00  0.00    +0.000 A 
ATOM     16  C   UNL     1     -27.537  99.273  23.379  0.00  0.00    +0.000 A 
ATOM     17  C   UNL     1     -27.550  99.321  21.980  0.00  0.00    +0.000 A 
ATOM     18  C   UNL     1     -28.107 101.657  22.017  0.00  0.00    +0.000 A 
ATOM     19  C   UNL     1     -27.815 100.444  24.086  0.00  0.00    +0.000 A 
ATOM     20  C   UNL     1     -28.099 101.629  23.408  0.00  0.00    +0.000 A 
BRANCH  16  24
ATOM     21  F   UNL     1     -26.152  98.057  24.893  0.00  0.00    +0.000 F 
ATOM     22  F   UNL     1     -28.249  97.516  24.822  0.00  0.00    +0.000 F 
ATOM     23  F   UNL     1     -26.920  96.979  23.177  0.00  0.00    +0.000 F 
ATOM     24  C   UNL     1     -27.224  97.975  24.053  0.00  0.00    +0.000 C 
ENDBRANCH  16  24
ENDBRANCH   9  15
ENDBRANCH   2  10
BRANCH   3  25
ATOM     25  O   UNL     1     -32.139 100.565  13.433  0.00  0.00    +0.000 OA
BRANCH  25  27
ATOM     26  N   UNL     1     -36.078 101.491  14.451  0.00  0.00    +0.000 NA
ATOM     27  C   UNL     1     -33.458 100.794  13.757  0.00  0.00    +0.000 A 
ATOM     28  C   UNL     1     -34.219  99.923  14.529  0.00  0.00    +0.000 A 
ATOM     29  C   UNL     1     -35.512 100.312  14.835  0.00  0.00    +0.000 A 
ATOM     30  C   UNL     1     -33.983 102.020  13.360  0.00  0.00    +0.000 A 
ATOM     31  C   UNL     1     -35.287 102.314  13.724  0.00  0.00    +0.000 A 
BRANCH  29  34
ATOM     32  O   UNL     1     -37.596  99.432  15.502  0.00  0.00    +0.000 OA
ATOM     33  N   UNL     1     -35.646  98.576  16.469  0.00  0.00    +0.000 N 
ATOM     34  C   UNL     1     -36.376  99.400  15.629  0.00  0.00    +0.000 C 
ATOM     35  C   UNL     1     -36.056  97.563  17.402  0.00  0.00    +0.000 C 
ATOM     36  H   UNL     1     -34.637  98.716  16.421  0.00  0.00    +0.000 HD
ENDBRANCH  29  34
ENDBRANCH  25  27
ENDBRANCH   3  25
TORSDOF 6
ENDMDL
MODEL 6
REMARK VINA RESULT:      -6.9     17.353     19.786
REMARK  Name = 11167602_Regorafenib.pdbqt.pdb
REMARK  6 active torsions:
REMARK  status: ('A' for Active; 'I' for Inactive)
REMARK    1  A    between atoms: C_2  and  N_10
REMARK    2  A    between atoms: C_3  and  O_25
REMARK    3  A    between atoms: N_9  and  C_15
REMARK    4  A    between atoms: C_16  and  C_24
REMARK    5  A    between atoms: O_25  and  C_27
REMARK    6  A    between atoms: C_29  and  C_34
REMARK                            x       y       z     vdW  Elec       q    Type
REMARK                         _______ _______ _______ _____ _____    ______ ____
ROOT
ATOM      1  F   UNL     1     -30.279 102.765  17.493  0.00  0.00    +0.000 F 
ATOM      2  C   UNL     1     -29.515 100.587  16.967  0.00  0.00    +0.000 A 
ATOM      3  C   UNL     1     -31.272 100.563  14.793  0.00  0.00    +0.000 A 
ATOM      4  C   UNL     1     -30.339 101.684  16.699  0.00  0.00    +0.000 A 
ATOM      5  C   UNL     1     -29.600  99.467  16.141  0.00  0.00    +0.000 A 
ATOM      6  C   UNL     1     -31.227 101.679  15.628  0.00  0.00    +0.000 A 
ATOM      7  C   UNL     1     -30.484  99.447  15.064  0.00  0.00    +0.000 A 
ENDROOT
BRANCH   2  10
ATOM      8  O   UNL     1     -30.128 100.364  19.797  0.00  0.00    +0.000 OA
ATOM      9  N   UNL     1     -27.871 100.638  20.216  0.00  0.00    +0.000 N 
ATOM     10  N   UNL     1     -28.632 100.665  18.064  0.00  0.00    +0.000 N 
ATOM     11  C   UNL     1     -28.985 100.538  19.397  0.00  0.00    +0.000 C 
ATOM     12  H   UNL     1     -26.970 100.752  19.775  0.00  0.00    +0.000 HD
ATOM     13  H   UNL     1     -27.664 100.844  17.834  0.00  0.00    +0.000 HD
BRANCH   9  15
ATOM     14 CL   UNL     1     -27.873 100.186  26.120  0.00  0.00    +0.000 Cl
ATOM     15  C   UNL     1     -27.881 100.563  21.621  0.00  0.00    +0.000 A 
ATOM     16  C   UNL     1     -27.547  99.173  23.598  0.00  0.00    +0.000 A 
ATOM     17  C   UNL     1     -27.562  99.338  22.208  0.00  0.00    +0.000 A 
ATOM     18  C   UNL     1     -28.189 101.645  22.439  0.00  0.00    +0.000 A 
ATOM     19  C   UNL     1     -27.861 100.272  24.401  0.00  0.00    +0.000 A 
ATOM     20  C   UNL     1     -28.180 101.500  23.823  0.00  0.00    +0.000 A 
BRANCH  16  24
ATOM     21  F   UNL     1     -26.862  96.924  23.202  0.00  0.00    +0.000 F 
ATOM     22  F   UNL     1     -26.128  97.875  25.006  0.00  0.00    +0.000 F 
ATOM     23  F   UNL     1     -28.217  97.264  24.858  0.00  0.00    +0.000 F 
ATOM     24  C   UNL     1     -27.195  97.833  24.162  0.00  0.00    +0.000 C 
ENDBRANCH  16  24
ENDBRANCH   9  15
ENDBRANCH   2  10
BRANCH   3  25
ATOM     25  O   UNL     1     -32.178 100.459  13.763  0.00  0.00    +0.000 OA
BRANCH  25  27
ATOM     26  N   UNL     1     -36.237 100.237  14.701  0.00  0.00    +0.000 NA
ATOM     27  C   UNL     1     -33.517 100.465  14.082  0.00  0.00    +0.000 A 
ATOM     28  C   UNL     1     -34.410 101.424  13.617  0.00  0.00    +0.000 A 
ATOM     29  C   UNL     1     -35.743 101.270  13.961  0.00  0.00    +0.000 A 
ATOM     30  C   UNL     1     -33.977  99.380  14.822  0.00  0.00    +0.000 A 
ATOM     31  C   UNL     1     -35.332  99.318  15.107  0.00  0.00    +0.000 A 
BRANCH  29  34
ATOM     32  O   UNL     1     -36.352 103.339  13.008  0.00  0.00    +0.000 OA
ATOM     33  N   UNL     1     -38.037 101.896  13.747  0.00  0.00    +0.000 N 
ATOM     34  C   UNL     1     -36.730 102.287  13.515  0.00  0.00    +0.000 C 
ATOM     35  C   UNL     1     -39.289 102.552  13.487  0.00  0.00    +0.000 C 
ATOM     36  H   UNL     1     -38.129 100.980  14.185  0.00  0.00    +0.000 HD
ENDBRANCH  29  34
ENDBRANCH  25  27
ENDBRANCH   3  25
TORSDOF 6
ENDMDL
MODEL 7
REMARK VINA RESULT:      -6.9      4.917     11.483
REMARK  Name = 11167602_Regorafenib.pdbqt.pdb
REMARK  6 active torsions:
REMARK  status: ('A' for Active; 'I' for Inactive)
REMARK    1  A    between atoms: C_2  and  N_10
REMARK    2  A    between atoms: C_3  and  O_25
REMARK    3  A    between atoms: N_9  and  C_15
REMARK    4  A    between atoms: C_16  and  C_24
REMARK    5  A    between atoms: O_25  and  C_27
REMARK    6  A    between atoms: C_29  and  C_34
REMARK                            x       y       z     vdW  Elec       q    Type
REMARK                         _______ _______ _______ _____ _____    ______ ____
ROOT
ATOM      1  F   UNL     1     -29.409  79.225   7.532  0.00  0.00    +0.000 F 
ATOM      2  C   UNL     1     -31.142  80.538   8.468  0.00  0.00    +0.000 A 
ATOM      3  C   UNL     1     -32.932  78.467   7.903  0.00  0.00    +0.000 A 
ATOM      4  C   UNL     1     -30.706  79.362   7.851  0.00  0.00    +0.000 A 
ATOM      5  C   UNL     1     -32.494  80.670   8.780  0.00  0.00    +0.000 A 
ATOM      6  C   UNL     1     -31.589  78.330   7.552  0.00  0.00    +0.000 A 
ATOM      7  C   UNL     1     -33.392  79.644   8.487  0.00  0.00    +0.000 A 
ENDROOT
BRANCH   2  10
ATOM      8  O   UNL     1     -30.163  81.421  11.056  0.00  0.00    +0.000 OA
ATOM      9  N   UNL     1     -28.791  82.904   9.931  0.00  0.00    +0.000 N 
ATOM     10  N   UNL     1     -30.189  81.539   8.750  0.00  0.00    +0.000 N 
ATOM     11  C   UNL     1     -29.752  81.908  10.011  0.00  0.00    +0.000 C 
ATOM     12  H   UNL     1     -28.506  83.211   9.012  0.00  0.00    +0.000 HD
ATOM     13  H   UNL     1     -29.816  82.026   7.946  0.00  0.00    +0.000 HD
BRANCH   9  15
ATOM     14 CL   UNL     1     -26.178  85.566  14.529  0.00  0.00    +0.000 Cl
ATOM     15  C   UNL     1     -28.150  83.510  11.027  0.00  0.00    +0.000 A 
ATOM     16  C   UNL     1     -28.009  85.450  12.498  0.00  0.00    +0.000 A 
ATOM     17  C   UNL     1     -28.589  84.774  11.419  0.00  0.00    +0.000 A 
ATOM     18  C   UNL     1     -27.110  82.908  11.728  0.00  0.00    +0.000 A 
ATOM     19  C   UNL     1     -26.966  84.829  13.188  0.00  0.00    +0.000 A 
ATOM     20  C   UNL     1     -26.519  83.565  12.803  0.00  0.00    +0.000 A 
BRANCH  16  24
ATOM     21  F   UNL     1     -27.550  87.752  12.921  0.00  0.00    +0.000 F 
ATOM     22  F   UNL     1     -29.444  87.281  11.979  0.00  0.00    +0.000 F 
ATOM     23  F   UNL     1     -29.125  86.831  14.089  0.00  0.00    +0.000 F 
ATOM     24  C   UNL     1     -28.529  86.804  12.866  0.00  0.00    +0.000 C 
ENDBRANCH  16  24
ENDBRANCH   9  15
ENDBRANCH   2  10
BRANCH   3  25
ATOM     25  O   UNL     1     -33.873  77.520   7.571  0.00  0.00    +0.000 OA
BRANCH  25  27
ATOM     26  N   UNL     1     -36.649  78.718   4.696  0.00  0.00    +0.000 NA
ATOM     27  C   UNL     1     -34.843  77.871   6.660  0.00  0.00    +0.000 A 
ATOM     28  C   UNL     1     -36.156  78.166   7.014  0.00  0.00    +0.000 A 
ATOM     29  C   UNL     1     -37.010  78.571   6.003  0.00  0.00    +0.000 A 
ATOM     30  C   UNL     1     -34.421  78.029   5.343  0.00  0.00    +0.000 A 
ATOM     31  C   UNL     1     -35.356  78.444   4.409  0.00  0.00    +0.000 A 
BRANCH  29  34
ATOM     32  O   UNL     1     -39.062  79.684   5.667  0.00  0.00    +0.000 OA
ATOM     33  N   UNL     1     -38.891  78.131   7.406  0.00  0.00    +0.000 N 
ATOM     34  C   UNL     1     -38.430  78.865   6.327  0.00  0.00    +0.000 C 
ATOM     35  C   UNL     1     -40.172  78.097   8.058  0.00  0.00    +0.000 C 
ATOM     36  H   UNL     1     -38.197  77.506   7.816  0.00  0.00    +0.000 HD
ENDBRANCH  29  34
ENDBRANCH  25  27
ENDBRANCH   3  25
TORSDOF 6
ENDMDL
MODEL 8
REMARK VINA RESULT:      -6.9     20.139     23.385
REMARK  Name = 11167602_Regorafenib.pdbqt.pdb
REMARK  6 active torsions:
REMARK  status: ('A' for Active; 'I' for Inactive)
REMARK    1  A    between atoms: C_2  and  N_10
REMARK    2  A    between atoms: C_3  and  O_25
REMARK    3  A    between atoms: N_9  and  C_15
REMARK    4  A    between atoms: C_16  and  C_24
REMARK    5  A    between atoms: O_25  and  C_27
REMARK    6  A    between atoms: C_29  and  C_34
REMARK                            x       y       z     vdW  Elec       q    Type
REMARK                         _______ _______ _______ _____ _____    ______ ____
ROOT
ATOM      1  F   UNL     1     -23.419 100.497   1.923  0.00  0.00    +0.000 F 
ATOM      2  C   UNL     1     -24.354 102.382   3.007  0.00  0.00    +0.000 A 
ATOM      3  C   UNL     1     -24.363 103.713   0.548  0.00  0.00    +0.000 A 
ATOM      4  C   UNL     1     -23.879 101.756   1.850  0.00  0.00    +0.000 A 
ATOM      5  C   UNL     1     -24.815 103.695   2.917  0.00  0.00    +0.000 A 
ATOM      6  C   UNL     1     -23.866 102.412   0.624  0.00  0.00    +0.000 A 
ATOM      7  C   UNL     1     -24.809 104.366   1.695  0.00  0.00    +0.000 A 
ENDROOT
BRANCH   2  10
ATOM      8  O   UNL     1     -22.269 102.255   5.025  0.00  0.00    +0.000 OA
ATOM      9  N   UNL     1     -23.648 100.845   6.231  0.00  0.00    +0.000 N 
ATOM     10  N   UNL     1     -24.346 101.653   4.214  0.00  0.00    +0.000 N 
ATOM     11  C   UNL     1     -23.321 101.643   5.146  0.00  0.00    +0.000 C 
ATOM     12  H   UNL     1     -24.558 100.409   6.240  0.00  0.00    +0.000 HD
ATOM     13  H   UNL     1     -25.164 101.085   4.387  0.00  0.00    +0.000 HD
BRANCH   9  15
ATOM     14 CL   UNL     1     -20.088  99.797  10.846  0.00  0.00    +0.000 Cl
ATOM     15  C   UNL     1     -22.825 100.610   7.349  0.00  0.00    +0.000 A 
ATOM     16  C   UNL     1     -20.720  99.704   8.185  0.00  0.00    +0.000 A 
ATOM     17  C   UNL     1     -21.601  99.977   7.132  0.00  0.00    +0.000 A 
ATOM     18  C   UNL     1     -23.175 100.978   8.644  0.00  0.00    +0.000 A 
ATOM     19  C   UNL     1     -21.091 100.082   9.477  0.00  0.00    +0.000 A 
ATOM     20  C   UNL     1     -22.313 100.715   9.704  0.00  0.00    +0.000 A 
BRANCH  16  24
ATOM     21  F   UNL     1     -18.357  99.876   7.910  0.00  0.00    +0.000 F 
ATOM     22  F   UNL     1     -19.119  98.039   8.771  0.00  0.00    +0.000 F 
ATOM     23  F   UNL     1     -19.395  98.453   6.647  0.00  0.00    +0.000 F 
ATOM     24  C   UNL     1     -19.422  99.024   7.883  0.00  0.00    +0.000 C 
ENDBRANCH  16  24
ENDBRANCH   9  15
ENDBRANCH   2  10
BRANCH   3  25
ATOM     25  O   UNL     1     -24.312 104.447  -0.613  0.00  0.00    +0.000 OA
BRANCH  25  27
ATOM     26  N   UNL     1     -21.019 104.025  -3.140  0.00  0.00    +0.000 NA
ATOM     27  C   UNL     1     -23.249 104.234  -1.462  0.00  0.00    +0.000 A 
ATOM     28  C   UNL     1     -23.360 103.555  -2.671  0.00  0.00    +0.000 A 
ATOM     29  C   UNL     1     -22.223 103.471  -3.458  0.00  0.00    +0.000 A 
ATOM     30  C   UNL     1     -22.046 104.835  -1.104  0.00  0.00    +0.000 A 
ATOM     31  C   UNL     1     -20.971 104.696  -1.967  0.00  0.00    +0.000 A 
BRANCH  29  34
ATOM     32  O   UNL     1     -21.257 102.492  -5.373  0.00  0.00    +0.000 OA
ATOM     33  N   UNL     1     -23.575 102.373  -5.091  0.00  0.00    +0.000 N 
ATOM     34  C   UNL     1     -22.283 102.727  -4.743  0.00  0.00    +0.000 C 
ATOM     35  C   UNL     1     -24.096 101.664  -6.228  0.00  0.00    +0.000 C 
ATOM     36  H   UNL     1     -24.286 102.672  -4.425  0.00  0.00    +0.000 HD
ENDBRANCH  29  34
ENDBRANCH  25  27
ENDBRANCH   3  25
TORSDOF 6
ENDMDL
MODEL 9
REMARK VINA RESULT:      -6.8     19.112     21.355
REMARK  Name = 11167602_Regorafenib.pdbqt.pdb
REMARK  6 active torsions:
REMARK  status: ('A' for Active; 'I' for Inactive)
REMARK    1  A    between atoms: C_2  and  N_10
REMARK    2  A    between atoms: C_3  and  O_25
REMARK    3  A    between atoms: N_9  and  C_15
REMARK    4  A    between atoms: C_16  and  C_24
REMARK    5  A    between atoms: O_25  and  C_27
REMARK    6  A    between atoms: C_29  and  C_34
REMARK                            x       y       z     vdW  Elec       q    Type
REMARK                         _______ _______ _______ _____ _____    ______ ____
ROOT
ATOM      1  F   UNL     1     -21.399  99.268   5.707  0.00  0.00    +0.000 F 
ATOM      2  C   UNL     1     -22.864 100.413   7.170  0.00  0.00    +0.000 A 
ATOM      3  C   UNL     1     -21.135  99.804   9.280  0.00  0.00    +0.000 A 
ATOM      4  C   UNL     1     -21.695  99.679   6.950  0.00  0.00    +0.000 A 
ATOM      5  C   UNL     1     -23.166 100.820   8.469  0.00  0.00    +0.000 A 
ATOM      6  C   UNL     1     -20.834  99.358   7.993  0.00  0.00    +0.000 A 
ATOM      7  C   UNL     1     -22.312 100.507   9.526  0.00  0.00    +0.000 A 
ENDROOT
BRANCH   2  10
ATOM      8  O   UNL     1     -22.439 102.389   5.085  0.00  0.00    +0.000 OA
ATOM      9  N   UNL     1     -24.421 101.677   4.131  0.00  0.00    +0.000 N 
ATOM     10  N   UNL     1     -23.687 100.710   6.064  0.00  0.00    +0.000 N 
ATOM     11  C   UNL     1     -23.422 101.661   5.091  0.00  0.00    +0.000 C 
ATOM     12  H   UNL     1     -25.174 101.010   4.220  0.00  0.00    +0.000 HD
ATOM     13  H   UNL     1     -24.546 100.181   6.002  0.00  0.00    +0.000 HD
BRANCH   9  15
ATOM     14 CL   UNL     1     -24.676 105.363  -0.496  0.00  0.00    +0.000 Cl
ATOM     15  C   UNL     1     -24.464 102.531   3.013  0.00  0.00    +0.000 A 
ATOM     16  C   UNL     1     -25.216 104.662   2.093  0.00  0.00    +0.000 A 
ATOM     17  C   UNL     1     -25.124 103.752   3.153  0.00  0.00    +0.000 A 
ATOM     18  C   UNL     1     -23.883 102.213   1.789  0.00  0.00    +0.000 A 
ATOM     19  C   UNL     1     -24.626 104.323   0.874  0.00  0.00    +0.000 A 
ATOM     20  C   UNL     1     -23.964 103.105   0.724  0.00  0.00    +0.000 A 
BRANCH  16  24
ATOM     21  F   UNL     1     -26.912 106.181   1.385  0.00  0.00    +0.000 F 
ATOM     22  F   UNL     1     -26.564 106.015   3.518  0.00  0.00    +0.000 F 
ATOM     23  F   UNL     1     -25.118 107.039   2.245  0.00  0.00    +0.000 F 
ATOM     24  C   UNL     1     -25.937 105.954   2.312  0.00  0.00    +0.000 C 
ENDBRANCH  16  24
ENDBRANCH   9  15
ENDBRANCH   2  10
BRANCH   3  25
ATOM     25  O   UNL     1     -20.369  99.460  10.369  0.00  0.00    +0.000 OA
BRANCH  25  27
ATOM     26  N   UNL     1     -19.263 102.428  13.085  0.00  0.00    +0.000 NA
ATOM     27  C   UNL     1     -19.956 100.469  11.210  0.00  0.00    +0.000 A 
ATOM     28  C   UNL     1     -19.783 101.786  10.796  0.00  0.00    +0.000 A 
ATOM     29  C   UNL     1     -19.430 102.713  11.763  0.00  0.00    +0.000 A 
ATOM     30  C   UNL     1     -19.820 100.133  12.553  0.00  0.00    +0.000 A 
ATOM     31  C   UNL     1     -19.469 101.138  13.440  0.00  0.00    +0.000 A 
BRANCH  29  34
ATOM     32  O   UNL     1     -18.137 104.462  10.852  0.00  0.00    +0.000 OA
ATOM     33  N   UNL     1     -20.285 104.939  11.642  0.00  0.00    +0.000 N 
ATOM     34  C   UNL     1     -19.200 104.126  11.364  0.00  0.00    +0.000 C 
ATOM     35  C   UNL     1     -20.501 106.345  11.435  0.00  0.00    +0.000 C 
ATOM     36  H   UNL     1     -21.072 104.456  12.075  0.00  0.00    +0.000 HD
ENDBRANCH  29  34
ENDBRANCH  25  27
ENDBRANCH   3  25
TORSDOF 6
ENDMDL
