MODEL 1
REMARK VINA RESULT:      -6.1      0.000      0.000
REMARK  Name = 114778_Kahweol.pdbqt.pdb
REMARK  3 active torsions:
REMARK  status: ('A' for Active; 'I' for Inactive)
REMARK    1  A    between atoms: C_8  and  O_21
REMARK    2  A    between atoms: C_8  and  C_23
REMARK    3  A    between atoms: C_23  and  O_24
REMARK                            x       y       z     vdW  Elec       q    Type
REMARK                         _______ _______ _______ _____ _____    ______ ____
ROOT
ATOM      1  O   UNL     1     -24.216 103.604  -0.178  0.00  0.00    +0.000 OA
ATOM      2  C   UNL     1     -22.617 102.370   5.750  0.00  0.00    +0.000 C 
ATOM      3  C   UNL     1     -22.977 101.355   4.578  0.00  0.00    +0.000 C 
ATOM      4  C   UNL     1     -21.489 100.724   7.072  0.00  0.00    +0.000 C 
ATOM      5  C   UNL     1     -22.677 101.593   7.017  0.00  0.00    +0.000 C 
ATOM      6  C   UNL     1     -21.152 102.577   5.754  0.00  0.00    +0.000 C 
ATOM      7  C   UNL     1     -24.130 101.617   3.602  0.00  0.00    +0.000 C 
ATOM      8  C   UNL     1     -20.335 101.718   6.634  0.00  0.00    +0.000 C 
ATOM      9  C   UNL     1     -23.419 103.558   5.612  0.00  0.00    +0.000 C 
ATOM     10  C   UNL     1     -22.454 100.024   4.840  0.00  0.00    +0.000 C 
ATOM     11  C   UNL     1     -21.730  99.636   6.135  0.00  0.00    +0.000 C 
ATOM     12  C   UNL     1     -24.551 103.175   3.409  0.00  0.00    +0.000 C 
ATOM     13  C   UNL     1     -24.339 104.015   4.525  0.00  0.00    +0.000 C 
ATOM     14  C   UNL     1     -25.409 100.877   4.112  0.00  0.00    +0.000 C 
ATOM     15  C   UNL     1     -23.737 101.145   2.246  0.00  0.00    +0.000 C 
ATOM     16  C   UNL     1     -24.565 103.702   2.063  0.00  0.00    +0.000 A 
ATOM     17  C   UNL     1     -23.735 101.611   1.141  0.00  0.00    +0.000 C 
ATOM     18  C   UNL     1     -24.173 102.938   0.985  0.00  0.00    +0.000 A 
ATOM     19  C   UNL     1     -24.881 104.963   1.518  0.00  0.00    +0.000 A 
ATOM     20  C   UNL     1     -24.666 104.859   0.151  0.00  0.00    +0.000 A 
ENDROOT
BRANCH   8  21
ATOM     21  O   UNL     1     -19.892 102.475   7.747  0.00  0.00    +0.000 OA
ATOM     22  H   UNL     1     -20.655 102.539   8.345  0.00  0.00    +0.000 HD
ENDBRANCH   8  21
BRANCH   8  23
ATOM     23  C   UNL     1     -19.188 101.064   5.992  0.00  0.00    +0.000 C 
BRANCH  23  24
ATOM     24  O   UNL     1     -18.140 100.487   5.403  0.00  0.00    +0.000 OA
ATOM     25  H   UNL     1     -18.325  99.552   5.204  0.00  0.00    +0.000 HD
ENDBRANCH  23  24
ENDBRANCH   8  23
TORSDOF 3
ENDMDL
MODEL 2
REMARK VINA RESULT:      -6.0     13.334     14.854
REMARK  Name = 114778_Kahweol.pdbqt.pdb
REMARK  3 active torsions:
REMARK  status: ('A' for Active; 'I' for Inactive)
REMARK    1  A    between atoms: C_8  and  O_21
REMARK    2  A    between atoms: C_8  and  C_23
REMARK    3  A    between atoms: C_23  and  O_24
REMARK                            x       y       z     vdW  Elec       q    Type
REMARK                         _______ _______ _______ _____ _____    ______ ____
ROOT
ATOM      1  O   UNL     1     -35.777 103.717  12.711  0.00  0.00    +0.000 OA
ATOM      2  C   UNL     1     -31.714 101.058  16.667  0.00  0.00    +0.000 C 
ATOM      3  C   UNL     1     -32.248 100.519  15.268  0.00  0.00    +0.000 C 
ATOM      4  C   UNL     1     -29.790  99.634  16.684  0.00  0.00    +0.000 C 
ATOM      5  C   UNL     1     -31.075  99.902  17.351  0.00  0.00    +0.000 C 
ATOM      6  C   UNL     1     -30.467 101.817  16.428  0.00  0.00    +0.000 C 
ATOM      7  C   UNL     1     -33.719 100.649  14.856  0.00  0.00    +0.000 C 
ATOM      8  C   UNL     1     -29.184 101.092  16.542  0.00  0.00    +0.000 C 
ATOM      9  C   UNL     1     -32.769 101.777  17.332  0.00  0.00    +0.000 C 
ATOM     10  C   UNL     1     -31.357  99.521  14.700  0.00  0.00    +0.000 C 
ATOM     11  C   UNL     1     -30.108  98.992  15.417  0.00  0.00    +0.000 C 
ATOM     12  C   UNL     1     -34.549 101.850  15.570  0.00  0.00    +0.000 C 
ATOM     13  C   UNL     1     -34.125 102.206  16.870  0.00  0.00    +0.000 C 
ATOM     14  C   UNL     1     -34.469  99.325  15.213  0.00  0.00    +0.000 C 
ATOM     15  C   UNL     1     -33.793 100.934  13.396  0.00  0.00    +0.000 C 
ATOM     16  C   UNL     1     -35.223 102.799  14.713  0.00  0.00    +0.000 A 
ATOM     17  C   UNL     1     -34.342 101.746  12.706  0.00  0.00    +0.000 C 
ATOM     18  C   UNL     1     -35.116 102.735  13.339  0.00  0.00    +0.000 A 
ATOM     19  C   UNL     1     -36.026 103.931  14.961  0.00  0.00    +0.000 A 
ATOM     20  C   UNL     1     -36.352 104.454  13.717  0.00  0.00    +0.000 A 
ENDROOT
BRANCH   8  21
ATOM     21  O   UNL     1     -28.537 101.473  17.744  0.00  0.00    +0.000 OA
ATOM     22  H   UNL     1     -29.235 101.818  18.324  0.00  0.00    +0.000 HD
ENDBRANCH   8  21
BRANCH   8  23
ATOM     23  C   UNL     1     -28.263 101.255  15.410  0.00  0.00    +0.000 C 
BRANCH  23  24
ATOM     24  O   UNL     1     -27.440 101.410  14.373  0.00  0.00    +0.000 OA
ATOM     25  H   UNL     1     -27.544 100.681  13.735  0.00  0.00    +0.000 HD
ENDBRANCH  23  24
ENDBRANCH   8  23
TORSDOF 3
ENDMDL
MODEL 3
REMARK VINA RESULT:      -5.6     13.251     14.991
REMARK  Name = 114778_Kahweol.pdbqt.pdb
REMARK  3 active torsions:
REMARK  status: ('A' for Active; 'I' for Inactive)
REMARK    1  A    between atoms: C_8  and  O_21
REMARK    2  A    between atoms: C_8  and  C_23
REMARK    3  A    between atoms: C_23  and  O_24
REMARK                            x       y       z     vdW  Elec       q    Type
REMARK                         _______ _______ _______ _____ _____    ______ ____
ROOT
ATOM      1  O   UNL     1     -35.139 100.719  13.799  0.00  0.00    +0.000 OA
ATOM      2  C   UNL     1     -30.173 101.405  17.551  0.00  0.00    +0.000 C 
ATOM      3  C   UNL     1     -30.214 101.075  15.995  0.00  0.00    +0.000 C 
ATOM      4  C   UNL     1     -27.899 102.154  17.516  0.00  0.00    +0.000 C 
ATOM      5  C   UNL     1     -28.793 101.095  18.014  0.00  0.00    +0.000 C 
ATOM      6  C   UNL     1     -30.074 102.872  17.714  0.00  0.00    +0.000 C 
ATOM      7  C   UNL     1     -31.229 100.093  15.400  0.00  0.00    +0.000 C 
ATOM      8  C   UNL     1     -28.727 103.465  17.845  0.00  0.00    +0.000 C 
ATOM      9  C   UNL     1     -31.293 100.775  18.200  0.00  0.00    +0.000 C 
ATOM     10  C   UNL     1     -28.955 101.398  15.343  0.00  0.00    +0.000 C 
ATOM     11  C   UNL     1     -27.716 101.903  16.094  0.00  0.00    +0.000 C 
ATOM     12  C   UNL     1     -32.598  99.890  16.252  0.00  0.00    +0.000 C 
ATOM     13  C   UNL     1     -32.486 100.060  17.650  0.00  0.00    +0.000 C 
ATOM     14  C   UNL     1     -30.569  98.681  15.287  0.00  0.00    +0.000 C 
ATOM     15  C   UNL     1     -31.667 100.592  14.067  0.00  0.00    +0.000 C 
ATOM     16  C   UNL     1     -33.852 100.107  15.566  0.00  0.00    +0.000 A 
ATOM     17  C   UNL     1     -32.718 100.788  13.525  0.00  0.00    +0.000 C 
ATOM     18  C   UNL     1     -33.893 100.537  14.256  0.00  0.00    +0.000 A 
ATOM     19  C   UNL     1     -35.202 100.016  15.960  0.00  0.00    +0.000 A 
ATOM     20  C   UNL     1     -35.954 100.386  14.853  0.00  0.00    +0.000 A 
ENDROOT
BRANCH   8  21
ATOM     21  O   UNL     1     -28.515 103.853  19.191  0.00  0.00    +0.000 OA
ATOM     22  H   UNL     1     -27.632 104.258  19.214  0.00  0.00    +0.000 HD
ENDBRANCH   8  21
BRANCH   8  23
ATOM     23  C   UNL     1     -28.445 104.596  16.953  0.00  0.00    +0.000 C 
BRANCH  23  24
ATOM     24  O   UNL     1     -28.192 105.635  16.156  0.00  0.00    +0.000 OA
ATOM     25  H   UNL     1     -27.238 105.710  15.975  0.00  0.00    +0.000 HD
ENDBRANCH  23  24
ENDBRANCH   8  23
TORSDOF 3
ENDMDL
MODEL 4
REMARK VINA RESULT:      -5.4     15.364     17.079
REMARK  Name = 114778_Kahweol.pdbqt.pdb
REMARK  3 active torsions:
REMARK  status: ('A' for Active; 'I' for Inactive)
REMARK    1  A    between atoms: C_8  and  O_21
REMARK    2  A    between atoms: C_8  and  C_23
REMARK    3  A    between atoms: C_23  and  O_24
REMARK                            x       y       z     vdW  Elec       q    Type
REMARK                         _______ _______ _______ _____ _____    ______ ____
ROOT
ATOM      1  O   UNL     1     -39.690 102.845  15.304  0.00  0.00    +0.000 OA
ATOM      2  C   UNL     1     -34.238  99.781  15.635  0.00  0.00    +0.000 C 
ATOM      3  C   UNL     1     -34.803 100.695  14.462  0.00  0.00    +0.000 C 
ATOM      4  C   UNL     1     -31.963  99.940  14.907  0.00  0.00    +0.000 C 
ATOM      5  C   UNL     1     -33.097  99.014  15.065  0.00  0.00    +0.000 C 
ATOM      6  C   UNL     1     -33.430 100.629  16.539  0.00  0.00    +0.000 C 
ATOM      7  C   UNL     1     -36.269 100.633  14.018  0.00  0.00    +0.000 C 
ATOM      8  C   UNL     1     -31.976 100.713  16.292  0.00  0.00    +0.000 C 
ATOM      9  C   UNL     1     -35.329  99.070  16.250  0.00  0.00    +0.000 C 
ATOM     10  C   UNL     1     -33.739 101.180  13.598  0.00  0.00    +0.000 C 
ATOM     11  C   UNL     1     -32.268 100.774  13.754  0.00  0.00    +0.000 C 
ATOM     12  C   UNL     1     -37.323 100.101  15.135  0.00  0.00    +0.000 C 
ATOM     13  C   UNL     1     -36.810  99.182  16.080  0.00  0.00    +0.000 C 
ATOM     14  C   UNL     1     -36.394  99.663  12.799  0.00  0.00    +0.000 C 
ATOM     15  C   UNL     1     -36.730 102.005  13.666  0.00  0.00    +0.000 C 
ATOM     16  C   UNL     1     -38.453 100.946  15.446  0.00  0.00    +0.000 A 
ATOM     17  C   UNL     1     -37.663 102.699  13.956  0.00  0.00    +0.000 C 
ATOM     18  C   UNL     1     -38.604 102.190  14.870  0.00  0.00    +0.000 A 
ATOM     19  C   UNL     1     -39.549 100.817  16.323  0.00  0.00    +0.000 A 
ATOM     20  C   UNL     1     -40.283 101.989  16.199  0.00  0.00    +0.000 A 
ENDROOT
BRANCH   8  21
ATOM     21  O   UNL     1     -31.289  99.962  17.277  0.00  0.00    +0.000 OA
ATOM     22  H   UNL     1     -30.857  99.233  16.803  0.00  0.00    +0.000 HD
ENDBRANCH   8  21
BRANCH   8  23
ATOM     23  C   UNL     1     -31.422 102.071  16.229  0.00  0.00    +0.000 C 
BRANCH  23  24
ATOM     24  O   UNL     1     -30.936 103.311  16.165  0.00  0.00    +0.000 OA
ATOM     25  H   UNL     1     -30.665 103.532  15.256  0.00  0.00    +0.000 HD
ENDBRANCH  23  24
ENDBRANCH   8  23
TORSDOF 3
ENDMDL
MODEL 5
REMARK VINA RESULT:      -5.2      2.539      4.059
REMARK  Name = 114778_Kahweol.pdbqt.pdb
REMARK  3 active torsions:
REMARK  status: ('A' for Active; 'I' for Inactive)
REMARK    1  A    between atoms: C_8  and  O_21
REMARK    2  A    between atoms: C_8  and  C_23
REMARK    3  A    between atoms: C_23  and  O_24
REMARK                            x       y       z     vdW  Elec       q    Type
REMARK                         _______ _______ _______ _____ _____    ______ ____
ROOT
ATOM      1  O   UNL     1     -23.727 107.647   0.916  0.00  0.00    +0.000 OA
ATOM      2  C   UNL     1     -23.279 101.669   2.725  0.00  0.00    +0.000 C 
ATOM      3  C   UNL     1     -22.256 102.864   2.958  0.00  0.00    +0.000 C 
ATOM      4  C   UNL     1     -22.377 100.315   4.481  0.00  0.00    +0.000 C 
ATOM      5  C   UNL     1     -22.539 100.412   3.021  0.00  0.00    +0.000 C 
ATOM      6  C   UNL     1     -24.190 101.600   3.888  0.00  0.00    +0.000 C 
ATOM      7  C   UNL     1     -21.937 103.886   1.861  0.00  0.00    +0.000 C 
ATOM      8  C   UNL     1     -23.828 100.694   4.997  0.00  0.00    +0.000 C 
ATOM      9  C   UNL     1     -23.911 101.829   1.441  0.00  0.00    +0.000 C 
ATOM     10  C   UNL     1     -21.356 102.594   4.068  0.00  0.00    +0.000 C 
ATOM     11  C   UNL     1     -21.343 101.272   4.847  0.00  0.00    +0.000 C 
ATOM     12  C   UNL     1     -23.081 104.083   0.724  0.00  0.00    +0.000 C 
ATOM     13  C   UNL     1     -23.881 102.950   0.451  0.00  0.00    +0.000 C 
ATOM     14  C   UNL     1     -20.642 103.440   1.108  0.00  0.00    +0.000 C 
ATOM     15  C   UNL     1     -21.764 105.229   2.481  0.00  0.00    +0.000 C 
ATOM     16  C   UNL     1     -23.571 105.423   0.492  0.00  0.00    +0.000 A 
ATOM     17  C   UNL     1     -22.202 106.328   2.286  0.00  0.00    +0.000 C 
ATOM     18  C   UNL     1     -23.137 106.491   1.249  0.00  0.00    +0.000 A 
ATOM     19  C   UNL     1     -24.522 105.968  -0.394  0.00  0.00    +0.000 A 
ATOM     20  C   UNL     1     -24.579 107.326  -0.112  0.00  0.00    +0.000 A 
ENDROOT
BRANCH   8  21
ATOM     21  O   UNL     1     -24.671  99.555   4.966  0.00  0.00    +0.000 OA
ATOM     22  H   UNL     1     -25.442  99.781   5.512  0.00  0.00    +0.000 HD
ENDBRANCH   8  21
BRANCH   8  23
ATOM     23  C   UNL     1     -23.853 101.292   6.337  0.00  0.00    +0.000 C 
BRANCH  23  24
ATOM     24  O   UNL     1     -23.879 101.853   7.547  0.00  0.00    +0.000 OA
ATOM     25  H   UNL     1     -23.882 101.173   8.245  0.00  0.00    +0.000 HD
ENDBRANCH  23  24
ENDBRANCH   8  23
TORSDOF 3
ENDMDL
MODEL 6
REMARK VINA RESULT:      -5.2      1.755      2.405
REMARK  Name = 114778_Kahweol.pdbqt.pdb
REMARK  3 active torsions:
REMARK  status: ('A' for Active; 'I' for Inactive)
REMARK    1  A    between atoms: C_8  and  O_21
REMARK    2  A    between atoms: C_8  and  C_23
REMARK    3  A    between atoms: C_23  and  O_24
REMARK                            x       y       z     vdW  Elec       q    Type
REMARK                         _______ _______ _______ _____ _____    ______ ____
ROOT
ATOM      1  O   UNL     1     -23.872 103.243  -0.786  0.00  0.00    +0.000 OA
ATOM      2  C   UNL     1     -23.369 104.725   5.278  0.00  0.00    +0.000 C 
ATOM      3  C   UNL     1     -23.233 103.301   4.581  0.00  0.00    +0.000 C 
ATOM      4  C   UNL     1     -22.221 104.060   7.270  0.00  0.00    +0.000 C 
ATOM      5  C   UNL     1     -23.530 104.470   6.735  0.00  0.00    +0.000 C 
ATOM      6  C   UNL     1     -22.023 105.332   5.365  0.00  0.00    +0.000 C 
ATOM      7  C   UNL     1     -24.174 102.853   3.457  0.00  0.00    +0.000 C 
ATOM      8  C   UNL     1     -21.247 105.119   6.604  0.00  0.00    +0.000 C 
ATOM      9  C   UNL     1     -24.364 105.500   4.583  0.00  0.00    +0.000 C 
ATOM     10  C   UNL     1     -22.498 102.363   5.414  0.00  0.00    +0.000 C 
ATOM     11  C   UNL     1     -22.006 102.690   6.829  0.00  0.00    +0.000 C 
ATOM     12  C   UNL     1     -24.876 104.047   2.606  0.00  0.00    +0.000 C 
ATOM     13  C   UNL     1     -25.103 105.254   3.306  0.00  0.00    +0.000 C 
ATOM     14  C   UNL     1     -25.338 102.009   4.071  0.00  0.00    +0.000 C 
ATOM     15  C   UNL     1     -23.402 102.062   2.460  0.00  0.00    +0.000 C 
ATOM     16  C   UNL     1     -24.714 104.030   1.170  0.00  0.00    +0.000 A 
ATOM     17  C   UNL     1     -23.262 102.082   1.269  0.00  0.00    +0.000 C 
ATOM     18  C   UNL     1     -23.937 103.079   0.543  0.00  0.00    +0.000 A 
ATOM     19  C   UNL     1     -25.173 104.865   0.132  0.00  0.00    +0.000 A 
ATOM     20  C   UNL     1     -24.648 104.345  -1.044  0.00  0.00    +0.000 A 
ENDROOT
BRANCH   8  21
ATOM     21  O   UNL     1     -21.235 106.317   7.361  0.00  0.00    +0.000 OA
ATOM     22  H   UNL     1     -20.703 106.126   8.152  0.00  0.00    +0.000 HD
ENDBRANCH   8  21
BRANCH   8  23
ATOM     23  C   UNL     1     -19.873 104.639   6.415  0.00  0.00    +0.000 C 
BRANCH  23  24
ATOM     24  O   UNL     1     -18.631 104.189   6.234  0.00  0.00    +0.000 OA
ATOM     25  H   UNL     1     -18.234 104.574   5.433  0.00  0.00    +0.000 HD
ENDBRANCH  23  24
ENDBRANCH   8  23
TORSDOF 3
ENDMDL
MODEL 7
REMARK VINA RESULT:      -5.1      2.054      6.323
REMARK  Name = 114778_Kahweol.pdbqt.pdb
REMARK  3 active torsions:
REMARK  status: ('A' for Active; 'I' for Inactive)
REMARK    1  A    between atoms: C_8  and  O_21
REMARK    2  A    between atoms: C_8  and  C_23
REMARK    3  A    between atoms: C_23  and  O_24
REMARK                            x       y       z     vdW  Elec       q    Type
REMARK                         _______ _______ _______ _____ _____    ______ ____
ROOT
ATOM      1  O   UNL     1     -22.486 102.224   6.978  0.00  0.00    +0.000 OA
ATOM      2  C   UNL     1     -23.402 103.232   0.865  0.00  0.00    +0.000 C 
ATOM      3  C   UNL     1     -23.545 104.249   2.080  0.00  0.00    +0.000 C 
ATOM      4  C   UNL     1     -23.215 104.952  -0.789  0.00  0.00    +0.000 C 
ATOM      5  C   UNL     1     -24.079 103.864  -0.300  0.00  0.00    +0.000 C 
ATOM      6  C   UNL     1     -22.027 103.333   0.331  0.00  0.00    +0.000 C 
ATOM      7  C   UNL     1     -24.189 103.842   3.410  0.00  0.00    +0.000 C 
ATOM      8  C   UNL     1     -21.788 104.262  -0.793  0.00  0.00    +0.000 C 
ATOM      9  C   UNL     1     -23.814 101.920   1.294  0.00  0.00    +0.000 C 
ATOM     10  C   UNL     1     -23.463 105.632   1.636  0.00  0.00    +0.000 C 
ATOM     11  C   UNL     1     -23.349 106.045   0.163  0.00  0.00    +0.000 C 
ATOM     12  C   UNL     1     -24.152 102.254   3.755  0.00  0.00    +0.000 C 
ATOM     13  C   UNL     1     -24.163 101.380   2.644  0.00  0.00    +0.000 C 
ATOM     14  C   UNL     1     -25.697 104.252   3.395  0.00  0.00    +0.000 C 
ATOM     15  C   UNL     1     -23.461 104.504   4.527  0.00  0.00    +0.000 C 
ATOM     16  C   UNL     1     -23.571 101.857   5.018  0.00  0.00    +0.000 A 
ATOM     17  C   UNL     1     -22.964 104.149   5.559  0.00  0.00    +0.000 C 
ATOM     18  C   UNL     1     -23.007 102.779   5.874  0.00  0.00    +0.000 A 
ATOM     19  C   UNL     1     -23.381 100.611   5.649  0.00  0.00    +0.000 A 
ATOM     20  C   UNL     1     -22.727 100.879   6.845  0.00  0.00    +0.000 A 
ENDROOT
BRANCH   8  21
ATOM     21  O   UNL     1     -21.607 103.518  -1.985  0.00  0.00    +0.000 OA
ATOM     22  H   UNL     1     -20.651 103.365  -2.061  0.00  0.00    +0.000 HD
ENDBRANCH   8  21
BRANCH   8  23
ATOM     23  C   UNL     1     -20.667 105.194  -0.617  0.00  0.00    +0.000 C 
BRANCH  23  24
ATOM     24  O   UNL     1     -19.638 106.028  -0.463  0.00  0.00    +0.000 OA
ATOM     25  H   UNL     1     -19.121 105.800   0.330  0.00  0.00    +0.000 HD
ENDBRANCH  23  24
ENDBRANCH   8  23
TORSDOF 3
ENDMDL
MODEL 8
REMARK VINA RESULT:      -5.0      1.702      2.668
REMARK  Name = 114778_Kahweol.pdbqt.pdb
REMARK  3 active torsions:
REMARK  status: ('A' for Active; 'I' for Inactive)
REMARK    1  A    between atoms: C_8  and  O_21
REMARK    2  A    between atoms: C_8  and  C_23
REMARK    3  A    between atoms: C_23  and  O_24
REMARK                            x       y       z     vdW  Elec       q    Type
REMARK                         _______ _______ _______ _____ _____    ______ ____
ROOT
ATOM      1  O   UNL     1     -22.555 106.440  -0.721  0.00  0.00    +0.000 OA
ATOM      2  C   UNL     1     -23.903 102.897   4.263  0.00  0.00    +0.000 C 
ATOM      3  C   UNL     1     -22.896 102.600   3.068  0.00  0.00    +0.000 C 
ATOM      4  C   UNL     1     -22.905 101.298   5.739  0.00  0.00    +0.000 C 
ATOM      5  C   UNL     1     -24.120 101.603   4.966  0.00  0.00    +0.000 C 
ATOM      6  C   UNL     1     -23.151 103.552   5.356  0.00  0.00    +0.000 C 
ATOM      7  C   UNL     1     -23.244 102.929   1.612  0.00  0.00    +0.000 C 
ATOM      8  C   UNL     1     -22.590 102.695   6.420  0.00  0.00    +0.000 C 
ATOM      9  C   UNL     1     -25.038 103.624   3.758  0.00  0.00    +0.000 C 
ATOM     10  C   UNL     1     -21.905 101.601   3.434  0.00  0.00    +0.000 C 
ATOM     11  C   UNL     1     -21.902 100.862   4.778  0.00  0.00    +0.000 C 
ATOM     12  C   UNL     1     -24.347 104.103   1.397  0.00  0.00    +0.000 C 
ATOM     13  C   UNL     1     -25.309 104.242   2.424  0.00  0.00    +0.000 C 
ATOM     14  C   UNL     1     -23.825 101.650   0.925  0.00  0.00    +0.000 C 
ATOM     15  C   UNL     1     -22.020 103.408   0.913  0.00  0.00    +0.000 C 
ATOM     16  C   UNL     1     -23.982 105.218   0.553  0.00  0.00    +0.000 A 
ATOM     17  C   UNL     1     -21.732 104.353   0.235  0.00  0.00    +0.000 C 
ATOM     18  C   UNL     1     -22.723 105.323   0.001  0.00  0.00    +0.000 A 
ATOM     19  C   UNL     1     -24.659 106.382   0.136  0.00  0.00    +0.000 A 
ATOM     20  C   UNL     1     -23.760 107.093  -0.647  0.00  0.00    +0.000 A 
ENDROOT
BRANCH   8  21
ATOM     21  O   UNL     1     -23.360 102.849   7.600  0.00  0.00    +0.000 OA
ATOM     22  H   UNL     1     -22.726 103.056   8.306  0.00  0.00    +0.000 HD
ENDBRANCH   8  21
BRANCH   8  23
ATOM     23  C   UNL     1     -21.170 102.912   6.724  0.00  0.00    +0.000 C 
BRANCH  23  24
ATOM     24  O   UNL     1     -19.882 103.097   7.015  0.00  0.00    +0.000 OA
ATOM     25  H   UNL     1     -19.531 103.879   6.554  0.00  0.00    +0.000 HD
ENDBRANCH  23  24
ENDBRANCH   8  23
TORSDOF 3
ENDMDL
MODEL 9
REMARK VINA RESULT:      -4.8      2.064      6.651
REMARK  Name = 114778_Kahweol.pdbqt.pdb
REMARK  3 active torsions:
REMARK  status: ('A' for Active; 'I' for Inactive)
REMARK    1  A    between atoms: C_8  and  O_21
REMARK    2  A    between atoms: C_8  and  C_23
REMARK    3  A    between atoms: C_23  and  O_24
REMARK                            x       y       z     vdW  Elec       q    Type
REMARK                         _______ _______ _______ _____ _____    ______ ____
ROOT
ATOM      1  O   UNL     1     -19.297  99.819   4.127  0.00  0.00    +0.000 OA
ATOM      2  C   UNL     1     -23.787 103.043   1.186  0.00  0.00    +0.000 C 
ATOM      3  C   UNL     1     -22.539 103.588   2.008  0.00  0.00    +0.000 C 
ATOM      4  C   UNL     1     -24.142 105.101   0.015  0.00  0.00    +0.000 C 
ATOM      5  C   UNL     1     -24.719 104.191   1.019  0.00  0.00    +0.000 C 
ATOM      6  C   UNL     1     -23.399 102.940  -0.238  0.00  0.00    +0.000 C 
ATOM      7  C   UNL     1     -22.093 102.947   3.327  0.00  0.00    +0.000 C 
ATOM      8  C   UNL     1     -23.685 104.091  -1.118  0.00  0.00    +0.000 C 
ATOM      9  C   UNL     1     -24.265 101.830   1.796  0.00  0.00    +0.000 C 
ATOM     10  C   UNL     1     -22.217 104.961   1.652  0.00  0.00    +0.000 C 
ATOM     11  C   UNL     1     -23.048 105.800   0.672  0.00  0.00    +0.000 C 
ATOM     12  C   UNL     1     -22.512 101.390   3.533  0.00  0.00    +0.000 C 
ATOM     13  C   UNL     1     -23.704 100.982   2.893  0.00  0.00    +0.000 C 
ATOM     14  C   UNL     1     -22.729 103.733   4.519  0.00  0.00    +0.000 C 
ATOM     15  C   UNL     1     -20.606 102.966   3.400  0.00  0.00    +0.000 C 
ATOM     16  C   UNL     1     -21.458 100.447   3.830  0.00  0.00    +0.000 A 
ATOM     17  C   UNL     1     -19.746 102.162   3.627  0.00  0.00    +0.000 C 
ATOM     18  C   UNL     1     -20.135 100.833   3.874  0.00  0.00    +0.000 A 
ATOM     19  C   UNL     1     -21.439  99.060   4.078  0.00  0.00    +0.000 A 
ATOM     20  C   UNL     1     -20.106  98.718   4.265  0.00  0.00    +0.000 A 
ENDROOT
BRANCH   8  21
ATOM     21  O   UNL     1     -24.777 103.775  -1.963  0.00  0.00    +0.000 OA
ATOM     22  H   UNL     1     -24.433 103.145  -2.618  0.00  0.00    +0.000 HD
ENDBRANCH   8  21
BRANCH   8  23
ATOM     23  C   UNL     1     -22.555 104.565  -1.927  0.00  0.00    +0.000 C 
BRANCH  23  24
ATOM     24  O   UNL     1     -21.540 105.004  -2.673  0.00  0.00    +0.000 OA
ATOM     25  H   UNL     1     -20.907 105.511  -2.135  0.00  0.00    +0.000 HD
ENDBRANCH  23  24
ENDBRANCH   8  23
TORSDOF 3
ENDMDL
