MODEL 1
REMARK VINA RESULT:      -3.7      0.000      0.000
REMARK  Name = 1174_Uracil.pdbqt.pdb
REMARK  0 active torsions:
REMARK  status: ('A' for Active; 'I' for Inactive)
REMARK                            x       y       z     vdW  Elec       q    Type
REMARK                         _______ _______ _______ _____ _____    ______ ____
ROOT
ATOM      1  O   UNL     1     -38.558 101.857  12.000  0.00  0.00    +0.000 OA
ATOM      2  O   UNL     1     -35.167  99.451  14.046  0.00  0.00    +0.000 OA
ATOM      3  N   UNL     1     -36.820 100.693  12.983  0.00  0.00    +0.000 N 
ATOM      4  N   UNL     1     -39.039 100.258  13.597  0.00  0.00    +0.000 N 
ATOM      5  C   UNL     1     -38.173 101.008  12.793  0.00  0.00    +0.000 A 
ATOM      6  C   UNL     1     -36.343  99.734  13.874  0.00  0.00    +0.000 A 
ATOM      7  C   UNL     1     -38.563  99.337  14.451  0.00  0.00    +0.000 A 
ATOM      8  C   UNL     1     -37.407  99.086  14.596  0.00  0.00    +0.000 A 
ATOM      9  H   UNL     1     -36.143 101.198  12.433  0.00  0.00    +0.000 HD
ATOM     10  H   UNL     1     -40.034 100.426  13.519  0.00  0.00    +0.000 HD
ENDROOT
TORSDOF 0
ENDMDL
MODEL 2
REMARK VINA RESULT:      -3.6      2.030      2.612
REMARK  Name = 1174_Uracil.pdbqt.pdb
REMARK  0 active torsions:
REMARK  status: ('A' for Active; 'I' for Inactive)
REMARK                            x       y       z     vdW  Elec       q    Type
REMARK                         _______ _______ _______ _____ _____    ______ ____
ROOT
ATOM      1  O   UNL     1     -38.539  99.237  13.583  0.00  0.00    +0.000 OA
ATOM      2  O   UNL     1     -34.902 101.787  12.265  0.00  0.00    +0.000 OA
ATOM      3  N   UNL     1     -36.766 100.543  12.881  0.00  0.00    +0.000 N 
ATOM      4  N   UNL     1     -36.463  98.924  14.548  0.00  0.00    +0.000 N 
ATOM      5  C   UNL     1     -37.356  99.541  13.665  0.00  0.00    +0.000 A 
ATOM      6  C   UNL     1     -35.426 100.917  12.944  0.00  0.00    +0.000 A 
ATOM      7  C   UNL     1     -35.173  99.296  14.597  0.00  0.00    +0.000 A 
ATOM      8  C   UNL     1     -34.693 100.152  13.920  0.00  0.00    +0.000 A 
ATOM      9  H   UNL     1     -37.357 101.027  12.224  0.00  0.00    +0.000 HD
ATOM     10  H   UNL     1     -36.813  98.189  15.150  0.00  0.00    +0.000 HD
ENDROOT
TORSDOF 0
ENDMDL
MODEL 3
REMARK VINA RESULT:      -3.5      2.055      2.879
REMARK  Name = 1174_Uracil.pdbqt.pdb
REMARK  0 active torsions:
REMARK  status: ('A' for Active; 'I' for Inactive)
REMARK                            x       y       z     vdW  Elec       q    Type
REMARK                         _______ _______ _______ _____ _____    ______ ____
ROOT
ATOM      1  O   UNL     1     -34.875 101.611  12.063  0.00  0.00    +0.000 OA
ATOM      2  O   UNL     1     -38.387  99.115  13.768  0.00  0.00    +0.000 OA
ATOM      3  N   UNL     1     -36.668 100.391  12.862  0.00  0.00    +0.000 N 
ATOM      4  N   UNL     1     -34.587 100.288  13.935  0.00  0.00    +0.000 N 
ATOM      5  C   UNL     1     -35.336 100.829  12.885  0.00  0.00    +0.000 A 
ATOM      6  C   UNL     1     -37.229  99.502  13.778  0.00  0.00    +0.000 A 
ATOM      7  C   UNL     1     -35.143  99.433  14.810  0.00  0.00    +0.000 A 
ATOM      8  C   UNL     1     -36.279  99.073  14.771  0.00  0.00    +0.000 A 
ATOM      9  H   UNL     1     -37.262 100.744  12.130  0.00  0.00    +0.000 HD
ATOM     10  H   UNL     1     -33.615 100.556  14.020  0.00  0.00    +0.000 HD
ENDROOT
TORSDOF 0
ENDMDL
MODEL 4
REMARK VINA RESULT:      -3.5      2.249      3.342
REMARK  Name = 1174_Uracil.pdbqt.pdb
REMARK  0 active torsions:
REMARK  status: ('A' for Active; 'I' for Inactive)
REMARK                            x       y       z     vdW  Elec       q    Type
REMARK                         _______ _______ _______ _____ _____    ______ ____
ROOT
ATOM      1  O   UNL     1     -34.661  98.911  15.797  0.00  0.00    +0.000 OA
ATOM      2  O   UNL     1     -34.884 101.666  12.077  0.00  0.00    +0.000 OA
ATOM      3  N   UNL     1     -34.708 100.309  13.956  0.00  0.00    +0.000 N 
ATOM      4  N   UNL     1     -36.522  98.903  14.428  0.00  0.00    +0.000 N 
ATOM      5  C   UNL     1     -35.249  99.337  14.811  0.00  0.00    +0.000 A 
ATOM      6  C   UNL     1     -35.345 100.819  12.826  0.00  0.00    +0.000 A 
ATOM      7  C   UNL     1     -37.123  99.404  13.335  0.00  0.00    +0.000 A 
ATOM      8  C   UNL     1     -36.644 100.231  12.623  0.00  0.00    +0.000 A 
ATOM      9  H   UNL     1     -33.792 100.665  14.177  0.00  0.00    +0.000 HD
ATOM     10  H   UNL     1     -36.981  98.200  14.994  0.00  0.00    +0.000 HD
ENDROOT
TORSDOF 0
ENDMDL
MODEL 5
REMARK VINA RESULT:      -3.5     19.531     20.037
REMARK  Name = 1174_Uracil.pdbqt.pdb
REMARK  0 active torsions:
REMARK  status: ('A' for Active; 'I' for Inactive)
REMARK                            x       y       z     vdW  Elec       q    Type
REMARK                         _______ _______ _______ _____ _____    ______ ____
ROOT
ATOM      1  O   UNL     1     -44.440  81.045   6.475  0.00  0.00    +0.000 OA
ATOM      2  O   UNL     1     -45.155  85.180   4.508  0.00  0.00    +0.000 OA
ATOM      3  N   UNL     1     -44.765  83.084   5.436  0.00  0.00    +0.000 N 
ATOM      4  N   UNL     1     -45.542  82.724   7.617  0.00  0.00    +0.000 N 
ATOM      5  C   UNL     1     -44.879  82.187   6.509  0.00  0.00    +0.000 A 
ATOM      6  C   UNL     1     -45.250  84.390   5.436  0.00  0.00    +0.000 A 
ATOM      7  C   UNL     1     -46.004  83.986   7.601  0.00  0.00    +0.000 A 
ATOM      8  C   UNL     1     -45.895  84.731   6.677  0.00  0.00    +0.000 A 
ATOM      9  H   UNL     1     -44.297  82.759   4.606  0.00  0.00    +0.000 HD
ATOM     10  H   UNL     1     -45.665  82.138   8.434  0.00  0.00    +0.000 HD
ENDROOT
TORSDOF 0
ENDMDL
MODEL 6
REMARK VINA RESULT:      -3.4     24.074     24.812
REMARK  Name = 1174_Uracil.pdbqt.pdb
REMARK  0 active torsions:
REMARK  status: ('A' for Active; 'I' for Inactive)
REMARK                            x       y       z     vdW  Elec       q    Type
REMARK                         _______ _______ _______ _____ _____    ______ ____
ROOT
ATOM      1  O   UNL     1     -26.591  87.448  -3.684  0.00  0.00    +0.000 OA
ATOM      2  O   UNL     1     -24.915  91.671  -4.596  0.00  0.00    +0.000 OA
ATOM      3  N   UNL     1     -25.808  89.582  -4.102  0.00  0.00    +0.000 N 
ATOM      4  N   UNL     1     -24.669  87.713  -4.939  0.00  0.00    +0.000 N 
ATOM      5  C   UNL     1     -25.759  88.184  -4.199  0.00  0.00    +0.000 A 
ATOM      6  C   UNL     1     -24.881  90.452  -4.673  0.00  0.00    +0.000 A 
ATOM      7  C   UNL     1     -23.784  88.565  -5.483  0.00  0.00    +0.000 A 
ATOM      8  C   UNL     1     -23.846  89.752  -5.387  0.00  0.00    +0.000 A 
ATOM      9  H   UNL     1     -26.570  89.986  -3.582  0.00  0.00    +0.000 HD
ATOM     10  H   UNL     1     -24.563  86.713  -5.055  0.00  0.00    +0.000 HD
ENDROOT
TORSDOF 0
ENDMDL
MODEL 7
REMARK VINA RESULT:      -3.2     16.340     17.273
REMARK  Name = 1174_Uracil.pdbqt.pdb
REMARK  0 active torsions:
REMARK  status: ('A' for Active; 'I' for Inactive)
REMARK                            x       y       z     vdW  Elec       q    Type
REMARK                         _______ _______ _______ _____ _____    ______ ____
ROOT
ATOM      1  O   UNL     1     -28.363  87.060  13.530  0.00  0.00    +0.000 OA
ATOM      2  O   UNL     1     -27.106  83.979  10.306  0.00  0.00    +0.000 OA
ATOM      3  N   UNL     1     -27.683  85.503  11.964  0.00  0.00    +0.000 N 
ATOM      4  N   UNL     1     -29.548  86.863  11.556  0.00  0.00    +0.000 N 
ATOM      5  C   UNL     1     -28.520  86.522  12.442  0.00  0.00    +0.000 A 
ATOM      6  C   UNL     1     -27.828  84.866  10.732  0.00  0.00    +0.000 A 
ATOM      7  C   UNL     1     -29.674  86.240  10.372  0.00  0.00    +0.000 A 
ATOM      8  C   UNL     1     -28.950  85.375   9.986  0.00  0.00    +0.000 A 
ATOM      9  H   UNL     1     -26.922  85.210  12.555  0.00  0.00    +0.000 HD
ATOM     10  H   UNL     1     -30.195  87.592  11.828  0.00  0.00    +0.000 HD
ENDROOT
TORSDOF 0
ENDMDL
MODEL 8
REMARK VINA RESULT:      -3.2      1.673      2.620
REMARK  Name = 1174_Uracil.pdbqt.pdb
REMARK  0 active torsions:
REMARK  status: ('A' for Active; 'I' for Inactive)
REMARK                            x       y       z     vdW  Elec       q    Type
REMARK                         _______ _______ _______ _____ _____    ______ ____
ROOT
ATOM      1  O   UNL     1     -37.389  98.882  16.147  0.00  0.00    +0.000 OA
ATOM      2  O   UNL     1     -35.868 100.426  12.051  0.00  0.00    +0.000 OA
ATOM      3  N   UNL     1     -36.565  99.634  14.122  0.00  0.00    +0.000 N 
ATOM      4  N   UNL     1     -38.855  99.775  14.600  0.00  0.00    +0.000 N 
ATOM      5  C   UNL     1     -37.588  99.388  15.050  0.00  0.00    +0.000 A 
ATOM      6  C   UNL     1     -36.751 100.206  12.866  0.00  0.00    +0.000 A 
ATOM      7  C   UNL     1     -39.017 100.326  13.386  0.00  0.00    +0.000 A 
ATOM      8  C   UNL     1     -38.132 100.526  12.613  0.00  0.00    +0.000 A 
ATOM      9  H   UNL     1     -35.628  99.377  14.386  0.00  0.00    +0.000 HD
ATOM     10  H   UNL     1     -39.648  99.630  15.213  0.00  0.00    +0.000 HD
ENDROOT
TORSDOF 0
ENDMDL
MODEL 9
REMARK VINA RESULT:      -3.2     19.879     20.270
REMARK  Name = 1174_Uracil.pdbqt.pdb
REMARK  0 active torsions:
REMARK  status: ('A' for Active; 'I' for Inactive)
REMARK                            x       y       z     vdW  Elec       q    Type
REMARK                         _______ _______ _______ _____ _____    ______ ____
ROOT
ATOM      1  O   UNL     1     -43.899  82.673   3.942  0.00  0.00    +0.000 OA
ATOM      2  O   UNL     1     -45.533  81.630   8.152  0.00  0.00    +0.000 OA
ATOM      3  N   UNL     1     -44.688  82.088   6.035  0.00  0.00    +0.000 N 
ATOM      4  N   UNL     1     -45.023  84.252   5.200  0.00  0.00    +0.000 N 
ATOM      5  C   UNL     1     -44.487  82.980   4.971  0.00  0.00    +0.000 A 
ATOM      6  C   UNL     1     -45.351  82.399   7.220  0.00  0.00    +0.000 A 
ATOM      7  C   UNL     1     -45.659  84.536   6.349  0.00  0.00    +0.000 A 
ATOM      8  C   UNL     1     -45.819  83.761   7.240  0.00  0.00    +0.000 A 
ATOM      9  H   UNL     1     -44.326  81.154   5.933  0.00  0.00    +0.000 HD
ATOM     10  H   UNL     1     -44.919  84.955   4.479  0.00  0.00    +0.000 HD
ENDROOT
TORSDOF 0
ENDMDL
