MODEL 1
REMARK VINA RESULT:      -5.8      0.000      0.000
REMARK  Name = 122178712_SalternamideA.pdbqt.pdb
REMARK  8 active torsions:
REMARK  status: ('A' for Active; 'I' for Inactive)
REMARK    1  A    between atoms: C_3  and  O_24
REMARK    2  A    between atoms: C_3  and  C_26
REMARK    3  A    between atoms: C_6  and  N_10
REMARK    4  A    between atoms: C_11  and  C_14
REMARK    5  A    between atoms: C_13  and  C_15
REMARK    6  A    between atoms: C_27  and  C_28
REMARK    7  A    between atoms: C_29  and  C_31
REMARK    8  A    between atoms: C_31  and  O_32
REMARK                            x       y       z     vdW  Elec       q    Type
REMARK                         _______ _______ _______ _____ _____    ______ ____
ROOT
ATOM      1 CL   UNL     1     -23.094 103.417   7.208  0.00  0.00    +0.000 Cl
ATOM      2  O   UNL     1     -21.259 100.860   7.406  0.00  0.00    +0.000 OA
ATOM      3  C   UNL     1     -24.098 100.904   4.166  0.00  0.00    +0.000 C 
ATOM      4  C   UNL     1     -23.062  99.927   4.539  0.00  0.00    +0.000 C 
ATOM      5  C   UNL     1     -23.872 101.879   5.245  0.00  0.00    +0.000 C 
ATOM      6  C   UNL     1     -22.158  99.764   5.463  0.00  0.00    +0.000 C 
ATOM      7  C   UNL     1     -23.090 102.001   6.278  0.00  0.00    +0.000 C 
ATOM      8  C   UNL     1     -22.082 100.891   6.500  0.00  0.00    +0.000 C 
ENDROOT
BRANCH   6  10
ATOM      9  O   UNL     1     -19.862  99.088   3.784  0.00  0.00    +0.000 OA
ATOM     10  N   UNL     1     -21.292  98.708   5.572  0.00  0.00    +0.000 N 
ATOM     11  C   UNL     1     -20.224  98.437   4.753  0.00  0.00    +0.000 C 
ATOM     12  H   UNL     1     -21.481  98.072   6.345  0.00  0.00    +0.000 HD
BRANCH  11  14
ATOM     13  C   UNL     1     -18.843  96.275   5.399  0.00  0.00    +0.000 C 
ATOM     14  C   UNL     1     -19.477  97.253   5.106  0.00  0.00    +0.000 C 
BRANCH  13  15
ATOM     15  C   UNL     1     -18.091  95.127   5.749  0.00  0.00    +0.000 C 
ATOM     16  C   UNL     1     -18.018  94.000   4.758  0.00  0.00    +0.000 C 
ATOM     17  C   UNL     1     -17.443  94.937   6.985  0.00  0.00    +0.000 C 
ATOM     18  C   UNL     1     -16.787  94.734   8.216  0.00  0.00    +0.000 C 
ATOM     19  C   UNL     1     -16.506  95.943   9.059  0.00  0.00    +0.000 C 
ATOM     20  C   UNL     1     -16.401  93.480   8.718  0.00  0.00    +0.000 C 
ATOM     21  C   UNL     1     -16.052  92.330   9.184  0.00  0.00    +0.000 C 
ATOM     22  C   UNL     1     -14.713  91.765   8.823  0.00  0.00    +0.000 C 
ATOM     23  C   UNL     1     -17.095  91.438   9.783  0.00  0.00    +0.000 C 
ENDBRANCH  13  15
ENDBRANCH  11  14
ENDBRANCH   6  10
BRANCH   3  24
ATOM     24  O   UNL     1     -25.373 100.317   4.329  0.00  0.00    +0.000 OA
ATOM     25  H   UNL     1     -25.842 100.873   4.975  0.00  0.00    +0.000 HD
ENDBRANCH   3  24
BRANCH   3  26
ATOM     26  C   UNL     1     -23.955 101.451   2.823  0.00  0.00    +0.000 C 
ATOM     27  C   UNL     1     -23.810 102.030   1.413  0.00  0.00    +0.000 C 
BRANCH  27  28
ATOM     28  C   UNL     1     -23.667 102.613   0.004  0.00  0.00    +0.000 C 
ATOM     29  C   UNL     1     -23.525 103.192  -1.407  0.00  0.00    +0.000 C 
BRANCH  29  31
ATOM     30  O   UNL     1     -23.963 103.276  -3.701  0.00  0.00    +0.000 OA
ATOM     31  C   UNL     1     -23.393 103.734  -2.725  0.00  0.00    +0.000 C 
BRANCH  31  32
ATOM     32  O   UNL     1     -22.579 104.801  -2.799  0.00  0.00    +0.000 OA
ATOM     33  H   UNL     1     -22.308 104.821  -3.740  0.00  0.00    +0.000 HD
ENDBRANCH  31  32
ENDBRANCH  29  31
ENDBRANCH  27  28
ENDBRANCH   3  26
TORSDOF 8
ENDMDL
MODEL 2
REMARK VINA RESULT:      -5.7     28.692     32.582
REMARK  Name = 122178712_SalternamideA.pdbqt.pdb
REMARK  8 active torsions:
REMARK  status: ('A' for Active; 'I' for Inactive)
REMARK    1  A    between atoms: C_3  and  O_24
REMARK    2  A    between atoms: C_3  and  C_26
REMARK    3  A    between atoms: C_6  and  N_10
REMARK    4  A    between atoms: C_11  and  C_14
REMARK    5  A    between atoms: C_13  and  C_15
REMARK    6  A    between atoms: C_27  and  C_28
REMARK    7  A    between atoms: C_29  and  C_31
REMARK    8  A    between atoms: C_31  and  O_32
REMARK                            x       y       z     vdW  Elec       q    Type
REMARK                         _______ _______ _______ _____ _____    ______ ____
ROOT
ATOM      1 CL   UNL     1     -57.282  92.706   5.070  0.00  0.00    +0.000 Cl
ATOM      2  O   UNL     1     -54.988  94.572   3.974  0.00  0.00    +0.000 OA
ATOM      3  C   UNL     1     -54.114  92.436   7.612  0.00  0.00    +0.000 C 
ATOM      4  C   UNL     1     -53.290  93.338   6.790  0.00  0.00    +0.000 C 
ATOM      5  C   UNL     1     -55.346  92.479   6.807  0.00  0.00    +0.000 C 
ATOM      6  C   UNL     1     -53.402  94.049   5.705  0.00  0.00    +0.000 C 
ATOM      7  C   UNL     1     -55.764  93.070   5.726  0.00  0.00    +0.000 C 
ATOM      8  C   UNL     1     -54.768  93.963   5.013  0.00  0.00    +0.000 C 
ENDROOT
BRANCH   6  10
ATOM      9  O   UNL     1     -51.257  93.287   3.870  0.00  0.00    +0.000 OA
ATOM     10  N   UNL     1     -52.428  94.834   5.145  0.00  0.00    +0.000 N 
ATOM     11  C   UNL     1     -51.441  94.422   4.285  0.00  0.00    +0.000 C 
ATOM     12  H   UNL     1     -52.458  95.816   5.411  0.00  0.00    +0.000 HD
BRANCH  11  14
ATOM     13  C   UNL     1     -49.800  96.331   3.471  0.00  0.00    +0.000 C 
ATOM     14  C   UNL     1     -50.548  95.469   3.846  0.00  0.00    +0.000 C 
BRANCH  13  15
ATOM     15  C   UNL     1     -48.919  97.345   3.021  0.00  0.00    +0.000 C 
ATOM     16  C   UNL     1     -48.107  97.080   1.784  0.00  0.00    +0.000 C 
ATOM     17  C   UNL     1     -48.705  98.573   3.678  0.00  0.00    +0.000 C 
ATOM     18  C   UNL     1     -48.483  99.807   4.322  0.00  0.00    +0.000 C 
ATOM     19  C   UNL     1     -49.518 100.271   5.305  0.00  0.00    +0.000 C 
ATOM     20  C   UNL     1     -47.354 100.618   4.128  0.00  0.00    +0.000 C 
ATOM     21  C   UNL     1     -46.314 101.360   3.955  0.00  0.00    +0.000 C 
ATOM     22  C   UNL     1     -46.311 102.378   2.857  0.00  0.00    +0.000 C 
ATOM     23  C   UNL     1     -45.025 100.975   4.612  0.00  0.00    +0.000 C 
ENDBRANCH  13  15
ENDBRANCH  11  14
ENDBRANCH   6  10
BRANCH   3  24
ATOM     24  O   UNL     1     -54.357  93.038   8.866  0.00  0.00    +0.000 OA
ATOM     25  H   UNL     1     -55.057  93.696   8.716  0.00  0.00    +0.000 HD
ENDBRANCH   3  24
BRANCH   3  26
ATOM     26  C   UNL     1     -53.557  91.100   7.784  0.00  0.00    +0.000 C 
ATOM     27  C   UNL     1     -52.973  89.695   7.960  0.00  0.00    +0.000 C 
BRANCH  27  28
ATOM     28  C   UNL     1     -52.391  88.289   8.132  0.00  0.00    +0.000 C 
ATOM     29  C   UNL     1     -51.807  86.884   8.307  0.00  0.00    +0.000 C 
BRANCH  29  31
ATOM     30  O   UNL     1     -51.945  84.569   8.588  0.00  0.00    +0.000 OA
ATOM     31  C   UNL     1     -51.262  85.571   8.471  0.00  0.00    +0.000 C 
BRANCH  31  32
ATOM     32  O   UNL     1     -49.918  85.534   8.486  0.00  0.00    +0.000 OA
ATOM     33  H   UNL     1     -49.684  85.245   7.580  0.00  0.00    +0.000 HD
ENDBRANCH  31  32
ENDBRANCH  29  31
ENDBRANCH  27  28
ENDBRANCH   3  26
TORSDOF 8
ENDMDL
MODEL 3
REMARK VINA RESULT:      -5.7     14.370     17.008
REMARK  Name = 122178712_SalternamideA.pdbqt.pdb
REMARK  8 active torsions:
REMARK  status: ('A' for Active; 'I' for Inactive)
REMARK    1  A    between atoms: C_3  and  O_24
REMARK    2  A    between atoms: C_3  and  C_26
REMARK    3  A    between atoms: C_6  and  N_10
REMARK    4  A    between atoms: C_11  and  C_14
REMARK    5  A    between atoms: C_13  and  C_15
REMARK    6  A    between atoms: C_27  and  C_28
REMARK    7  A    between atoms: C_29  and  C_31
REMARK    8  A    between atoms: C_31  and  O_32
REMARK                            x       y       z     vdW  Elec       q    Type
REMARK                         _______ _______ _______ _____ _____    ______ ____
ROOT
ATOM      1 CL   UNL     1     -18.325  89.179  -4.439  0.00  0.00    +0.000 Cl
ATOM      2  O   UNL     1     -21.222  88.053  -4.967  0.00  0.00    +0.000 OA
ATOM      3  C   UNL     1     -20.784  92.332  -5.203  0.00  0.00    +0.000 C 
ATOM      4  C   UNL     1     -21.945  91.458  -5.437  0.00  0.00    +0.000 C 
ATOM      5  C   UNL     1     -19.799  91.293  -4.862  0.00  0.00    +0.000 C 
ATOM      6  C   UNL     1     -22.239  90.190  -5.399  0.00  0.00    +0.000 C 
ATOM      7  C   UNL     1     -19.778  89.999  -4.734  0.00  0.00    +0.000 C 
ATOM      8  C   UNL     1     -21.075  89.268  -5.017  0.00  0.00    +0.000 C 
ENDROOT
BRANCH   6  10
ATOM      9  O   UNL     1     -24.908  91.227  -4.808  0.00  0.00    +0.000 OA
ATOM     10  N   UNL     1     -23.460  89.632  -5.673  0.00  0.00    +0.000 N 
ATOM     11  C   UNL     1     -24.689  90.165  -5.372  0.00  0.00    +0.000 C 
ATOM     12  H   UNL     1     -23.428  88.730  -6.145  0.00  0.00    +0.000 HD
BRANCH  11  14
ATOM     13  C   UNL     1     -26.754  88.687  -6.112  0.00  0.00    +0.000 C 
ATOM     14  C   UNL     1     -25.814  89.359  -5.783  0.00  0.00    +0.000 C 
BRANCH  13  15
ATOM     15  C   UNL     1     -27.868  87.899  -6.494  0.00  0.00    +0.000 C 
ATOM     16  C   UNL     1     -27.990  86.518  -5.914  0.00  0.00    +0.000 C 
ATOM     17  C   UNL     1     -28.850  88.293  -7.424  0.00  0.00    +0.000 C 
ATOM     18  C   UNL     1     -29.841  88.675  -8.350  0.00  0.00    +0.000 C 
ATOM     19  C   UNL     1     -29.981  90.139  -8.651  0.00  0.00    +0.000 C 
ATOM     20  C   UNL     1     -30.689  87.783  -9.027  0.00  0.00    +0.000 C 
ATOM     21  C   UNL     1     -31.463  86.964  -9.654  0.00  0.00    +0.000 C 
ATOM     22  C   UNL     1     -32.759  86.552  -9.028  0.00  0.00    +0.000 C 
ATOM     23  C   UNL     1     -30.918  86.185 -10.811  0.00  0.00    +0.000 C 
ENDBRANCH  13  15
ENDBRANCH  11  14
ENDBRANCH   6  10
BRANCH   3  24
ATOM     24  O   UNL     1     -21.024  93.136  -4.067  0.00  0.00    +0.000 OA
ATOM     25  H   UNL     1     -20.823  94.048  -4.338  0.00  0.00    +0.000 HD
ENDBRANCH   3  24
BRANCH   3  26
ATOM     26  C   UNL     1     -20.413  93.159  -6.345  0.00  0.00    +0.000 C 
ATOM     27  C   UNL     1     -20.020  94.031  -7.541  0.00  0.00    +0.000 C 
BRANCH  27  28
ATOM     28  C   UNL     1     -19.626  94.906  -8.734  0.00  0.00    +0.000 C 
ATOM     29  C   UNL     1     -19.234  95.780  -9.929  0.00  0.00    +0.000 C 
BRANCH  29  31
ATOM     30  O   UNL     1     -17.860  96.421 -11.707  0.00  0.00    +0.000 OA
ATOM     31  C   UNL     1     -18.868  96.598 -11.046  0.00  0.00    +0.000 C 
BRANCH  31  32
ATOM     32  O   UNL     1     -19.739  97.588 -11.307  0.00  0.00    +0.000 OA
ATOM     33  H   UNL     1     -19.288  98.118 -11.996  0.00  0.00    +0.000 HD
ENDBRANCH  31  32
ENDBRANCH  29  31
ENDBRANCH  27  28
ENDBRANCH   3  26
TORSDOF 8
ENDMDL
MODEL 4
REMARK VINA RESULT:      -5.6     30.539     34.264
REMARK  Name = 122178712_SalternamideA.pdbqt.pdb
REMARK  8 active torsions:
REMARK  status: ('A' for Active; 'I' for Inactive)
REMARK    1  A    between atoms: C_3  and  O_24
REMARK    2  A    between atoms: C_3  and  C_26
REMARK    3  A    between atoms: C_6  and  N_10
REMARK    4  A    between atoms: C_11  and  C_14
REMARK    5  A    between atoms: C_13  and  C_15
REMARK    6  A    between atoms: C_27  and  C_28
REMARK    7  A    between atoms: C_29  and  C_31
REMARK    8  A    between atoms: C_31  and  O_32
REMARK                            x       y       z     vdW  Elec       q    Type
REMARK                         _______ _______ _______ _____ _____    ______ ____
ROOT
ATOM      1 CL   UNL     1     -55.247  84.686   5.732  0.00  0.00    +0.000 Cl
ATOM      2  O   UNL     1     -55.245  87.833   5.543  0.00  0.00    +0.000 OA
ATOM      3  C   UNL     1     -52.450  86.103   8.328  0.00  0.00    +0.000 C 
ATOM      4  C   UNL     1     -52.695  87.501   7.935  0.00  0.00    +0.000 C 
ATOM      5  C   UNL     1     -53.459  85.460   7.471  0.00  0.00    +0.000 C 
ATOM      6  C   UNL     1     -53.482  88.172   7.143  0.00  0.00    +0.000 C 
ATOM      7  C   UNL     1     -54.364  85.832   6.613  0.00  0.00    +0.000 C 
ATOM      8  C   UNL     1     -54.467  87.318   6.336  0.00  0.00    +0.000 C 
ENDROOT
BRANCH   6  10
ATOM      9  O   UNL     1     -53.513  90.279   9.169  0.00  0.00    +0.000 OA
ATOM     10  N   UNL     1     -53.493  89.531   6.972  0.00  0.00    +0.000 N 
ATOM     11  C   UNL     1     -53.506  90.481   7.963  0.00  0.00    +0.000 C 
ATOM     12  H   UNL     1     -53.492  89.845   6.003  0.00  0.00    +0.000 HD
BRANCH  11  14
ATOM     13  C   UNL     1     -53.517  92.977   7.088  0.00  0.00    +0.000 C 
ATOM     14  C   UNL     1     -53.511  91.846   7.493  0.00  0.00    +0.000 C 
BRANCH  13  15
ATOM     15  C   UNL     1     -53.529  94.308   6.606  0.00  0.00    +0.000 C 
ATOM     16  C   UNL     1     -54.595  95.237   7.116  0.00  0.00    +0.000 C 
ATOM     17  C   UNL     1     -52.643  94.820   5.637  0.00  0.00    +0.000 C 
ATOM     18  C   UNL     1     -51.761  95.347   4.672  0.00  0.00    +0.000 C 
ATOM     19  C   UNL     1     -50.478  94.608   4.429  0.00  0.00    +0.000 C 
ATOM     20  C   UNL     1     -52.010  96.498   3.907  0.00  0.00    +0.000 C 
ATOM     21  C   UNL     1     -52.239  97.551   3.199  0.00  0.00    +0.000 C 
ATOM     22  C   UNL     1     -51.841  98.894   3.727  0.00  0.00    +0.000 C 
ATOM     23  C   UNL     1     -53.186  97.461   2.043  0.00  0.00    +0.000 C 
ENDBRANCH  13  15
ENDBRANCH  11  14
ENDBRANCH   6  10
BRANCH   3  24
ATOM     24  O   UNL     1     -52.811  85.928   9.682  0.00  0.00    +0.000 OA
ATOM     25  H   UNL     1     -52.038  85.527  10.115  0.00  0.00    +0.000 HD
ENDBRANCH   3  24
BRANCH   3  26
ATOM     26  C   UNL     1     -51.087  85.643   8.099  0.00  0.00    +0.000 C 
ATOM     27  C   UNL     1     -49.656  85.155   7.854  0.00  0.00    +0.000 C 
BRANCH  27  28
ATOM     28  C   UNL     1     -48.226  84.665   7.605  0.00  0.00    +0.000 C 
ATOM     29  C   UNL     1     -46.798  84.174   7.353  0.00  0.00    +0.000 C 
BRANCH  29  31
ATOM     30  O   UNL     1     -44.864  83.895   6.071  0.00  0.00    +0.000 OA
ATOM     31  C   UNL     1     -45.462  83.716   7.118  0.00  0.00    +0.000 C 
BRANCH  31  32
ATOM     32  O   UNL     1     -44.916  83.065   8.160  0.00  0.00    +0.000 OA
ATOM     33  H   UNL     1     -44.350  83.742   8.584  0.00  0.00    +0.000 HD
ENDBRANCH  31  32
ENDBRANCH  29  31
ENDBRANCH  27  28
ENDBRANCH   3  26
TORSDOF 8
ENDMDL
MODEL 5
REMARK VINA RESULT:      -5.3     15.377     19.437
REMARK  Name = 122178712_SalternamideA.pdbqt.pdb
REMARK  8 active torsions:
REMARK  status: ('A' for Active; 'I' for Inactive)
REMARK    1  A    between atoms: C_3  and  O_24
REMARK    2  A    between atoms: C_3  and  C_26
REMARK    3  A    between atoms: C_6  and  N_10
REMARK    4  A    between atoms: C_11  and  C_14
REMARK    5  A    between atoms: C_13  and  C_15
REMARK    6  A    between atoms: C_27  and  C_28
REMARK    7  A    between atoms: C_29  and  C_31
REMARK    8  A    between atoms: C_31  and  O_32
REMARK                            x       y       z     vdW  Elec       q    Type
REMARK                         _______ _______ _______ _____ _____    ______ ____
ROOT
ATOM      1 CL   UNL     1     -20.153  86.513  -4.155  0.00  0.00    +0.000 Cl
ATOM      2  O   UNL     1     -23.029  86.718  -5.431  0.00  0.00    +0.000 OA
ATOM      3  C   UNL     1     -22.767  84.600  -1.688  0.00  0.00    +0.000 C 
ATOM      4  C   UNL     1     -23.922  84.939  -2.537  0.00  0.00    +0.000 C 
ATOM      5  C   UNL     1     -21.710  85.212  -2.511  0.00  0.00    +0.000 C 
ATOM      6  C   UNL     1     -24.163  85.544  -3.664  0.00  0.00    +0.000 C 
ATOM      7  C   UNL     1     -21.626  85.854  -3.639  0.00  0.00    +0.000 C 
ATOM      8  C   UNL     1     -22.927  86.111  -4.373  0.00  0.00    +0.000 C 
ENDROOT
BRANCH   6  10
ATOM      9  O   UNL     1     -25.976  87.830  -3.479  0.00  0.00    +0.000 OA
ATOM     10  N   UNL     1     -25.393  85.717  -4.244  0.00  0.00    +0.000 N 
ATOM     11  C   UNL     1     -26.206  86.817  -4.124  0.00  0.00    +0.000 C 
ATOM     12  H   UNL     1     -25.716  84.939  -4.815  0.00  0.00    +0.000 HD
BRANCH  11  14
ATOM     13  C   UNL     1     -28.490  86.670  -5.450  0.00  0.00    +0.000 C 
ATOM     14  C   UNL     1     -27.451  86.730  -4.851  0.00  0.00    +0.000 C 
BRANCH  13  15
ATOM     15  C   UNL     1     -29.716  86.607  -6.157  0.00  0.00    +0.000 C 
ATOM     16  C   UNL     1     -30.749  85.618  -5.697  0.00  0.00    +0.000 C 
ATOM     17  C   UNL     1     -30.024  87.371  -7.300  0.00  0.00    +0.000 C 
ATOM     18  C   UNL     1     -30.347  88.131  -8.443  0.00  0.00    +0.000 C 
ATOM     19  C   UNL     1     -29.541  89.370  -8.702  0.00  0.00    +0.000 C 
ATOM     20  C   UNL     1     -31.351  87.797  -9.366  0.00  0.00    +0.000 C 
ATOM     21  C   UNL     1     -32.269  87.489 -10.218  0.00  0.00    +0.000 C 
ATOM     22  C   UNL     1     -33.673  87.958  -9.989  0.00  0.00    +0.000 C 
ATOM     23  C   UNL     1     -32.003  86.407 -11.218  0.00  0.00    +0.000 C 
ENDBRANCH  13  15
ENDBRANCH  11  14
ENDBRANCH   6  10
BRANCH   3  24
ATOM     24  O   UNL     1     -22.592  83.199  -1.675  0.00  0.00    +0.000 OA
ATOM     25  H   UNL     1     -23.385  82.835  -1.244  0.00  0.00    +0.000 HD
ENDBRANCH   3  24
BRANCH   3  26
ATOM     26  C   UNL     1     -22.845  85.119  -0.329  0.00  0.00    +0.000 C 
ATOM     27  C   UNL     1     -22.922  85.663   1.101  0.00  0.00    +0.000 C 
BRANCH  27  28
ATOM     28  C   UNL     1     -22.994  86.206   2.531  0.00  0.00    +0.000 C 
ATOM     29  C   UNL     1     -23.066  86.753   3.960  0.00  0.00    +0.000 C 
BRANCH  29  31
ATOM     30  O   UNL     1     -23.471  86.592   6.256  0.00  0.00    +0.000 OA
ATOM     31  C   UNL     1     -23.135  87.263   5.295  0.00  0.00    +0.000 C 
BRANCH  31  32
ATOM     32  O   UNL     1     -22.794  88.560   5.403  0.00  0.00    +0.000 OA
ATOM     33  H   UNL     1     -23.645  89.008   5.585  0.00  0.00    +0.000 HD
ENDBRANCH  31  32
ENDBRANCH  29  31
ENDBRANCH  27  28
ENDBRANCH   3  26
TORSDOF 8
ENDMDL
MODEL 6
REMARK VINA RESULT:      -5.2     31.064     34.796
REMARK  Name = 122178712_SalternamideA.pdbqt.pdb
REMARK  8 active torsions:
REMARK  status: ('A' for Active; 'I' for Inactive)
REMARK    1  A    between atoms: C_3  and  O_24
REMARK    2  A    between atoms: C_3  and  C_26
REMARK    3  A    between atoms: C_6  and  N_10
REMARK    4  A    between atoms: C_11  and  C_14
REMARK    5  A    between atoms: C_13  and  C_15
REMARK    6  A    between atoms: C_27  and  C_28
REMARK    7  A    between atoms: C_29  and  C_31
REMARK    8  A    between atoms: C_31  and  O_32
REMARK                            x       y       z     vdW  Elec       q    Type
REMARK                         _______ _______ _______ _____ _____    ______ ____
ROOT
ATOM      1 CL   UNL     1     -55.385  84.713   5.697  0.00  0.00    +0.000 Cl
ATOM      2  O   UNL     1     -55.365  87.858   5.477  0.00  0.00    +0.000 OA
ATOM      3  C   UNL     1     -52.587  86.140   8.287  0.00  0.00    +0.000 C 
ATOM      4  C   UNL     1     -52.823  87.536   7.880  0.00  0.00    +0.000 C 
ATOM      5  C   UNL     1     -53.597  85.494   7.433  0.00  0.00    +0.000 C 
ATOM      6  C   UNL     1     -53.605  88.203   7.079  0.00  0.00    +0.000 C 
ATOM      7  C   UNL     1     -54.498  85.862   6.569  0.00  0.00    +0.000 C 
ATOM      8  C   UNL     1     -54.593  87.347   6.278  0.00  0.00    +0.000 C 
ENDROOT
BRANCH   6  10
ATOM      9  O   UNL     1     -53.123  90.324   9.033  0.00  0.00    +0.000 OA
ATOM     10  N   UNL     1     -53.608  89.561   6.895  0.00  0.00    +0.000 N 
ATOM     11  C   UNL     1     -53.373  90.516   7.852  0.00  0.00    +0.000 C 
ATOM     12  H   UNL     1     -53.809  89.868   5.945  0.00  0.00    +0.000 HD
BRANCH  11  14
ATOM     13  C   UNL     1     -53.498  93.013   6.986  0.00  0.00    +0.000 C 
ATOM     14  C   UNL     1     -53.436  91.878   7.374  0.00  0.00    +0.000 C 
BRANCH  13  15
ATOM     15  C   UNL     1     -53.572  94.354   6.536  0.00  0.00    +0.000 C 
ATOM     16  C   UNL     1     -52.939  94.694   5.216  0.00  0.00    +0.000 C 
ATOM     17  C   UNL     1     -54.152  95.414   7.261  0.00  0.00    +0.000 C 
ATOM     18  C   UNL     1     -54.732  96.483   7.973  0.00  0.00    +0.000 C 
ATOM     19  C   UNL     1     -55.691  96.142   9.075  0.00  0.00    +0.000 C 
ATOM     20  C   UNL     1     -54.458  97.841   7.739  0.00  0.00    +0.000 C 
ATOM     21  C   UNL     1     -54.202  99.087   7.530  0.00  0.00    +0.000 C 
ATOM     22  C   UNL     1     -55.001  99.842   6.514  0.00  0.00    +0.000 C 
ATOM     23  C   UNL     1     -52.917  99.663   8.039  0.00  0.00    +0.000 C 
ENDBRANCH  13  15
ENDBRANCH  11  14
ENDBRANCH   6  10
BRANCH   3  24
ATOM     24  O   UNL     1     -52.952  85.980   9.641  0.00  0.00    +0.000 OA
ATOM     25  H   UNL     1     -52.129  86.066  10.152  0.00  0.00    +0.000 HD
ENDBRANCH   3  24
BRANCH   3  26
ATOM     26  C   UNL     1     -51.225  85.670   8.065  0.00  0.00    +0.000 C 
ATOM     27  C   UNL     1     -49.794  85.179   7.827  0.00  0.00    +0.000 C 
BRANCH  27  28
ATOM     28  C   UNL     1     -48.363  84.691   7.586  0.00  0.00    +0.000 C 
ATOM     29  C   UNL     1     -46.931  84.203   7.347  0.00  0.00    +0.000 C 
BRANCH  29  31
ATOM     30  O   UNL     1     -45.002  83.884   6.068  0.00  0.00    +0.000 OA
ATOM     31  C   UNL     1     -45.593  83.747   7.125  0.00  0.00    +0.000 C 
BRANCH  31  32
ATOM     32  O   UNL     1     -45.035  83.146   8.191  0.00  0.00    +0.000 OA
ATOM     33  H   UNL     1     -45.295  83.720   8.941  0.00  0.00    +0.000 HD
ENDBRANCH  31  32
ENDBRANCH  29  31
ENDBRANCH  27  28
ENDBRANCH   3  26
TORSDOF 8
ENDMDL
MODEL 7
REMARK VINA RESULT:      -5.2     27.177     29.265
REMARK  Name = 122178712_SalternamideA.pdbqt.pdb
REMARK  8 active torsions:
REMARK  status: ('A' for Active; 'I' for Inactive)
REMARK    1  A    between atoms: C_3  and  O_24
REMARK    2  A    between atoms: C_3  and  C_26
REMARK    3  A    between atoms: C_6  and  N_10
REMARK    4  A    between atoms: C_11  and  C_14
REMARK    5  A    between atoms: C_13  and  C_15
REMARK    6  A    between atoms: C_27  and  C_28
REMARK    7  A    between atoms: C_29  and  C_31
REMARK    8  A    between atoms: C_31  and  O_32
REMARK                            x       y       z     vdW  Elec       q    Type
REMARK                         _______ _______ _______ _____ _____    ______ ____
ROOT
ATOM      1 CL   UNL     1     -41.341  78.020  -0.658  0.00  0.00    +0.000 Cl
ATOM      2  O   UNL     1     -43.552  79.200   1.254  0.00  0.00    +0.000 OA
ATOM      3  C   UNL     1     -39.595  80.844   1.698  0.00  0.00    +0.000 C 
ATOM      4  C   UNL     1     -40.867  81.174   2.362  0.00  0.00    +0.000 C 
ATOM      5  C   UNL     1     -40.085  79.768   0.820  0.00  0.00    +0.000 C 
ATOM      6  C   UNL     1     -42.108  80.779   2.351  0.00  0.00    +0.000 C 
ATOM      7  C   UNL     1     -41.211  79.162   0.586  0.00  0.00    +0.000 C 
ATOM      8  C   UNL     1     -42.417  79.643   1.370  0.00  0.00    +0.000 C 
ENDROOT
BRANCH   6  10
ATOM      9  O   UNL     1     -41.957  82.305   4.841  0.00  0.00    +0.000 OA
ATOM     10  N   UNL     1     -43.127  81.288   3.113  0.00  0.00    +0.000 N 
ATOM     11  C   UNL     1     -42.999  82.001   4.279  0.00  0.00    +0.000 C 
ATOM     12  H   UNL     1     -44.064  81.104   2.761  0.00  0.00    +0.000 HD
BRANCH  11  14
ATOM     13  C   UNL     1     -45.292  82.767   5.352  0.00  0.00    +0.000 C 
ATOM     14  C   UNL     1     -44.248  82.419   4.872  0.00  0.00    +0.000 C 
BRANCH  13  15
ATOM     15  C   UNL     1     -46.528  83.174   5.913  0.00  0.00    +0.000 C 
ATOM     16  C   UNL     1     -46.523  83.727   7.310  0.00  0.00    +0.000 C 
ATOM     17  C   UNL     1     -47.779  83.051   5.277  0.00  0.00    +0.000 C 
ATOM     18  C   UNL     1     -49.036  82.937   4.651  0.00  0.00    +0.000 C 
ATOM     19  C   UNL     1     -49.055  82.764   3.160  0.00  0.00    +0.000 C 
ATOM     20  C   UNL     1     -50.268  82.949   5.325  0.00  0.00    +0.000 C 
ATOM     21  C   UNL     1     -51.400  82.953   5.944  0.00  0.00    +0.000 C 
ATOM     22  C   UNL     1     -52.087  84.256   6.211  0.00  0.00    +0.000 C 
ATOM     23  C   UNL     1     -51.837  81.721   6.673  0.00  0.00    +0.000 C 
ENDBRANCH  13  15
ENDBRANCH  11  14
ENDBRANCH   6  10
BRANCH   3  24
ATOM     24  O   UNL     1     -38.700  80.300   2.646  0.00  0.00    +0.000 OA
ATOM     25  H   UNL     1     -37.844  80.732   2.483  0.00  0.00    +0.000 HD
ENDBRANCH   3  24
BRANCH   3  26
ATOM     26  C   UNL     1     -38.976  81.959   0.992  0.00  0.00    +0.000 C 
ATOM     27  C   UNL     1     -38.329  83.134   0.253  0.00  0.00    +0.000 C 
BRANCH  27  28
ATOM     28  C   UNL     1     -37.685  84.312  -0.483  0.00  0.00    +0.000 C 
ATOM     29  C   UNL     1     -37.041  85.492  -1.217  0.00  0.00    +0.000 C 
BRANCH  29  31
ATOM     30  O   UNL     1     -35.794  86.478  -2.929  0.00  0.00    +0.000 OA
ATOM     31  C   UNL     1     -36.439  86.595  -1.902  0.00  0.00    +0.000 C 
BRANCH  31  32
ATOM     32  O   UNL     1     -36.646  87.785  -1.311  0.00  0.00    +0.000 OA
ATOM     33  H   UNL     1     -36.054  88.392  -1.800  0.00  0.00    +0.000 HD
ENDBRANCH  31  32
ENDBRANCH  29  31
ENDBRANCH  27  28
ENDBRANCH   3  26
TORSDOF 8
ENDMDL
MODEL 8
REMARK VINA RESULT:      -5.1     29.255     32.067
REMARK  Name = 122178712_SalternamideA.pdbqt.pdb
REMARK  8 active torsions:
REMARK  status: ('A' for Active; 'I' for Inactive)
REMARK    1  A    between atoms: C_3  and  O_24
REMARK    2  A    between atoms: C_3  and  C_26
REMARK    3  A    between atoms: C_6  and  N_10
REMARK    4  A    between atoms: C_11  and  C_14
REMARK    5  A    between atoms: C_13  and  C_15
REMARK    6  A    between atoms: C_27  and  C_28
REMARK    7  A    between atoms: C_29  and  C_31
REMARK    8  A    between atoms: C_31  and  O_32
REMARK                            x       y       z     vdW  Elec       q    Type
REMARK                         _______ _______ _______ _____ _____    ______ ____
ROOT
ATOM      1 CL   UNL     1     -54.760  96.196  -0.725  0.00  0.00    +0.000 Cl
ATOM      2  O   UNL     1     -54.990  94.276   1.765  0.00  0.00    +0.000 OA
ATOM      3  C   UNL     1     -51.015  94.918   0.232  0.00  0.00    +0.000 C 
ATOM      4  C   UNL     1     -51.500  94.147   1.389  0.00  0.00    +0.000 C 
ATOM      5  C   UNL     1     -52.313  95.415  -0.253  0.00  0.00    +0.000 C 
ATOM      6  C   UNL     1     -52.631  93.852   1.964  0.00  0.00    +0.000 C 
ATOM      7  C   UNL     1     -53.566  95.302   0.078  0.00  0.00    +0.000 C 
ATOM      8  C   UNL     1     -53.872  94.465   1.304  0.00  0.00    +0.000 C 
ENDROOT
BRANCH   6  10
ATOM      9  O   UNL     1     -52.493  94.622   4.781  0.00  0.00    +0.000 OA
ATOM     10  N   UNL     1     -52.794  93.072   3.079  0.00  0.00    +0.000 N 
ATOM     11  C   UNL     1     -52.720  93.488   4.386  0.00  0.00    +0.000 C 
ATOM     12  H   UNL     1     -52.988  92.090   2.896  0.00  0.00    +0.000 HD
BRANCH  11  14
ATOM     13  C   UNL     1     -53.111  91.589   6.185  0.00  0.00    +0.000 C 
ATOM     14  C   UNL     1     -52.939  92.449   5.364  0.00  0.00    +0.000 C 
BRANCH  13  15
ATOM     15  C   UNL     1     -53.313  90.581   7.160  0.00  0.00    +0.000 C 
ATOM     16  C   UNL     1     -53.261  90.976   8.608  0.00  0.00    +0.000 C 
ATOM     17  C   UNL     1     -53.509  89.215   6.874  0.00  0.00    +0.000 C 
ATOM     18  C   UNL     1     -53.709  87.847   6.604  0.00  0.00    +0.000 C 
ATOM     19  C   UNL     1     -54.148  87.471   5.219  0.00  0.00    +0.000 C 
ATOM     20  C   UNL     1     -53.504  86.811   7.530  0.00  0.00    +0.000 C 
ATOM     21  C   UNL     1     -53.310  85.859   8.377  0.00  0.00    +0.000 C 
ATOM     22  C   UNL     1     -54.426  85.442   9.284  0.00  0.00    +0.000 C 
ATOM     23  C   UNL     1     -51.909  85.423   8.678  0.00  0.00    +0.000 C 
ENDBRANCH  13  15
ENDBRANCH  11  14
ENDBRANCH   6  10
BRANCH   3  24
ATOM     24  O   UNL     1     -50.470  94.033  -0.724  0.00  0.00    +0.000 OA
ATOM     25  H   UNL     1     -49.859  93.455  -0.235  0.00  0.00    +0.000 HD
ENDBRANCH   3  24
BRANCH   3  26
ATOM     26  C   UNL     1     -50.058  95.965   0.565  0.00  0.00    +0.000 C 
ATOM     27  C   UNL     1     -49.047  97.061   0.914  0.00  0.00    +0.000 C 
BRANCH  27  28
ATOM     28  C   UNL     1     -48.033  98.155   1.262  0.00  0.00    +0.000 C 
ATOM     29  C   UNL     1     -47.021  99.249   1.613  0.00  0.00    +0.000 C 
BRANCH  29  31
ATOM     30  O   UNL     1     -45.183 100.629   1.190  0.00  0.00    +0.000 OA
ATOM     31  C   UNL     1     -46.073 100.271   1.941  0.00  0.00    +0.000 C 
BRANCH  31  32
ATOM     32  O   UNL     1     -46.250 100.808   3.161  0.00  0.00    +0.000 OA
ATOM     33  H   UNL     1     -45.666 100.272   3.736  0.00  0.00    +0.000 HD
ENDBRANCH  31  32
ENDBRANCH  29  31
ENDBRANCH  27  28
ENDBRANCH   3  26
TORSDOF 8
ENDMDL
MODEL 9
REMARK VINA RESULT:      -5.0     20.187     22.228
REMARK  Name = 122178712_SalternamideA.pdbqt.pdb
REMARK  8 active torsions:
REMARK  status: ('A' for Active; 'I' for Inactive)
REMARK    1  A    between atoms: C_3  and  O_24
REMARK    2  A    between atoms: C_3  and  C_26
REMARK    3  A    between atoms: C_6  and  N_10
REMARK    4  A    between atoms: C_11  and  C_14
REMARK    5  A    between atoms: C_13  and  C_15
REMARK    6  A    between atoms: C_27  and  C_28
REMARK    7  A    between atoms: C_29  and  C_31
REMARK    8  A    between atoms: C_31  and  O_32
REMARK                            x       y       z     vdW  Elec       q    Type
REMARK                         _______ _______ _______ _____ _____    ______ ____
ROOT
ATOM      1 CL   UNL     1     -38.886  87.014  -5.341  0.00  0.00    +0.000 Cl
ATOM      2  O   UNL     1     -35.837  86.684  -6.071  0.00  0.00    +0.000 OA
ATOM      3  C   UNL     1     -36.833  86.311  -1.896  0.00  0.00    +0.000 C 
ATOM      4  C   UNL     1     -35.553  86.168  -2.608  0.00  0.00    +0.000 C 
ATOM      5  C   UNL     1     -37.688  86.622  -3.054  0.00  0.00    +0.000 C 
ATOM      6  C   UNL     1     -35.094  86.256  -3.824  0.00  0.00    +0.000 C 
ATOM      7  C   UNL     1     -37.542  86.783  -4.336  0.00  0.00    +0.000 C 
ATOM      8  C   UNL     1     -36.143  86.594  -4.889  0.00  0.00    +0.000 C 
ENDROOT
BRANCH   6  10
ATOM      9  O   UNL     1     -33.683  83.754  -4.371  0.00  0.00    +0.000 OA
ATOM     10  N   UNL     1     -33.794  86.067  -4.215  0.00  0.00    +0.000 N 
ATOM     11  C   UNL     1     -33.180  84.864  -4.461  0.00  0.00    +0.000 C 
ATOM     12  H   UNL     1     -33.247  86.920  -4.327  0.00  0.00    +0.000 HD
BRANCH  11  14
ATOM     13  C   UNL     1     -30.647  85.059  -5.200  0.00  0.00    +0.000 C 
ATOM     14  C   UNL     1     -31.797  84.963  -4.865  0.00  0.00    +0.000 C 
BRANCH  13  15
ATOM     15  C   UNL     1     -29.290  85.178  -5.588  0.00  0.00    +0.000 C 
ATOM     16  C   UNL     1     -28.338  84.090  -5.176  0.00  0.00    +0.000 C 
ATOM     17  C   UNL     1     -28.748  86.272  -6.292  0.00  0.00    +0.000 C 
ATOM     18  C   UNL     1     -28.193  87.357  -6.998  0.00  0.00    +0.000 C 
ATOM     19  C   UNL     1     -29.136  88.250  -7.750  0.00  0.00    +0.000 C 
ATOM     20  C   UNL     1     -26.825  87.676  -7.028  0.00  0.00    +0.000 C 
ATOM     21  C   UNL     1     -25.571  87.973  -7.051  0.00  0.00    +0.000 C 
ATOM     22  C   UNL     1     -24.686  87.351  -8.087  0.00  0.00    +0.000 C 
ATOM     23  C   UNL     1     -24.959  88.648  -5.863  0.00  0.00    +0.000 C 
ENDBRANCH  13  15
ENDBRANCH  11  14
ENDBRANCH   6  10
BRANCH   3  24
ATOM     24  O   UNL     1     -36.773  87.437  -1.047  0.00  0.00    +0.000 OA
ATOM     25  H   UNL     1     -36.408  88.159  -1.587  0.00  0.00    +0.000 HD
ENDBRANCH   3  24
BRANCH   3  26
ATOM     26  C   UNL     1     -37.243  85.128  -1.149  0.00  0.00    +0.000 C 
ATOM     27  C   UNL     1     -37.667  83.884  -0.363  0.00  0.00    +0.000 C 
BRANCH  27  28
ATOM     28  C   UNL     1     -38.088  82.639   0.423  0.00  0.00    +0.000 C 
ATOM     29  C   UNL     1     -38.510  81.396   1.212  0.00  0.00    +0.000 C 
BRANCH  29  31
ATOM     30  O   UNL     1     -39.803  79.489   1.599  0.00  0.00    +0.000 OA
ATOM     31  C   UNL     1     -38.905  80.235   1.949  0.00  0.00    +0.000 C 
BRANCH  31  32
ATOM     32  O   UNL     1     -38.195  80.032   3.073  0.00  0.00    +0.000 OA
ATOM     33  H   UNL     1     -38.038  80.937   3.413  0.00  0.00    +0.000 HD
ENDBRANCH  31  32
ENDBRANCH  29  31
ENDBRANCH  27  28
ENDBRANCH   3  26
TORSDOF 8
ENDMDL
