MODEL 1
REMARK VINA RESULT:      -5.1      0.000      0.000
REMARK  Name = 122180587_TripolinolateA.pdbqt.pdb
REMARK  9 active torsions:
REMARK  status: ('A' for Active; 'I' for Inactive)
REMARK    1  A    between atoms: C_1  and  O_16
REMARK    2  A    between atoms: C_2  and  O_7
REMARK    3  A    between atoms: C_3  and  C_9
REMARK    4  A    between atoms: C_10  and  C_11
REMARK    5  A    between atoms: C_11  and  O_12
REMARK    6  A    between atoms: O_12  and  C_14
REMARK    7  A    between atoms: O_16  and  C_18
REMARK    8  A    between atoms: C_18  and  C_19
REMARK    9  A    between atoms: C_19  and  C_21
REMARK                            x       y       z     vdW  Elec       q    Type
REMARK                         _______ _______ _______ _____ _____    ______ ____
ROOT
ATOM      1  C   UNL     1     -24.200 102.869   2.953  0.00  0.00    +0.000 A 
ATOM      2  C   UNL     1     -24.926 103.991   2.541  0.00  0.00    +0.000 A 
ATOM      3  C   UNL     1     -24.246 103.522   0.260  0.00  0.00    +0.000 A 
ATOM      4  C   UNL     1     -23.476 102.095   2.044  0.00  0.00    +0.000 A 
ATOM      5  C   UNL     1     -24.944 104.305   1.179  0.00  0.00    +0.000 A 
ATOM      6  C   UNL     1     -23.509 102.421   0.692  0.00  0.00    +0.000 A 
ENDROOT
BRANCH   2   7
ATOM      7  O   UNL     1     -25.561 104.723   3.513  0.00  0.00    +0.000 OA
ATOM      8  C   UNL     1     -26.036 105.978   3.114  0.00  0.00    +0.000 C 
ENDBRANCH   2   7
BRANCH   3   9
ATOM      9  C   UNL     1     -24.280 103.855  -1.126  0.00  0.00    +0.000 C 
ATOM     10  C   UNL     1     -24.308 104.134  -2.294  0.00  0.00    +0.000 C 
BRANCH  10  11
ATOM     11  C   UNL     1     -24.339 104.488  -3.784  0.00  0.00    +0.000 C 
BRANCH  11  12
ATOM     12  O   UNL     1     -24.368 104.794  -5.079  0.00  0.00    +0.000 OA
BRANCH  12  14
ATOM     13  O   UNL     1     -25.893 103.755  -6.516  0.00  0.00    +0.000 OA
ATOM     14  C   UNL     1     -24.855 103.829  -5.884  0.00  0.00    +0.000 C 
ATOM     15  C   UNL     1     -23.967 102.639  -6.027  0.00  0.00    +0.000 C 
ENDBRANCH  12  14
ENDBRANCH  11  12
ENDBRANCH  10  11
ENDBRANCH   3   9
BRANCH   1  16
ATOM     16  O   UNL     1     -24.117 102.555   4.316  0.00  0.00    +0.000 OA
BRANCH  16  18
ATOM     17  O   UNL     1     -25.468 100.663   4.262  0.00  0.00    +0.000 OA
ATOM     18  C   UNL     1     -24.438 101.233   4.598  0.00  0.00    +0.000 C 
BRANCH  18  19
ATOM     19  C   UNL     1     -23.359 100.589   5.388  0.00  0.00    +0.000 C 
ATOM     20  C   UNL     1     -22.231  99.779   4.763  0.00  0.00    +0.000 C 
BRANCH  19  21
ATOM     21  C   UNL     1     -23.360 100.731   6.800  0.00  0.00    +0.000 C 
ATOM     22  C   UNL     1     -23.354 100.883   8.333  0.00  0.00    +0.000 C 
ENDBRANCH  19  21
ENDBRANCH  18  19
ENDBRANCH  16  18
ENDBRANCH   1  16
TORSDOF 9
ENDMDL
MODEL 2
REMARK VINA RESULT:      -4.8      2.361      3.279
REMARK  Name = 122180587_TripolinolateA.pdbqt.pdb
REMARK  9 active torsions:
REMARK  status: ('A' for Active; 'I' for Inactive)
REMARK    1  A    between atoms: C_1  and  O_16
REMARK    2  A    between atoms: C_2  and  O_7
REMARK    3  A    between atoms: C_3  and  C_9
REMARK    4  A    between atoms: C_10  and  C_11
REMARK    5  A    between atoms: C_11  and  O_12
REMARK    6  A    between atoms: O_12  and  C_14
REMARK    7  A    between atoms: O_16  and  C_18
REMARK    8  A    between atoms: C_18  and  C_19
REMARK    9  A    between atoms: C_19  and  C_21
REMARK                            x       y       z     vdW  Elec       q    Type
REMARK                         _______ _______ _______ _____ _____    ______ ____
ROOT
ATOM      1  C   UNL     1     -22.662 101.238   4.490  0.00  0.00    +0.000 A 
ATOM      2  C   UNL     1     -23.892 100.924   3.903  0.00  0.00    +0.000 A 
ATOM      3  C   UNL     1     -23.189 102.134   1.921  0.00  0.00    +0.000 A 
ATOM      4  C   UNL     1     -21.712 102.015   3.824  0.00  0.00    +0.000 A 
ATOM      5  C   UNL     1     -24.141 101.379   2.605  0.00  0.00    +0.000 A 
ATOM      6  C   UNL     1     -21.977 102.455   2.530  0.00  0.00    +0.000 A 
ENDROOT
BRANCH   2   7
ATOM      7  O   UNL     1     -24.783 100.203   4.657  0.00  0.00    +0.000 OA
ATOM      8  C   UNL     1     -26.128 100.319   4.282  0.00  0.00    +0.000 C 
ENDBRANCH   2   7
BRANCH   3   9
ATOM      9  C   UNL     1     -23.459 102.584   0.596  0.00  0.00    +0.000 C 
ATOM     10  C   UNL     1     -23.688 102.963  -0.521  0.00  0.00    +0.000 C 
BRANCH  10  11
ATOM     11  C   UNL     1     -23.982 103.442  -1.946  0.00  0.00    +0.000 C 
BRANCH  11  12
ATOM     12  O   UNL     1     -24.239 103.860  -3.183  0.00  0.00    +0.000 OA
BRANCH  12  14
ATOM     13  O   UNL     1     -25.667 105.651  -3.650  0.00  0.00    +0.000 OA
ATOM     14  C   UNL     1     -24.621 105.148  -3.284  0.00  0.00    +0.000 C 
ATOM     15  C   UNL     1     -23.580 106.135  -2.873  0.00  0.00    +0.000 C 
ENDBRANCH  12  14
ENDBRANCH  11  12
ENDBRANCH  10  11
ENDBRANCH   3   9
BRANCH   1  16
ATOM     16  O   UNL     1     -22.398 100.843   5.809  0.00  0.00    +0.000 OA
BRANCH  16  18
ATOM     17  O   UNL     1     -21.683  98.781   5.007  0.00  0.00    +0.000 OA
ATOM     18  C   UNL     1     -21.752  99.616   5.899  0.00  0.00    +0.000 C 
BRANCH  18  19
ATOM     19  C   UNL     1     -21.158  99.435   7.247  0.00  0.00    +0.000 C 
ATOM     20  C   UNL     1     -19.991  98.499   7.531  0.00  0.00    +0.000 C 
BRANCH  19  21
ATOM     21  C   UNL     1     -21.691 100.170   8.339  0.00  0.00    +0.000 C 
ATOM     22  C   UNL     1     -22.263 100.963   9.529  0.00  0.00    +0.000 C 
ENDBRANCH  19  21
ENDBRANCH  18  19
ENDBRANCH  16  18
ENDBRANCH   1  16
TORSDOF 9
ENDMDL
MODEL 3
REMARK VINA RESULT:      -4.7     22.076     26.228
REMARK  Name = 122180587_TripolinolateA.pdbqt.pdb
REMARK  9 active torsions:
REMARK  status: ('A' for Active; 'I' for Inactive)
REMARK    1  A    between atoms: C_1  and  O_16
REMARK    2  A    between atoms: C_2  and  O_7
REMARK    3  A    between atoms: C_3  and  C_9
REMARK    4  A    between atoms: C_10  and  C_11
REMARK    5  A    between atoms: C_11  and  O_12
REMARK    6  A    between atoms: O_12  and  C_14
REMARK    7  A    between atoms: O_16  and  C_18
REMARK    8  A    between atoms: C_18  and  C_19
REMARK    9  A    between atoms: C_19  and  C_21
REMARK                            x       y       z     vdW  Elec       q    Type
REMARK                         _______ _______ _______ _____ _____    ______ ____
ROOT
ATOM      1  C   UNL     1     -35.719  84.611  16.854  0.00  0.00    +0.000 A 
ATOM      2  C   UNL     1     -34.444  84.542  16.283  0.00  0.00    +0.000 A 
ATOM      3  C   UNL     1     -34.037  86.804  17.058  0.00  0.00    +0.000 A 
ATOM      4  C   UNL     1     -36.170  85.768  17.493  0.00  0.00    +0.000 A 
ATOM      5  C   UNL     1     -33.605  85.654  16.399  0.00  0.00    +0.000 A 
ATOM      6  C   UNL     1     -35.319  86.863  17.602  0.00  0.00    +0.000 A 
ENDROOT
BRANCH   2   7
ATOM      7  O   UNL     1     -34.110  83.384  15.628  0.00  0.00    +0.000 OA
ATOM      8  C   UNL     1     -33.109  82.612  16.231  0.00  0.00    +0.000 C 
ENDBRANCH   2   7
BRANCH   3   9
ATOM      9  C   UNL     1     -33.165  87.927  17.170  0.00  0.00    +0.000 C 
ATOM     10  C   UNL     1     -32.430  88.872  17.264  0.00  0.00    +0.000 C 
BRANCH  10  11
ATOM     11  C   UNL     1     -31.489  90.075  17.387  0.00  0.00    +0.000 C 
BRANCH  11  12
ATOM     12  O   UNL     1     -30.673  91.121  17.494  0.00  0.00    +0.000 OA
BRANCH  12  14
ATOM     13  O   UNL     1     -31.114  92.983  18.839  0.00  0.00    +0.000 OA
ATOM     14  C   UNL     1     -30.794  91.826  18.636  0.00  0.00    +0.000 C 
ATOM     15  C   UNL     1     -30.480  91.053  19.873  0.00  0.00    +0.000 C 
ENDBRANCH  12  14
ENDBRANCH  11  12
ENDBRANCH  10  11
ENDBRANCH   3   9
BRANCH   1  16
ATOM     16  O   UNL     1     -36.605  83.535  16.714  0.00  0.00    +0.000 OA
BRANCH  16  18
ATOM     17  O   UNL     1     -37.170  84.368  14.617  0.00  0.00    +0.000 OA
ATOM     18  C   UNL     1     -37.341  83.577  15.536  0.00  0.00    +0.000 C 
BRANCH  18  19
ATOM     19  C   UNL     1     -38.394  82.531  15.539  0.00  0.00    +0.000 C 
ATOM     20  C   UNL     1     -39.875  82.831  15.732  0.00  0.00    +0.000 C 
BRANCH  19  21
ATOM     21  C   UNL     1     -38.019  81.175  15.349  0.00  0.00    +0.000 C 
ATOM     22  C   UNL     1     -37.604  79.706  15.143  0.00  0.00    +0.000 C 
ENDBRANCH  19  21
ENDBRANCH  18  19
ENDBRANCH  16  18
ENDBRANCH   1  16
TORSDOF 9
ENDMDL
MODEL 4
REMARK VINA RESULT:      -4.6     17.225     18.986
REMARK  Name = 122180587_TripolinolateA.pdbqt.pdb
REMARK  9 active torsions:
REMARK  status: ('A' for Active; 'I' for Inactive)
REMARK    1  A    between atoms: C_1  and  O_16
REMARK    2  A    between atoms: C_2  and  O_7
REMARK    3  A    between atoms: C_3  and  C_9
REMARK    4  A    between atoms: C_10  and  C_11
REMARK    5  A    between atoms: C_11  and  O_12
REMARK    6  A    between atoms: O_12  and  C_14
REMARK    7  A    between atoms: O_16  and  C_18
REMARK    8  A    between atoms: C_18  and  C_19
REMARK    9  A    between atoms: C_19  and  C_21
REMARK                            x       y       z     vdW  Elec       q    Type
REMARK                         _______ _______ _______ _____ _____    ______ ____
ROOT
ATOM      1  C   UNL     1     -40.273 101.972   3.121  0.00  0.00    +0.000 A 
ATOM      2  C   UNL     1     -41.242 102.008   4.130  0.00  0.00    +0.000 A 
ATOM      3  C   UNL     1     -42.853 101.146   2.533  0.00  0.00    +0.000 A 
ATOM      4  C   UNL     1     -40.586 101.561   1.824  0.00  0.00    +0.000 A 
ATOM      5  C   UNL     1     -42.537 101.584   3.819  0.00  0.00    +0.000 A 
ATOM      6  C   UNL     1     -41.880 101.138   1.535  0.00  0.00    +0.000 A 
ENDROOT
BRANCH   2   7
ATOM      7  O   UNL     1     -40.855 102.480   5.358  0.00  0.00    +0.000 OA
ATOM      8  C   UNL     1     -41.196 103.810   5.633  0.00  0.00    +0.000 C 
ENDBRANCH   2   7
BRANCH   3   9
ATOM      9  C   UNL     1     -44.178 100.712   2.237  0.00  0.00    +0.000 C 
ATOM     10  C   UNL     1     -45.295 100.347   1.989  0.00  0.00    +0.000 C 
BRANCH  10  11
ATOM     11  C   UNL     1     -46.720  99.879   1.676  0.00  0.00    +0.000 C 
BRANCH  11  12
ATOM     12  O   UNL     1     -47.959  99.473   1.407  0.00  0.00    +0.000 OA
BRANCH  12  14
ATOM     13  O   UNL     1     -48.658  98.078   3.148  0.00  0.00    +0.000 OA
ATOM     14  C   UNL     1     -48.325  98.322   2.003  0.00  0.00    +0.000 C 
ATOM     15  C   UNL     1     -48.323  97.133   1.101  0.00  0.00    +0.000 C 
ENDBRANCH  12  14
ENDBRANCH  11  12
ENDBRANCH  10  11
ENDBRANCH   3   9
BRANCH   1  16
ATOM     16  O   UNL     1     -38.978 102.439   3.382  0.00  0.00    +0.000 OA
BRANCH  16  18
ATOM     17  O   UNL     1     -39.411 104.590   2.611  0.00  0.00    +0.000 OA
ATOM     18  C   UNL     1     -38.672 103.619   2.716  0.00  0.00    +0.000 C 
BRANCH  18  19
ATOM     19  C   UNL     1     -37.314 103.547   2.120  0.00  0.00    +0.000 C 
ATOM     20  C   UNL     1     -36.220 102.623   2.638  0.00  0.00    +0.000 C 
BRANCH  19  21
ATOM     21  C   UNL     1     -37.006 104.372   1.006  0.00  0.00    +0.000 C 
ATOM     22  C   UNL     1     -36.663 105.268  -0.198  0.00  0.00    +0.000 C 
ENDBRANCH  19  21
ENDBRANCH  18  19
ENDBRANCH  16  18
ENDBRANCH   1  16
TORSDOF 9
ENDMDL
MODEL 5
REMARK VINA RESULT:      -4.5      4.255      5.115
REMARK  Name = 122180587_TripolinolateA.pdbqt.pdb
REMARK  9 active torsions:
REMARK  status: ('A' for Active; 'I' for Inactive)
REMARK    1  A    between atoms: C_1  and  O_16
REMARK    2  A    between atoms: C_2  and  O_7
REMARK    3  A    between atoms: C_3  and  C_9
REMARK    4  A    between atoms: C_10  and  C_11
REMARK    5  A    between atoms: C_11  and  O_12
REMARK    6  A    between atoms: O_12  and  C_14
REMARK    7  A    between atoms: O_16  and  C_18
REMARK    8  A    between atoms: C_18  and  C_19
REMARK    9  A    between atoms: C_19  and  C_21
REMARK                            x       y       z     vdW  Elec       q    Type
REMARK                         _______ _______ _______ _____ _____    ______ ____
ROOT
ATOM      1  C   UNL     1     -23.524 101.364   5.660  0.00  0.00    +0.000 A 
ATOM      2  C   UNL     1     -23.183 102.699   5.900  0.00  0.00    +0.000 A 
ATOM      3  C   UNL     1     -24.592 103.335   4.030  0.00  0.00    +0.000 A 
ATOM      4  C   UNL     1     -24.362 101.004   4.602  0.00  0.00    +0.000 A 
ATOM      5  C   UNL     1     -23.733 103.682   5.073  0.00  0.00    +0.000 A 
ATOM      6  C   UNL     1     -24.904 101.997   3.792  0.00  0.00    +0.000 A 
ENDROOT
BRANCH   2   7
ATOM      7  O   UNL     1     -22.309 102.950   6.927  0.00  0.00    +0.000 OA
ATOM      8  C   UNL     1     -21.060 103.459   6.550  0.00  0.00    +0.000 C 
ENDBRANCH   2   7
BRANCH   3   9
ATOM      9  C   UNL     1     -25.147 104.353   3.200  0.00  0.00    +0.000 C 
ATOM     10  C   UNL     1     -25.617 105.209   2.501  0.00  0.00    +0.000 C 
BRANCH  10  11
ATOM     11  C   UNL     1     -26.217 106.298   1.606  0.00  0.00    +0.000 C 
BRANCH  11  12
ATOM     12  O   UNL     1     -26.739 107.245   0.830  0.00  0.00    +0.000 OA
BRANCH  12  14
ATOM     13  O   UNL     1     -28.946 107.074   1.584  0.00  0.00    +0.000 OA
ATOM     14  C   UNL     1     -28.084 107.233   0.740  0.00  0.00    +0.000 C 
ATOM     15  C   UNL     1     -28.611 107.454  -0.638  0.00  0.00    +0.000 C 
ENDBRANCH  12  14
ENDBRANCH  11  12
ENDBRANCH  10  11
ENDBRANCH   3   9
BRANCH   1  16
ATOM     16  O   UNL     1     -22.951 100.347   6.436  0.00  0.00    +0.000 OA
BRANCH  16  18
ATOM     17  O   UNL     1     -21.400  99.992   4.739  0.00  0.00    +0.000 OA
ATOM     18  C   UNL     1     -21.781  99.831   5.892  0.00  0.00    +0.000 C 
BRANCH  18  19
ATOM     19  C   UNL     1     -21.044  99.030   6.901  0.00  0.00    +0.000 C 
ATOM     20  C   UNL     1     -20.075  97.913   6.539  0.00  0.00    +0.000 C 
BRANCH  19  21
ATOM     21  C   UNL     1     -21.238  99.311   8.279  0.00  0.00    +0.000 C 
ATOM     22  C   UNL     1     -21.449  99.623   9.773  0.00  0.00    +0.000 C 
ENDBRANCH  19  21
ENDBRANCH  18  19
ENDBRANCH  16  18
ENDBRANCH   1  16
TORSDOF 9
ENDMDL
MODEL 6
REMARK VINA RESULT:      -4.3      4.294      7.671
REMARK  Name = 122180587_TripolinolateA.pdbqt.pdb
REMARK  9 active torsions:
REMARK  status: ('A' for Active; 'I' for Inactive)
REMARK    1  A    between atoms: C_1  and  O_16
REMARK    2  A    between atoms: C_2  and  O_7
REMARK    3  A    between atoms: C_3  and  C_9
REMARK    4  A    between atoms: C_10  and  C_11
REMARK    5  A    between atoms: C_11  and  O_12
REMARK    6  A    between atoms: O_12  and  C_14
REMARK    7  A    between atoms: O_16  and  C_18
REMARK    8  A    between atoms: C_18  and  C_19
REMARK    9  A    between atoms: C_19  and  C_21
REMARK                            x       y       z     vdW  Elec       q    Type
REMARK                         _______ _______ _______ _____ _____    ______ ____
ROOT
ATOM      1  C   UNL     1     -21.385  99.947   9.341  0.00  0.00    +0.000 A 
ATOM      2  C   UNL     1     -22.180 101.061   9.056  0.00  0.00    +0.000 A 
ATOM      3  C   UNL     1     -22.124 100.430   6.714  0.00  0.00    +0.000 A 
ATOM      4  C   UNL     1     -20.932  99.096   8.330  0.00  0.00    +0.000 A 
ATOM      5  C   UNL     1     -22.549 101.289   7.727  0.00  0.00    +0.000 A 
ATOM      6  C   UNL     1     -21.313  99.337   7.014  0.00  0.00    +0.000 A 
ENDROOT
BRANCH   2   7
ATOM      7  O   UNL     1     -22.530 101.871  10.107  0.00  0.00    +0.000 OA
ATOM      8  C   UNL     1     -22.057 103.187  10.042  0.00  0.00    +0.000 C 
ENDBRANCH   2   7
BRANCH   3   9
ATOM      9  C   UNL     1     -22.514 100.676   5.365  0.00  0.00    +0.000 C 
ATOM     10  C   UNL     1     -22.844 100.885   4.229  0.00  0.00    +0.000 C 
BRANCH  10  11
ATOM     11  C   UNL     1     -23.270 101.152   2.781  0.00  0.00    +0.000 C 
BRANCH  11  12
ATOM     12  O   UNL     1     -23.638 101.385   1.524  0.00  0.00    +0.000 OA
BRANCH  12  14
ATOM     13  O   UNL     1     -23.147 103.664   1.704  0.00  0.00    +0.000 OA
ATOM     14  C   UNL     1     -23.468 102.654   1.105  0.00  0.00    +0.000 C 
ATOM     15  C   UNL     1     -23.717 102.861  -0.351  0.00  0.00    +0.000 C 
ENDBRANCH  12  14
ENDBRANCH  11  12
ENDBRANCH  10  11
ENDBRANCH   3   9
BRANCH   1  16
ATOM     16  O   UNL     1     -20.953  99.716  10.654  0.00  0.00    +0.000 OA
BRANCH  16  18
ATOM     17  O   UNL     1     -19.060 100.988  10.198  0.00  0.00    +0.000 OA
ATOM     18  C   UNL     1     -19.679 100.207  10.910  0.00  0.00    +0.000 C 
BRANCH  18  19
ATOM     19  C   UNL     1     -19.143  99.640  12.173  0.00  0.00    +0.000 C 
ATOM     20  C   UNL     1     -17.681  99.264  12.370  0.00  0.00    +0.000 C 
BRANCH  19  21
ATOM     21  C   UNL     1     -20.026  99.438  13.266  0.00  0.00    +0.000 C 
ATOM     22  C   UNL     1     -20.979  99.213  14.455  0.00  0.00    +0.000 C 
ENDBRANCH  19  21
ENDBRANCH  18  19
ENDBRANCH  16  18
ENDBRANCH   1  16
TORSDOF 9
ENDMDL
MODEL 7
REMARK VINA RESULT:      -4.3      1.813      8.879
REMARK  Name = 122180587_TripolinolateA.pdbqt.pdb
REMARK  9 active torsions:
REMARK  status: ('A' for Active; 'I' for Inactive)
REMARK    1  A    between atoms: C_1  and  O_16
REMARK    2  A    between atoms: C_2  and  O_7
REMARK    3  A    between atoms: C_3  and  C_9
REMARK    4  A    between atoms: C_10  and  C_11
REMARK    5  A    between atoms: C_11  and  O_12
REMARK    6  A    between atoms: O_12  and  C_14
REMARK    7  A    between atoms: O_16  and  C_18
REMARK    8  A    between atoms: C_18  and  C_19
REMARK    9  A    between atoms: C_19  and  C_21
REMARK                            x       y       z     vdW  Elec       q    Type
REMARK                         _______ _______ _______ _____ _____    ______ ____
ROOT
ATOM      1  C   UNL     1     -24.848 104.597  -2.424  0.00  0.00    +0.000 A 
ATOM      2  C   UNL     1     -25.439 105.350  -1.404  0.00  0.00    +0.000 A 
ATOM      3  C   UNL     1     -24.439 103.841   0.211  0.00  0.00    +0.000 A 
ATOM      4  C   UNL     1     -24.086 103.460  -2.144  0.00  0.00    +0.000 A 
ATOM      5  C   UNL     1     -25.219 104.960  -0.080  0.00  0.00    +0.000 A 
ATOM      6  C   UNL     1     -23.875 103.090  -0.819  0.00  0.00    +0.000 A 
ENDROOT
BRANCH   2   7
ATOM      7  O   UNL     1     -26.216 106.417  -1.779  0.00  0.00    +0.000 OA
ATOM      8  C   UNL     1     -26.947 107.026  -0.751  0.00  0.00    +0.000 C 
ENDBRANCH   2   7
BRANCH   3   9
ATOM      9  C   UNL     1     -24.222 103.462   1.568  0.00  0.00    +0.000 C 
ATOM     10  C   UNL     1     -24.040 103.143   2.712  0.00  0.00    +0.000 C 
BRANCH  10  11
ATOM     11  C   UNL     1     -23.806 102.741   4.172  0.00  0.00    +0.000 C 
BRANCH  11  12
ATOM     12  O   UNL     1     -23.602 102.391   5.440  0.00  0.00    +0.000 OA
BRANCH  12  14
ATOM     13  O   UNL     1     -23.166 100.366   6.525  0.00  0.00    +0.000 OA
ATOM     14  C   UNL     1     -23.705 101.071   5.692  0.00  0.00    +0.000 C 
ATOM     15  C   UNL     1     -24.646 100.343   4.792  0.00  0.00    +0.000 C 
ENDBRANCH  12  14
ENDBRANCH  11  12
ENDBRANCH  10  11
ENDBRANCH   3   9
BRANCH   1  16
ATOM     16  O   UNL     1     -25.088 104.927  -3.764  0.00  0.00    +0.000 OA
BRANCH  16  18
ATOM     17  O   UNL     1     -22.922 105.607  -4.268  0.00  0.00    +0.000 OA
ATOM     18  C   UNL     1     -23.935 104.973  -4.537  0.00  0.00    +0.000 C 
BRANCH  18  19
ATOM     19  C   UNL     1     -24.094 104.153  -5.764  0.00  0.00    +0.000 C 
ATOM     20  C   UNL     1     -23.494 104.534  -7.111  0.00  0.00    +0.000 C 
BRANCH  19  21
ATOM     21  C   UNL     1     -24.836 102.945  -5.694  0.00  0.00    +0.000 C 
ATOM     22  C   UNL     1     -25.638 101.633  -5.611  0.00  0.00    +0.000 C 
ENDBRANCH  19  21
ENDBRANCH  18  19
ENDBRANCH  16  18
ENDBRANCH   1  16
TORSDOF 9
ENDMDL
MODEL 8
REMARK VINA RESULT:      -4.3     15.159     20.826
REMARK  Name = 122180587_TripolinolateA.pdbqt.pdb
REMARK  9 active torsions:
REMARK  status: ('A' for Active; 'I' for Inactive)
REMARK    1  A    between atoms: C_1  and  O_16
REMARK    2  A    between atoms: C_2  and  O_7
REMARK    3  A    between atoms: C_3  and  C_9
REMARK    4  A    between atoms: C_10  and  C_11
REMARK    5  A    between atoms: C_11  and  O_12
REMARK    6  A    between atoms: O_12  and  C_14
REMARK    7  A    between atoms: O_16  and  C_18
REMARK    8  A    between atoms: C_18  and  C_19
REMARK    9  A    between atoms: C_19  and  C_21
REMARK                            x       y       z     vdW  Elec       q    Type
REMARK                         _______ _______ _______ _____ _____    ______ ____
ROOT
ATOM      1  C   UNL     1     -32.451  98.330  15.879  0.00  0.00    +0.000 A 
ATOM      2  C   UNL     1     -32.588  97.650  17.093  0.00  0.00    +0.000 A 
ATOM      3  C   UNL     1     -34.930  98.281  17.117  0.00  0.00    +0.000 A 
ATOM      4  C   UNL     1     -33.524  99.008  15.298  0.00  0.00    +0.000 A 
ATOM      5  C   UNL     1     -33.845  97.629  17.703  0.00  0.00    +0.000 A 
ATOM      6  C   UNL     1     -34.770  98.973  15.918  0.00  0.00    +0.000 A 
ENDROOT
BRANCH   2   7
ATOM      7  O   UNL     1     -31.464  97.061  17.615  0.00  0.00    +0.000 OA
ATOM      8  C   UNL     1     -31.387  97.031  19.013  0.00  0.00    +0.000 C 
ENDBRANCH   2   7
BRANCH   3   9
ATOM      9  C   UNL     1     -36.206  98.245  17.752  0.00  0.00    +0.000 C 
ATOM     10  C   UNL     1     -37.281  98.216  18.287  0.00  0.00    +0.000 C 
BRANCH  10  11
ATOM     11  C   UNL     1     -38.650  98.179  18.975  0.00  0.00    +0.000 C 
BRANCH  11  12
ATOM     12  O   UNL     1     -39.839  98.144  19.571  0.00  0.00    +0.000 OA
BRANCH  12  14
ATOM     13  O   UNL     1     -39.080  96.788  21.317  0.00  0.00    +0.000 OA
ATOM     14  C   UNL     1     -39.933  97.293  20.611  0.00  0.00    +0.000 C 
ATOM     15  C   UNL     1     -41.328  96.899  20.962  0.00  0.00    +0.000 C 
ENDBRANCH  12  14
ENDBRANCH  11  12
ENDBRANCH  10  11
ENDBRANCH   3   9
BRANCH   1  16
ATOM     16  O   UNL     1     -31.194  98.416  15.265  0.00  0.00    +0.000 OA
BRANCH  16  18
ATOM     17  O   UNL     1     -31.245 100.271  13.864  0.00  0.00    +0.000 OA
ATOM     18  C   UNL     1     -30.855  99.706  14.878  0.00  0.00    +0.000 C 
BRANCH  18  19
ATOM     19  C   UNL     1     -29.929 100.322  15.862  0.00  0.00    +0.000 C 
ATOM     20  C   UNL     1     -30.243 100.442  17.347  0.00  0.00    +0.000 C 
BRANCH  19  21
ATOM     21  C   UNL     1     -28.680 100.824  15.411  0.00  0.00    +0.000 C 
ATOM     22  C   UNL     1     -27.322 101.367  14.930  0.00  0.00    +0.000 C 
ENDBRANCH  19  21
ENDBRANCH  18  19
ENDBRANCH  16  18
ENDBRANCH   1  16
TORSDOF 9
ENDMDL
MODEL 9
REMARK VINA RESULT:      -4.3     25.988     27.101
REMARK  Name = 122180587_TripolinolateA.pdbqt.pdb
REMARK  9 active torsions:
REMARK  status: ('A' for Active; 'I' for Inactive)
REMARK    1  A    between atoms: C_1  and  O_16
REMARK    2  A    between atoms: C_2  and  O_7
REMARK    3  A    between atoms: C_3  and  C_9
REMARK    4  A    between atoms: C_10  and  C_11
REMARK    5  A    between atoms: C_11  and  O_12
REMARK    6  A    between atoms: O_12  and  C_14
REMARK    7  A    between atoms: O_16  and  C_18
REMARK    8  A    between atoms: C_18  and  C_19
REMARK    9  A    between atoms: C_19  and  C_21
REMARK                            x       y       z     vdW  Elec       q    Type
REMARK                         _______ _______ _______ _____ _____    ______ ____
ROOT
ATOM      1  C   UNL     1     -50.951  94.578   3.205  0.00  0.00    +0.000 A 
ATOM      2  C   UNL     1     -50.710  94.850   1.854  0.00  0.00    +0.000 A 
ATOM      3  C   UNL     1     -49.248  96.660   2.539  0.00  0.00    +0.000 A 
ATOM      4  C   UNL     1     -50.379  95.350   4.218  0.00  0.00    +0.000 A 
ATOM      5  C   UNL     1     -49.844  95.899   1.534  0.00  0.00    +0.000 A 
ATOM      6  C   UNL     1     -49.517  96.389   3.880  0.00  0.00    +0.000 A 
ENDROOT
BRANCH   2   7
ATOM      7  O   UNL     1     -51.360  94.072   0.930  0.00  0.00    +0.000 OA
ATOM      8  C   UNL     1     -52.275  94.743   0.109  0.00  0.00    +0.000 C 
ENDBRANCH   2   7
BRANCH   3   9
ATOM      9  C   UNL     1     -48.364  97.725   2.193  0.00  0.00    +0.000 C 
ATOM     10  C   UNL     1     -47.621  98.622   1.903  0.00  0.00    +0.000 C 
BRANCH  10  11
ATOM     11  C   UNL     1     -46.676  99.769   1.532  0.00  0.00    +0.000 C 
BRANCH  11  12
ATOM     12  O   UNL     1     -45.853 100.765   1.209  0.00  0.00    +0.000 OA
BRANCH  12  14
ATOM     13  O   UNL     1     -44.654 100.949   3.208  0.00  0.00    +0.000 OA
ATOM     14  C   UNL     1     -44.767 100.888   1.998  0.00  0.00    +0.000 C 
ATOM     15  C   UNL     1     -43.474 100.962   1.258  0.00  0.00    +0.000 C 
ENDBRANCH  12  14
ENDBRANCH  11  12
ENDBRANCH  10  11
ENDBRANCH   3   9
BRANCH   1  16
ATOM     16  O   UNL     1     -51.853  93.566   3.562  0.00  0.00    +0.000 OA
BRANCH  16  18
ATOM     17  O   UNL     1     -53.835  94.768   3.379  0.00  0.00    +0.000 OA
ATOM     18  C   UNL     1     -53.074  94.050   4.015  0.00  0.00    +0.000 C 
BRANCH  18  19
ATOM     19  C   UNL     1     -53.336  93.592   5.402  0.00  0.00    +0.000 C 
ATOM     20  C   UNL     1     -53.626  94.540   6.558  0.00  0.00    +0.000 C 
BRANCH  19  21
ATOM     21  C   UNL     1     -53.327  92.200   5.681  0.00  0.00    +0.000 C 
ATOM     22  C   UNL     1     -53.308  90.689   5.983  0.00  0.00    +0.000 C 
ENDBRANCH  19  21
ENDBRANCH  18  19
ENDBRANCH  16  18
ENDBRANCH   1  16
TORSDOF 9
ENDMDL
