REMARK  Name = 135423438_Nintedanib.pdbqt.pdb
REMARK  9 active torsions:
REMARK  status: ('A' for Active; 'I' for Inactive)
REMARK    1  A    between atoms: N_1  and  C_22
REMARK    2  A    between atoms: C_2  and  C_4
REMARK    3  A    between atoms: C_2  and  C_37
REMARK    4  A    between atoms: C_7  and  O_13
REMARK    5  A    between atoms: C_10  and  C_16
REMARK    6  A    between atoms: C_16  and  O_17
REMARK    7  A    between atoms: C_19  and  N_26
REMARK    8  A    between atoms: C_27  and  C_29
REMARK    9  A    between atoms: C_29  and  N_30
REMARK                            x       y       z     vdW  Elec       q    Type
REMARK                         _______ _______ _______ _____ _____    ______ ____
ROOT
ATOM      1  N   UNL     1      -1.539  -0.232   0.029  0.00  0.00    +0.000 NA
ATOM      2  C   UNL     1      -2.001   0.985   0.014  0.00  0.00    +0.000 C 
ENDROOT
BRANCH   2   4
ATOM      3  N   UNL     1      -5.480   2.023   0.504  0.00  0.00    +0.000 N 
ATOM      4  C   UNL     1      -3.454   1.139   0.163  0.00  0.00    +0.000 A 
ATOM      5  C   UNL     1      -4.447   0.101   0.071  0.00  0.00    +0.000 A 
ATOM      6  C   UNL     1      -5.694   0.685   0.285  0.00  0.00    +0.000 A 
ATOM      7  C   UNL     1      -4.141   2.314   0.439  0.00  0.00    +0.000 A 
ATOM      8  C   UNL     1      -4.397  -1.285  -0.183  0.00  0.00    +0.000 A 
ATOM      9  C   UNL     1      -6.890  -0.040   0.264  0.00  0.00    +0.000 A 
ATOM     10  C   UNL     1      -6.806  -1.416   0.013  0.00  0.00    +0.000 A 
ATOM     11  C   UNL     1      -5.578  -2.029  -0.209  0.00  0.00    +0.000 A 
ATOM     12  H   UNL     1      -6.215   2.689   0.691  0.00  0.00    +0.000 HD
BRANCH   7  13
ATOM     13  O   UNL     1      -3.692   3.549   0.636  0.00  0.00    +0.000 OA
ATOM     14  H   UNL     1      -4.427   4.156   0.833  0.00  0.00    +0.000 HD
ENDBRANCH   7  13
BRANCH  10  16
ATOM     15  O   UNL     1      -7.976  -3.462  -0.263  0.00  0.00    +0.000 OA
ATOM     16  C   UNL     1      -8.018  -2.263  -0.029  0.00  0.00    +0.000 C 
BRANCH  16  17
ATOM     17  O   UNL     1      -9.105  -1.482   0.229  0.00  0.00    +0.000 OA
ATOM     18  C   UNL     1     -10.371  -2.090   0.236  0.00  0.00    +0.000 C 
ENDBRANCH  16  17
ENDBRANCH  10  16
ENDBRANCH   2   4
BRANCH   1  22
ATOM     19  C   UNL     1       2.571  -1.105  -0.470  0.00  0.00    +0.000 A 
ATOM     20  C   UNL     1       1.972  -1.101   0.792  0.00  0.00    +0.000 A 
ATOM     21  C   UNL     1       1.752  -0.806  -1.567  0.00  0.00    +0.000 A 
ATOM     22  C   UNL     1      -0.172  -0.482  -0.140  0.00  0.00    +0.000 A 
ATOM     23  C   UNL     1       0.620  -0.805   0.961  0.00  0.00    +0.000 A 
ATOM     24  C   UNL     1       0.399  -0.509  -1.411  0.00  0.00    +0.000 A 
BRANCH  19  26
ATOM     25  O   UNL     1       4.431  -1.738   1.656  0.00  0.00    +0.000 OA
ATOM     26  N   UNL     1       3.974  -1.404  -0.649  0.00  0.00    +0.000 N 
ATOM     27  C   UNL     1       4.779  -1.698   0.480  0.00  0.00    +0.000 C 
ATOM     28  C   UNL     1       4.449  -1.365  -2.035  0.00  0.00    +0.000 C 
BRANCH  27  29
ATOM     29  C   UNL     1       6.184  -1.981   0.221  0.00  0.00    +0.000 C 
BRANCH  29  30
ATOM     30  N   UNL     1       7.599  -2.265  -0.009  0.00  0.00    +0.000 N 
ATOM     31  N   UNL     1       9.774   0.530   0.233  0.00  0.00    +0.000 N 
ATOM     32  C   UNL     1       8.076  -1.281  -1.020  0.00  0.00    +0.000 C 
ATOM     33  C   UNL     1       8.341  -1.675   1.140  0.00  0.00    +0.000 C 
ATOM     34  C   UNL     1       9.027  -0.054  -0.914  0.00  0.00    +0.000 C 
ATOM     35  C   UNL     1       9.292  -0.447   1.246  0.00  0.00    +0.000 C 
ATOM     36  C   UNL     1       9.143   1.806   0.542  0.00  0.00    +0.000 C 
ENDBRANCH  29  30
ENDBRANCH  27  29
ENDBRANCH  19  26
ENDBRANCH   1  22
BRANCH   2  37
ATOM     37  C   UNL     1      -1.179   2.198  -0.144  0.00  0.00    +0.000 A 
ATOM     38  C   UNL     1      -0.376   2.625   0.912  0.00  0.00    +0.000 A 
ATOM     39  C   UNL     1      -1.196   2.876  -1.362  0.00  0.00    +0.000 A 
ATOM     40  C   UNL     1       0.417   3.756   0.745  0.00  0.00    +0.000 A 
ATOM     41  C   UNL     1      -0.400   4.006  -1.518  0.00  0.00    +0.000 A 
ATOM     42  C   UNL     1       0.405   4.445  -0.467  0.00  0.00    +0.000 A 
ENDBRANCH   2  37
TORSDOF 9
