MODEL 1
REMARK VINA RESULT:      -6.7      0.000      0.000
REMARK  Name = 135403648_CalciumFolinate.pdbqt.pdb
REMARK  10 active torsions:
REMARK  status: ('A' for Active; 'I' for Inactive)
REMARK    1  A    between atoms: N_1  and  C_3
REMARK    2  A    between atoms: N_1  and  C_24
REMARK    3  A    between atoms: C_6  and  C_11
REMARK    4  A    between atoms: CA_13  and  C_15
REMARK    5  A    between atoms: CA_13  and  CB_18
REMARK    6  A    between atoms: C_15  and  O_16
REMARK    7  A    between atoms: CG_19  and  CD_21
REMARK    8  A    between atoms: CD_21  and  OE1_22
REMARK    9  A    between atoms: C_24  and  C_32
REMARK   10  A    between atoms: N_27  and  C_37
REMARK                            x       y       z     vdW  Elec       q    Type
REMARK                         _______ _______ _______ _____ _____    ______ ____
ROOT
ATOM      1  N   UNL     1     -45.934 101.969   2.812  0.00  0.00    +0.000 N 
ATOM      2  H   UNL     1     -46.318 102.632   2.139  0.00  0.00    +0.000 HD
ENDROOT
BRANCH   1   3
ATOM      3  C   UNL     1     -46.631 100.742   2.807  0.00  0.00    +0.000 A 
ATOM      4  C   UNL     1     -46.664  99.984   1.632  0.00  0.00    +0.000 A 
ATOM      5  C   UNL     1     -47.440 100.340   3.876  0.00  0.00    +0.000 A 
ATOM      6  C   UNL     1     -48.190  98.405   2.639  0.00  0.00    +0.000 A 
ATOM      7  C   UNL     1     -47.423  98.817   1.552  0.00  0.00    +0.000 A 
ATOM      8  C   UNL     1     -48.200  99.175   3.803  0.00  0.00    +0.000 A 
BRANCH   6  11
ATOM      9  O   UNL     1     -49.263  96.599   3.658  0.00  0.00    +0.000 OA
ATOM     10  N   UNL     1     -49.428  96.752   1.352  0.00  0.00    +0.000 N 
ATOM     11  C   ACE A   0     -49.010  97.169   2.602  0.00  0.00    +0.000 C 
ATOM     12  H   UNL     1     -49.163  97.291   0.532  0.00  0.00    +0.000 HD
ATOM     13  CA  UNL     1     -50.194  95.638   1.057  0.00  0.00    +0.000 C 
BRANCH  13  15
ATOM     14  OXT UNL     1     -50.610  96.330  -1.193  0.00  0.00    +0.000 OA
ATOM     15  C   UNL     1     -50.495  95.425  -0.379  0.00  0.00    +0.000 C 
BRANCH  15  16
ATOM     16  O   UNL     1     -50.634  94.137  -0.728  0.00  0.00    +0.000 OA
ATOM     17  H   UNL     1     -50.996  94.160  -1.638  0.00  0.00    +0.000 HD
ENDBRANCH  15  16
ENDBRANCH  13  15
BRANCH  13  18
ATOM     18  CB  UNL     1     -50.665  94.754   2.063  0.00  0.00    +0.000 C 
ATOM     19  CG  UNL     1     -51.173  93.808   3.157  0.00  0.00    +0.000 C 
BRANCH  19  21
ATOM     20  OE2 UNL     1     -51.726  93.265   5.362  0.00  0.00    +0.000 OA
ATOM     21  CD  UNL     1     -51.646  92.939   4.191  0.00  0.00    +0.000 C 
BRANCH  21  22
ATOM     22  OE1 UNL     1     -51.981  91.708   3.763  0.00  0.00    +0.000 OA
ATOM     23  HE1 UNL     1     -51.668  91.699   2.836  0.00  0.00    +0.000 HD
ENDBRANCH  21  22
ENDBRANCH  19  21
ENDBRANCH  13  18
ENDBRANCH   6  11
ENDBRANCH   1   3
BRANCH   1  24
ATOM     24  C   UNL     1     -44.481 101.948   2.929  0.00  0.00    +0.000 C 
BRANCH  24  31
ATOM     25  O   UNL     1     -40.726 103.501   6.270  0.00  0.00    +0.000 OA
ATOM     26  N   UNL     1     -42.383 102.409   4.146  0.00  0.00    +0.000 N 
ATOM     27  N   UNL     1     -40.770 101.406   1.932  0.00  0.00    +0.000 N 
ATOM     28  N   UNL     1     -38.813 102.117   3.039  0.00  0.00    +0.000 NA
ATOM     29  N   UNL     1     -38.842 102.987   5.182  0.00  0.00    +0.000 N 
ATOM     30  N   UNL     1     -36.845 102.691   4.075  0.00  0.00    +0.000 N 
ATOM     31  C   UNL     1     -43.064 101.971   3.015  0.00  0.00    +0.000 C 
ATOM     32  C   UNL     1     -42.191 101.541   2.002  0.00  0.00    +0.000 C 
ATOM     33  C   UNL     1     -40.962 102.438   4.119  0.00  0.00    +0.000 A 
ATOM     34  C   UNL     1     -40.186 101.997   3.068  0.00  0.00    +0.000 A 
ATOM     35  C   UNL     1     -40.199 103.011   5.276  0.00  0.00    +0.000 A 
ATOM     36  C   UNL     1     -38.195 102.585   4.068  0.00  0.00    +0.000 A 
ATOM     37  H   UNL     1     -40.237 101.629   1.097  0.00  0.00    +0.000 HD
ATOM     38  H   UNL     1     -38.338 103.416   5.942  0.00  0.00    +0.000 HD
ATOM     39  H   UNL     1     -36.417 102.184   3.305  0.00  0.00    +0.000 HD
ATOM     40  H   UNL     1     -36.378 102.525   4.957  0.00  0.00    +0.000 HD
BRANCH  26  42
ATOM     41  O   UNL     1     -43.706 103.128   6.174  0.00  0.00    +0.000 OA
ATOM     42  C   UNL     1     -43.100 102.826   5.213  0.00  0.00    +0.000 C 
ENDBRANCH  26  42
ENDBRANCH  24  31
ENDBRANCH   1  24
TORSDOF 10
ENDMDL
MODEL 2
REMARK VINA RESULT:      -6.5      5.535      9.000
REMARK  Name = 135403648_CalciumFolinate.pdbqt.pdb
REMARK  10 active torsions:
REMARK  status: ('A' for Active; 'I' for Inactive)
REMARK    1  A    between atoms: N_1  and  C_3
REMARK    2  A    between atoms: N_1  and  C_24
REMARK    3  A    between atoms: C_6  and  C_11
REMARK    4  A    between atoms: CA_13  and  C_15
REMARK    5  A    between atoms: CA_13  and  CB_18
REMARK    6  A    between atoms: C_15  and  O_16
REMARK    7  A    between atoms: CG_19  and  CD_21
REMARK    8  A    between atoms: CD_21  and  OE1_22
REMARK    9  A    between atoms: C_24  and  C_32
REMARK   10  A    between atoms: N_27  and  C_37
REMARK                            x       y       z     vdW  Elec       q    Type
REMARK                         _______ _______ _______ _____ _____    ______ ____
ROOT
ATOM      1  N   UNL     1     -36.236 103.447   1.944  0.00  0.00    +0.000 N 
ATOM      2  H   UNL     1     -35.690 102.630   1.671  0.00  0.00    +0.000 HD
ENDROOT
BRANCH   1   3
ATOM      3  C   UNL     1     -37.559 103.108   2.299  0.00  0.00    +0.000 A 
ATOM      4  C   UNL     1     -38.623 103.723   1.631  0.00  0.00    +0.000 A 
ATOM      5  C   UNL     1     -37.851 102.315   3.415  0.00  0.00    +0.000 A 
ATOM      6  C   UNL     1     -40.220 102.668   3.104  0.00  0.00    +0.000 A 
ATOM      7  C   UNL     1     -39.943 103.494   2.018  0.00  0.00    +0.000 A 
ATOM      8  C   UNL     1     -39.167 102.081   3.807  0.00  0.00    +0.000 A 
BRANCH   6  11
ATOM      9  O   UNL     1     -41.930 102.691   4.694  0.00  0.00    +0.000 OA
ATOM     10  N   UNL     1     -42.442 101.804   2.616  0.00  0.00    +0.000 N 
ATOM     11  C   ACE A   0     -41.609 102.391   3.549  0.00  0.00    +0.000 C 
ATOM     12  H   UNL     1     -42.082 101.588   1.690  0.00  0.00    +0.000 HD
ATOM     13  CA  UNL     1     -43.769 101.449   2.788  0.00  0.00    +0.000 C 
BRANCH  13  15
ATOM     14  OXT UNL     1     -45.388 100.076   1.692  0.00  0.00    +0.000 OA
ATOM     15  C   UNL     1     -44.428 100.827   1.614  0.00  0.00    +0.000 C 
BRANCH  15  16
ATOM     16  O   UNL     1     -43.880 101.160   0.435  0.00  0.00    +0.000 OA
ATOM     17  H   UNL     1     -43.008 101.544   0.663  0.00  0.00    +0.000 HD
ENDBRANCH  15  16
ENDBRANCH  13  15
BRANCH  13  18
ATOM     18  CB  UNL     1     -44.459 101.665   4.010  0.00  0.00    +0.000 C 
ATOM     19  CG  UNL     1     -45.214 101.894   5.324  0.00  0.00    +0.000 C 
BRANCH  19  21
ATOM     20  OE2 UNL     1     -45.611 102.917   7.388  0.00  0.00    +0.000 OA
ATOM     21  CD  UNL     1     -45.934 102.101   6.544  0.00  0.00    +0.000 C 
BRANCH  21  22
ATOM     22  OE1 UNL     1     -46.999 101.293   6.695  0.00  0.00    +0.000 OA
ATOM     23  HE1 UNL     1     -47.703 101.901   6.998  0.00  0.00    +0.000 HD
ENDBRANCH  21  22
ENDBRANCH  19  21
ENDBRANCH  13  18
ENDBRANCH   6  11
ENDBRANCH   1   3
BRANCH   1  24
ATOM     24  C   UNL     1     -35.534 104.447   2.738  0.00  0.00    +0.000 C 
BRANCH  24  31
ATOM     25  O   UNL     1     -36.336 107.292   7.090  0.00  0.00    +0.000 OA
ATOM     26  N   UNL     1     -35.369 105.894   4.732  0.00  0.00    +0.000 N 
ATOM     27  N   UNL     1     -32.679 106.753   4.001  0.00  0.00    +0.000 N 
ATOM     28  N   UNL     1     -32.697 108.309   5.772  0.00  0.00    +0.000 NA
ATOM     29  N   UNL     1     -34.421 108.425   7.309  0.00  0.00    +0.000 N 
ATOM     30  N   UNL     1     -32.581 109.792   7.522  0.00  0.00    +0.000 N 
ATOM     31  C   UNL     1     -34.843 105.386   3.549  0.00  0.00    +0.000 C 
ATOM     32  C   UNL     1     -33.560 105.889   3.279  0.00  0.00    +0.000 C 
ATOM     33  C   UNL     1     -34.620 106.866   5.451  0.00  0.00    +0.000 A 
ATOM     34  C   UNL     1     -33.361 107.305   5.101  0.00  0.00    +0.000 A 
ATOM     35  C   UNL     1     -35.207 107.518   6.667  0.00  0.00    +0.000 A 
ATOM     36  C   UNL     1     -33.223 108.821   6.831  0.00  0.00    +0.000 A 
ATOM     37  H   UNL     1     -32.103 107.455   3.546  0.00  0.00    +0.000 HD
ATOM     38  H   UNL     1     -34.840 108.894   8.097  0.00  0.00    +0.000 HD
ATOM     39  H   UNL     1     -31.611 109.890   7.235  0.00  0.00    +0.000 HD
ATOM     40  H   UNL     1     -32.689 109.785   8.528  0.00  0.00    +0.000 HD
BRANCH  26  42
ATOM     41  O   UNL     1     -37.650 105.059   5.426  0.00  0.00    +0.000 OA
ATOM     42  C   UNL     1     -36.590 105.474   5.131  0.00  0.00    +0.000 C 
ENDBRANCH  26  42
ENDBRANCH  24  31
ENDBRANCH   1  24
TORSDOF 10
ENDMDL
MODEL 3
REMARK VINA RESULT:      -6.3     22.129     23.760
REMARK  Name = 135403648_CalciumFolinate.pdbqt.pdb
REMARK  10 active torsions:
REMARK  status: ('A' for Active; 'I' for Inactive)
REMARK    1  A    between atoms: N_1  and  C_3
REMARK    2  A    between atoms: N_1  and  C_24
REMARK    3  A    between atoms: C_6  and  C_11
REMARK    4  A    between atoms: CA_13  and  C_15
REMARK    5  A    between atoms: CA_13  and  CB_18
REMARK    6  A    between atoms: C_15  and  O_16
REMARK    7  A    between atoms: CG_19  and  CD_21
REMARK    8  A    between atoms: CD_21  and  OE1_22
REMARK    9  A    between atoms: C_24  and  C_32
REMARK   10  A    between atoms: N_27  and  C_37
REMARK                            x       y       z     vdW  Elec       q    Type
REMARK                         _______ _______ _______ _____ _____    ______ ____
ROOT
ATOM      1  N   UNL     1     -21.413 105.262   0.548  0.00  0.00    +0.000 N 
ATOM      2  H   UNL     1     -20.426 105.387   0.325  0.00  0.00    +0.000 HD
ENDROOT
BRANCH   1   3
ATOM      3  C   UNL     1     -22.173 104.898  -0.584  0.00  0.00    +0.000 A 
ATOM      4  C   UNL     1     -21.892 103.692  -1.234  0.00  0.00    +0.000 A 
ATOM      5  C   UNL     1     -23.075 105.780  -1.190  0.00  0.00    +0.000 A 
ATOM      6  C   UNL     1     -23.477 104.210  -2.981  0.00  0.00    +0.000 A 
ATOM      7  C   UNL     1     -22.549 103.341  -2.413  0.00  0.00    +0.000 A 
ATOM      8  C   UNL     1     -23.736 105.436  -2.368  0.00  0.00    +0.000 A 
BRANCH   6  11
ATOM      9  O   UNL     1     -25.112 104.616  -4.598  0.00  0.00    +0.000 OA
ATOM     10  N   UNL     1     -23.786 102.739  -4.895  0.00  0.00    +0.000 N 
ATOM     11  C   ACE A   0     -24.203 103.878  -4.233  0.00  0.00    +0.000 C 
ATOM     12  H   UNL     1     -23.024 102.188  -4.510  0.00  0.00    +0.000 HD
ATOM     13  CA  UNL     1     -24.301 102.222  -6.071  0.00  0.00    +0.000 C 
BRANCH  13  15
ATOM     14  OXT UNL     1     -22.482 100.707  -6.400  0.00  0.00    +0.000 OA
ATOM     15  C   UNL     1     -23.664 100.977  -6.562  0.00  0.00    +0.000 C 
BRANCH  15  16
ATOM     16  O   UNL     1     -24.498 100.149  -7.209  0.00  0.00    +0.000 OA
ATOM     17  H   UNL     1     -24.019  99.896  -8.025  0.00  0.00    +0.000 HD
ENDBRANCH  15  16
ENDBRANCH  13  15
BRANCH  13  18
ATOM     18  CB  UNL     1     -25.372 102.843  -6.767  0.00  0.00    +0.000 C 
ATOM     19  CG  UNL     1     -26.529 103.521  -7.510  0.00  0.00    +0.000 C 
BRANCH  19  21
ATOM     20  OE2 UNL     1     -28.327 105.005  -7.671  0.00  0.00    +0.000 OA
ATOM     21  CD  UNL     1     -27.611 104.167  -8.189  0.00  0.00    +0.000 C 
BRANCH  21  22
ATOM     22  OE1 UNL     1     -27.788 103.752  -9.456  0.00  0.00    +0.000 OA
ATOM     23  HE1 UNL     1     -27.583 102.796  -9.412  0.00  0.00    +0.000 HD
ENDBRANCH  21  22
ENDBRANCH  19  21
ENDBRANCH  13  18
ENDBRANCH   6  11
ENDBRANCH   1   3
BRANCH   1  24
ATOM     24  C   UNL     1     -21.700 104.611   1.821  0.00  0.00    +0.000 C 
BRANCH  24  31
ATOM     25  O   UNL     1     -24.549 100.693   3.871  0.00  0.00    +0.000 OA
ATOM     26  N   UNL     1     -22.742 102.880   3.240  0.00  0.00    +0.000 N 
ATOM     27  N   UNL     1     -21.468 103.947   5.637  0.00  0.00    +0.000 N 
ATOM     28  N   UNL     1     -22.703 102.438   6.963  0.00  0.00    +0.000 NA
ATOM     29  N   UNL     1     -24.060 100.802   6.049  0.00  0.00    +0.000 N 
ATOM     30  N   UNL     1     -23.791 100.948   8.331  0.00  0.00    +0.000 N 
ATOM     31  C   UNL     1     -21.947 104.010   3.084  0.00  0.00    +0.000 C 
ATOM     32  C   UNL     1     -21.411 104.456   4.303  0.00  0.00    +0.000 C 
ATOM     33  C   UNL     1     -22.967 102.380   4.552  0.00  0.00    +0.000 A 
ATOM     34  C   UNL     1     -22.398 102.893   5.698  0.00  0.00    +0.000 A 
ATOM     35  C   UNL     1     -23.911 101.234   4.768  0.00  0.00    +0.000 A 
ATOM     36  C   UNL     1     -23.494 101.430   7.102  0.00  0.00    +0.000 A 
ATOM     37  H   UNL     1     -21.553 104.548   6.451  0.00  0.00    +0.000 HD
ATOM     38  H   UNL     1     -24.730 100.064   6.192  0.00  0.00    +0.000 HD
ATOM     39  H   UNL     1     -23.177 101.324   9.049  0.00  0.00    +0.000 HD
ATOM     40  H   UNL     1     -23.916  99.948   8.413  0.00  0.00    +0.000 HD
BRANCH  26  42
ATOM     41  O   UNL     1     -23.812 101.908   1.169  0.00  0.00    +0.000 OA
ATOM     42  C   UNL     1     -23.302 102.325   2.143  0.00  0.00    +0.000 C 
ENDBRANCH  26  42
ENDBRANCH  24  31
ENDBRANCH   1  24
TORSDOF 10
ENDMDL
MODEL 4
REMARK VINA RESULT:      -6.3      1.682      2.014
REMARK  Name = 135403648_CalciumFolinate.pdbqt.pdb
REMARK  10 active torsions:
REMARK  status: ('A' for Active; 'I' for Inactive)
REMARK    1  A    between atoms: N_1  and  C_3
REMARK    2  A    between atoms: N_1  and  C_24
REMARK    3  A    between atoms: C_6  and  C_11
REMARK    4  A    between atoms: CA_13  and  C_15
REMARK    5  A    between atoms: CA_13  and  CB_18
REMARK    6  A    between atoms: C_15  and  O_16
REMARK    7  A    between atoms: CG_19  and  CD_21
REMARK    8  A    between atoms: CD_21  and  OE1_22
REMARK    9  A    between atoms: C_24  and  C_32
REMARK   10  A    between atoms: N_27  and  C_37
REMARK                            x       y       z     vdW  Elec       q    Type
REMARK                         _______ _______ _______ _____ _____    ______ ____
ROOT
ATOM      1  N   UNL     1     -46.022 101.916   2.665  0.00  0.00    +0.000 N 
ATOM      2  H   UNL     1     -46.373 102.527   1.928  0.00  0.00    +0.000 HD
ENDROOT
BRANCH   1   3
ATOM      3  C   UNL     1     -46.711 100.685   2.709  0.00  0.00    +0.000 A 
ATOM      4  C   UNL     1     -46.741  99.880   1.567  0.00  0.00    +0.000 A 
ATOM      5  C   UNL     1     -47.517 100.321   3.794  0.00  0.00    +0.000 A 
ATOM      6  C   UNL     1     -48.256  98.334   2.637  0.00  0.00    +0.000 A 
ATOM      7  C   UNL     1     -47.493  98.706   1.534  0.00  0.00    +0.000 A 
ATOM      8  C   UNL     1     -48.270  99.149   3.770  0.00  0.00    +0.000 A 
BRANCH   6  11
ATOM      9  O   UNL     1     -49.289  96.545   3.726  0.00  0.00    +0.000 OA
ATOM     10  N   UNL     1     -49.517  96.644   1.423  0.00  0.00    +0.000 N 
ATOM     11  C   ACE A   0     -49.069  97.092   2.651  0.00  0.00    +0.000 C 
ATOM     12  H   UNL     1     -49.277  97.165   0.583  0.00  0.00    +0.000 HD
ATOM     13  CA  UNL     1     -50.283  95.519   1.174  0.00  0.00    +0.000 C 
BRANCH  13  15
ATOM     14  OXT UNL     1     -50.728  96.154  -1.087  0.00  0.00    +0.000 OA
ATOM     15  C   UNL     1     -50.621  95.271  -0.249  0.00  0.00    +0.000 C 
BRANCH  15  16
ATOM     16  O   UNL     1     -50.803  93.977  -0.554  0.00  0.00    +0.000 OA
ATOM     17  H   UNL     1     -49.899  93.611  -0.645  0.00  0.00    +0.000 HD
ENDBRANCH  15  16
ENDBRANCH  13  15
BRANCH  13  18
ATOM     18  CB  UNL     1     -50.722  94.656   2.212  0.00  0.00    +0.000 C 
ATOM     19  CG  UNL     1     -51.206  93.728   3.333  0.00  0.00    +0.000 C 
BRANCH  19  21
ATOM     20  OE2 UNL     1     -51.690  93.187   5.554  0.00  0.00    +0.000 OA
ATOM     21  CD  UNL     1     -51.675  92.871   4.378  0.00  0.00    +0.000 C 
BRANCH  21  22
ATOM     22  OE1 UNL     1     -52.083  91.661   3.953  0.00  0.00    +0.000 OA
ATOM     23  HE1 UNL     1     -52.339  91.823   3.022  0.00  0.00    +0.000 HD
ENDBRANCH  21  22
ENDBRANCH  19  21
ENDBRANCH  13  18
ENDBRANCH   6  11
ENDBRANCH   1   3
BRANCH   1  24
ATOM     24  C   UNL     1     -44.577 101.915   2.858  0.00  0.00    +0.000 C 
BRANCH  24  31
ATOM     25  O   UNL     1     -40.244 103.596   0.392  0.00  0.00    +0.000 OA
ATOM     26  N   UNL     1     -42.299 102.588   2.184  0.00  0.00    +0.000 N 
ATOM     27  N   UNL     1     -41.144 101.436   4.602  0.00  0.00    +0.000 N 
ATOM     28  N   UNL     1     -38.980 101.868   3.773  0.00  0.00    +0.000 NA
ATOM     29  N   UNL     1     -38.610 103.037   1.811  0.00  0.00    +0.000 N 
ATOM     30  N   UNL     1     -36.834 102.328   3.094  0.00  0.00    +0.000 N 
ATOM     31  C   UNL     1     -43.173 101.962   3.066  0.00  0.00    +0.000 C 
ATOM     32  C   UNL     1     -42.508 101.416   4.176  0.00  0.00    +0.000 C 
ATOM     33  C   UNL     1     -40.904 102.540   2.457  0.00  0.00    +0.000 A 
ATOM     34  C   UNL     1     -40.341 101.972   3.579  0.00  0.00    +0.000 A 
ATOM     35  C   UNL     1     -39.926 103.105   1.470  0.00  0.00    +0.000 A 
ATOM     36  C   UNL     1     -38.174 102.395   2.916  0.00  0.00    +0.000 A 
ATOM     37  H   UNL     1     -40.691 100.635   5.032  0.00  0.00    +0.000 HD
ATOM     38  H   UNL     1     -37.956 103.374   1.122  0.00  0.00    +0.000 HD
ATOM     39  H   UNL     1     -36.587 102.025   4.032  0.00  0.00    +0.000 HD
ATOM     40  H   UNL     1     -36.292 103.126   2.788  0.00  0.00    +0.000 HD
BRANCH  26  42
ATOM     41  O   UNL     1     -43.297 103.648   0.121  0.00  0.00    +0.000 OA
ATOM     42  C   UNL     1     -42.806 103.182   1.082  0.00  0.00    +0.000 C 
ENDBRANCH  26  42
ENDBRANCH  24  31
ENDBRANCH   1  24
TORSDOF 10
ENDMDL
MODEL 5
REMARK VINA RESULT:      -6.2      4.724      9.248
REMARK  Name = 135403648_CalciumFolinate.pdbqt.pdb
REMARK  10 active torsions:
REMARK  status: ('A' for Active; 'I' for Inactive)
REMARK    1  A    between atoms: N_1  and  C_3
REMARK    2  A    between atoms: N_1  and  C_24
REMARK    3  A    between atoms: C_6  and  C_11
REMARK    4  A    between atoms: CA_13  and  C_15
REMARK    5  A    between atoms: CA_13  and  CB_18
REMARK    6  A    between atoms: C_15  and  O_16
REMARK    7  A    between atoms: CG_19  and  CD_21
REMARK    8  A    between atoms: CD_21  and  OE1_22
REMARK    9  A    between atoms: C_24  and  C_32
REMARK   10  A    between atoms: N_27  and  C_37
REMARK                            x       y       z     vdW  Elec       q    Type
REMARK                         _______ _______ _______ _____ _____    ______ ____
ROOT
ATOM      1  N   UNL     1     -36.164 103.761   1.617  0.00  0.00    +0.000 N 
ATOM      2  H   UNL     1     -35.578 103.021   1.231  0.00  0.00    +0.000 HD
ENDROOT
BRANCH   1   3
ATOM      3  C   UNL     1     -37.492 103.335   1.826  0.00  0.00    +0.000 A 
ATOM      4  C   UNL     1     -38.536 104.032   1.211  0.00  0.00    +0.000 A 
ATOM      5  C   UNL     1     -37.820 102.352   2.768  0.00  0.00    +0.000 A 
ATOM      6  C   UNL     1     -40.178 102.699   2.377  0.00  0.00    +0.000 A 
ATOM      7  C   UNL     1     -39.868 103.709   1.470  0.00  0.00    +0.000 A 
ATOM      8  C   UNL     1     -39.148 102.023   3.031  0.00  0.00    +0.000 A 
BRANCH   6  11
ATOM      9  O   UNL     1     -42.204 101.662   1.854  0.00  0.00    +0.000 OA
ATOM     10  N   UNL     1     -42.076 102.742   3.900  0.00  0.00    +0.000 N 
ATOM     11  C   ACE A   0     -41.580 102.317   2.682  0.00  0.00    +0.000 C 
ATOM     12  H   UNL     1     -41.481 103.286   4.519  0.00  0.00    +0.000 HD
ATOM     13  CA  UNL     1     -43.343 102.517   4.409  0.00  0.00    +0.000 C 
BRANCH  13  15
ATOM     14  OXT UNL     1     -44.654 102.928   6.365  0.00  0.00    +0.000 OA
ATOM     15  C   UNL     1     -43.612 103.095   5.748  0.00  0.00    +0.000 C 
BRANCH  15  16
ATOM     16  O   UNL     1     -42.604 103.828   6.244  0.00  0.00    +0.000 OA
ATOM     17  H   UNL     1     -41.889 103.757   5.577  0.00  0.00    +0.000 HD
ENDBRANCH  15  16
ENDBRANCH  13  15
BRANCH  13  18
ATOM     18  CB  UNL     1     -44.325 101.779   3.698  0.00  0.00    +0.000 C 
ATOM     19  CG  UNL     1     -45.392 100.992   2.928  0.00  0.00    +0.000 C 
BRANCH  19  21
ATOM     20  OE2 UNL     1     -46.375 100.120   0.995  0.00  0.00    +0.000 OA
ATOM     21  CD  UNL     1     -46.397 100.274   2.203  0.00  0.00    +0.000 C 
BRANCH  21  22
ATOM     22  OE1 UNL     1     -47.391  99.796   2.973  0.00  0.00    +0.000 OA
ATOM     23  HE1 UNL     1     -47.781 100.603   3.365  0.00  0.00    +0.000 HD
ENDBRANCH  21  22
ENDBRANCH  19  21
ENDBRANCH  13  18
ENDBRANCH   6  11
ENDBRANCH   1   3
BRANCH   1  24
ATOM     24  C   UNL     1     -35.536 104.611   2.621  0.00  0.00    +0.000 C 
BRANCH  24  31
ATOM     25  O   UNL     1     -36.547 106.825   7.285  0.00  0.00    +0.000 OA
ATOM     26  N   UNL     1     -35.475 105.793   4.788  0.00  0.00    +0.000 N 
ATOM     27  N   UNL     1     -32.822 106.870   4.231  0.00  0.00    +0.000 N 
ATOM     28  N   UNL     1     -32.945 108.180   6.187  0.00  0.00    +0.000 NA
ATOM     29  N   UNL     1     -34.696 108.011   7.690  0.00  0.00    +0.000 N 
ATOM     30  N   UNL     1     -32.931 109.427   8.117  0.00  0.00    +0.000 N 
ATOM     31  C   UNL     1     -34.906 105.470   3.561  0.00  0.00    +0.000 C 
ATOM     32  C   UNL     1     -33.647 106.065   3.385  0.00  0.00    +0.000 C 
ATOM     33  C   UNL     1     -34.787 106.699   5.642  0.00  0.00    +0.000 A 
ATOM     34  C   UNL     1     -33.548 107.241   5.378  0.00  0.00    +0.000 A 
ATOM     35  C   UNL     1     -35.425 107.158   6.919  0.00  0.00    +0.000 A 
ATOM     36  C   UNL     1     -33.512 108.524   7.292  0.00  0.00    +0.000 A 
ATOM     37  H   UNL     1     -32.276 107.652   3.883  0.00  0.00    +0.000 HD
ATOM     38  H   UNL     1     -35.149 108.352   8.522  0.00  0.00    +0.000 HD
ATOM     39  H   UNL     1     -31.963 109.608   7.865  0.00  0.00    +0.000 HD
ATOM     40  H   UNL     1     -33.053 109.284   9.111  0.00  0.00    +0.000 HD
BRANCH  26  42
ATOM     41  O   UNL     1     -37.724 104.771   5.315  0.00  0.00    +0.000 OA
ATOM     42  C   UNL     1     -36.678 105.266   5.103  0.00  0.00    +0.000 C 
ENDBRANCH  26  42
ENDBRANCH  24  31
ENDBRANCH   1  24
TORSDOF 10
ENDMDL
MODEL 6
REMARK VINA RESULT:      -6.2     22.016     23.454
REMARK  Name = 135403648_CalciumFolinate.pdbqt.pdb
REMARK  10 active torsions:
REMARK  status: ('A' for Active; 'I' for Inactive)
REMARK    1  A    between atoms: N_1  and  C_3
REMARK    2  A    between atoms: N_1  and  C_24
REMARK    3  A    between atoms: C_6  and  C_11
REMARK    4  A    between atoms: CA_13  and  C_15
REMARK    5  A    between atoms: CA_13  and  CB_18
REMARK    6  A    between atoms: C_15  and  O_16
REMARK    7  A    between atoms: CG_19  and  CD_21
REMARK    8  A    between atoms: CD_21  and  OE1_22
REMARK    9  A    between atoms: C_24  and  C_32
REMARK   10  A    between atoms: N_27  and  C_37
REMARK                            x       y       z     vdW  Elec       q    Type
REMARK                         _______ _______ _______ _____ _____    ______ ____
ROOT
ATOM      1  N   UNL     1     -29.259  80.949   9.278  0.00  0.00    +0.000 N 
ATOM      2  H   UNL     1     -28.714  80.160   9.626  0.00  0.00    +0.000 HD
ENDROOT
BRANCH   1   3
ATOM      3  C   UNL     1     -30.555  80.564   8.877  0.00  0.00    +0.000 A 
ATOM      4  C   UNL     1     -31.617  80.708   9.775  0.00  0.00    +0.000 A 
ATOM      5  C   UNL     1     -30.792  79.876   7.681  0.00  0.00    +0.000 A 
ATOM      6  C   UNL     1     -33.125  79.604   8.245  0.00  0.00    +0.000 A 
ATOM      7  C   UNL     1     -32.895  80.248   9.458  0.00  0.00    +0.000 A 
ATOM      8  C   UNL     1     -32.066  79.414   7.357  0.00  0.00    +0.000 A 
BRANCH   6  11
ATOM      9  O   UNL     1     -35.129  78.496   8.698  0.00  0.00    +0.000 OA
ATOM     10  N   UNL     1     -34.868  79.361   6.565  0.00  0.00    +0.000 N 
ATOM     11  C   ACE A   0     -34.468  79.101   7.862  0.00  0.00    +0.000 C 
ATOM     12  H   UNL     1     -34.244  79.868   5.942  0.00  0.00    +0.000 HD
ATOM     13  CA  UNL     1     -36.064  78.997   5.972  0.00  0.00    +0.000 C 
BRANCH  13  15
ATOM     14  OXT UNL     1     -37.007  80.274   4.185  0.00  0.00    +0.000 OA
ATOM     15  C   UNL     1     -36.233  79.404   4.556  0.00  0.00    +0.000 C 
BRANCH  15  16
ATOM     16  O   UNL     1     -35.454  78.732   3.694  0.00  0.00    +0.000 OA
ATOM     17  H   UNL     1     -35.883  78.852   2.821  0.00  0.00    +0.000 HD
ENDBRANCH  15  16
ENDBRANCH  13  15
BRANCH  13  18
ATOM     18  CB  UNL     1     -37.070  78.281   6.673  0.00  0.00    +0.000 C 
ATOM     19  CG  UNL     1     -38.164  77.517   7.428  0.00  0.00    +0.000 C 
BRANCH  19  21
ATOM     20  OE2 UNL     1     -39.482  75.652   7.924  0.00  0.00    +0.000 OA
ATOM     21  CD  UNL     1     -39.198  76.818   8.130  0.00  0.00    +0.000 C 
BRANCH  21  22
ATOM     22  OE1 UNL     1     -39.853  77.570   9.032  0.00  0.00    +0.000 OA
ATOM     23  HE1 UNL     1     -39.906  76.987   9.816  0.00  0.00    +0.000 HD
ENDBRANCH  21  22
ENDBRANCH  19  21
ENDBRANCH  13  18
ENDBRANCH   6  11
ENDBRANCH   1   3
BRANCH   1  24
ATOM     24  C   UNL     1     -29.094  82.204  10.001  0.00  0.00    +0.000 C 
BRANCH  24  31
ATOM     25  O   UNL     1     -28.043  84.015  14.827  0.00  0.00    +0.000 OA
ATOM     26  N   UNL     1     -28.585  83.546  12.010  0.00  0.00    +0.000 N 
ATOM     27  N   UNL     1     -29.055  86.042  10.576  0.00  0.00    +0.000 N 
ATOM     28  N   UNL     1     -28.820  87.242  12.592  0.00  0.00    +0.000 NA
ATOM     29  N   UNL     1     -28.192  86.231  14.576  0.00  0.00    +0.000 N 
ATOM     30  N   UNL     1     -28.518  88.509  14.484  0.00  0.00    +0.000 N 
ATOM     31  C   UNL     1     -28.975  83.446  10.679  0.00  0.00    +0.000 C 
ATOM     32  C   UNL     1     -29.205  84.703  10.097  0.00  0.00    +0.000 C 
ATOM     33  C   UNL     1     -28.539  84.833  12.614  0.00  0.00    +0.000 A 
ATOM     34  C   UNL     1     -28.790  86.018  11.958  0.00  0.00    +0.000 A 
ATOM     35  C   UNL     1     -28.234  84.966  14.076  0.00  0.00    +0.000 A 
ATOM     36  C   UNL     1     -28.520  87.317  13.843  0.00  0.00    +0.000 A 
ATOM     37  H   UNL     1     -29.711  86.783  10.349  0.00  0.00    +0.000 HD
ATOM     38  H   UNL     1     -28.034  86.310  15.568  0.00  0.00    +0.000 HD
ATOM     39  H   UNL     1     -28.565  89.292  13.838  0.00  0.00    +0.000 HD
ATOM     40  H   UNL     1     -27.819  88.640  15.203  0.00  0.00    +0.000 HD
BRANCH  26  42
ATOM     41  O   UNL     1     -28.041  81.467  13.337  0.00  0.00    +0.000 OA
ATOM     42  C   UNL     1     -28.303  82.412  12.689  0.00  0.00    +0.000 C 
ENDBRANCH  26  42
ENDBRANCH  24  31
ENDBRANCH   1  24
TORSDOF 10
ENDMDL
MODEL 7
REMARK VINA RESULT:      -6.1      2.726     11.395
REMARK  Name = 135403648_CalciumFolinate.pdbqt.pdb
REMARK  10 active torsions:
REMARK  status: ('A' for Active; 'I' for Inactive)
REMARK    1  A    between atoms: N_1  and  C_3
REMARK    2  A    between atoms: N_1  and  C_24
REMARK    3  A    between atoms: C_6  and  C_11
REMARK    4  A    between atoms: CA_13  and  C_15
REMARK    5  A    between atoms: CA_13  and  CB_18
REMARK    6  A    between atoms: C_15  and  O_16
REMARK    7  A    between atoms: CG_19  and  CD_21
REMARK    8  A    between atoms: CD_21  and  OE1_22
REMARK    9  A    between atoms: C_24  and  C_32
REMARK   10  A    between atoms: N_27  and  C_37
REMARK                            x       y       z     vdW  Elec       q    Type
REMARK                         _______ _______ _______ _____ _____    ______ ____
ROOT
ATOM      1  N   UNL     1     -46.967 101.150   0.285  0.00  0.00    +0.000 N 
ATOM      2  H   UNL     1     -47.526 102.003   0.258  0.00  0.00    +0.000 HD
ENDROOT
BRANCH   1   3
ATOM      3  C   UNL     1     -45.681 101.373   0.821  0.00  0.00    +0.000 A 
ATOM      4  C   UNL     1     -45.285 100.661   1.958  0.00  0.00    +0.000 A 
ATOM      5  C   UNL     1     -44.854 102.406   0.367  0.00  0.00    +0.000 A 
ATOM      6  C   UNL     1     -43.231 101.925   2.091  0.00  0.00    +0.000 A 
ATOM      7  C   UNL     1     -44.064 100.922   2.579  0.00  0.00    +0.000 A 
ATOM      8  C   UNL     1     -43.632 102.672   0.982  0.00  0.00    +0.000 A 
BRANCH   6  11
ATOM      9  O   UNL     1     -40.897 101.987   2.090  0.00  0.00    +0.000 OA
ATOM     10  N   UNL     1     -41.967 102.790   3.981  0.00  0.00    +0.000 N 
ATOM     11  C   ACE A   0     -41.922 102.236   2.716  0.00  0.00    +0.000 C 
ATOM     12  H   UNL     1     -42.869 102.955   4.422  0.00  0.00    +0.000 HD
ATOM     13  CA  UNL     1     -40.891 103.163   4.768  0.00  0.00    +0.000 C 
BRANCH  13  15
ATOM     14  OXT UNL     1     -42.366 104.016   6.444  0.00  0.00    +0.000 OA
ATOM     15  C   UNL     1     -41.230 103.732   6.095  0.00  0.00    +0.000 C 
BRANCH  15  16
ATOM     16  O   UNL     1     -40.173 103.915   6.901  0.00  0.00    +0.000 OA
ATOM     17  H   UNL     1     -40.089 104.887   6.990  0.00  0.00    +0.000 HD
ENDBRANCH  15  16
ENDBRANCH  13  15
BRANCH  13  18
ATOM     18  CB  UNL     1     -39.548 103.012   4.335  0.00  0.00    +0.000 C 
ATOM     19  CG  UNL     1     -38.093 102.856   3.878  0.00  0.00    +0.000 C 
BRANCH  19  21
ATOM     20  OE2 UNL     1     -36.377 102.050   2.511  0.00  0.00    +0.000 OA
ATOM     21  CD  UNL     1     -36.729 102.720   3.466  0.00  0.00    +0.000 C 
BRANCH  21  22
ATOM     22  OE1 UNL     1     -35.853 103.382   4.243  0.00  0.00    +0.000 OA
ATOM     23  HE1 UNL     1     -35.073 103.491   3.662  0.00  0.00    +0.000 HD
ENDBRANCH  21  22
ENDBRANCH  19  21
ENDBRANCH  13  18
ENDBRANCH   6  11
ENDBRANCH   1   3
BRANCH   1  24
ATOM     24  C   UNL     1     -47.680  99.934   0.658  0.00  0.00    +0.000 C 
BRANCH  24  31
ATOM     25  O   UNL     1     -49.228  97.232   4.898  0.00  0.00    +0.000 OA
ATOM     26  N   UNL     1     -48.682  98.361   2.275  0.00  0.00    +0.000 N 
ATOM     27  N   UNL     1     -49.612  96.609   0.136  0.00  0.00    +0.000 N 
ATOM     28  N   UNL     1     -50.307  95.025   1.738  0.00  0.00    +0.000 NA
ATOM     29  N   UNL     1     -50.229  95.439   4.013  0.00  0.00    +0.000 N 
ATOM     30  N   UNL     1     -51.098  93.459   3.221  0.00  0.00    +0.000 N 
ATOM     31  C   UNL     1     -48.370  98.733   0.972  0.00  0.00    +0.000 C 
ATOM     32  C   UNL     1     -48.836  97.805   0.028  0.00  0.00    +0.000 C 
ATOM     33  C   UNL     1     -49.335  97.116   2.491  0.00  0.00    +0.000 A 
ATOM     34  C   UNL     1     -49.752  96.263   1.493  0.00  0.00    +0.000 A 
ATOM     35  C   UNL     1     -49.583  96.630   3.889  0.00  0.00    +0.000 A 
ATOM     36  C   UNL     1     -50.533  94.659   2.953  0.00  0.00    +0.000 A 
ATOM     37  H   UNL     1     -49.432  95.785  -0.429  0.00  0.00    +0.000 HD
ATOM     38  H   UNL     1     -50.349  95.097   4.952  0.00  0.00    +0.000 HD
ATOM     39  H   UNL     1     -51.488  93.025   2.389  0.00  0.00    +0.000 HD
ATOM     40  H   UNL     1     -51.728  93.416   4.011  0.00  0.00    +0.000 HD
BRANCH  26  42
ATOM     41  O   UNL     1     -47.951  99.838   4.189  0.00  0.00    +0.000 OA
ATOM     42  C   UNL     1     -48.317  99.177   3.288  0.00  0.00    +0.000 C 
ENDBRANCH  26  42
ENDBRANCH  24  31
ENDBRANCH   1  24
TORSDOF 10
ENDMDL
MODEL 8
REMARK VINA RESULT:      -6.1     22.312     23.805
REMARK  Name = 135403648_CalciumFolinate.pdbqt.pdb
REMARK  10 active torsions:
REMARK  status: ('A' for Active; 'I' for Inactive)
REMARK    1  A    between atoms: N_1  and  C_3
REMARK    2  A    between atoms: N_1  and  C_24
REMARK    3  A    between atoms: C_6  and  C_11
REMARK    4  A    between atoms: CA_13  and  C_15
REMARK    5  A    between atoms: CA_13  and  CB_18
REMARK    6  A    between atoms: C_15  and  O_16
REMARK    7  A    between atoms: CG_19  and  CD_21
REMARK    8  A    between atoms: CD_21  and  OE1_22
REMARK    9  A    between atoms: C_24  and  C_32
REMARK   10  A    between atoms: N_27  and  C_37
REMARK                            x       y       z     vdW  Elec       q    Type
REMARK                         _______ _______ _______ _____ _____    ______ ____
ROOT
ATOM      1  N   UNL     1     -25.109 104.901   1.235  0.00  0.00    +0.000 N 
ATOM      2  H   UNL     1     -25.017 105.898   1.425  0.00  0.00    +0.000 HD
ENDROOT
BRANCH   1   3
ATOM      3  C   UNL     1     -24.824 104.587  -0.111  0.00  0.00    +0.000 A 
ATOM      4  C   UNL     1     -25.500 105.270  -1.128  0.00  0.00    +0.000 A 
ATOM      5  C   UNL     1     -24.023 103.496  -0.468  0.00  0.00    +0.000 A 
ATOM      6  C   UNL     1     -24.490 103.862  -2.810  0.00  0.00    +0.000 A 
ATOM      7  C   UNL     1     -25.324 104.923  -2.467  0.00  0.00    +0.000 A 
ATOM      8  C   UNL     1     -23.842 103.144  -1.804  0.00  0.00    +0.000 A 
BRANCH   6  11
ATOM      9  O   UNL     1     -25.100 103.780  -5.062  0.00  0.00    +0.000 OA
ATOM     10  N   UNL     1     -23.119 102.735  -4.475  0.00  0.00    +0.000 N 
ATOM     11  C   ACE A   0     -24.269 103.458  -4.221  0.00  0.00    +0.000 C 
ATOM     12  H   UNL     1     -22.490 102.511  -3.707  0.00  0.00    +0.000 HD
ATOM     13  CA  UNL     1     -22.693 102.246  -5.697  0.00  0.00    +0.000 C 
BRANCH  13  15
ATOM     14  OXT UNL     1     -20.705 101.338  -6.665  0.00  0.00    +0.000 OA
ATOM     15  C   UNL     1     -21.414 101.495  -5.682  0.00  0.00    +0.000 C 
BRANCH  15  16
ATOM     16  O   UNL     1     -21.086 100.991  -4.482  0.00  0.00    +0.000 OA
ATOM     17  H   UNL     1     -20.706 100.109  -4.675  0.00  0.00    +0.000 HD
ENDBRANCH  15  16
ENDBRANCH  13  15
BRANCH  13  18
ATOM     18  CB  UNL     1     -23.430 102.449  -6.893  0.00  0.00    +0.000 C 
ATOM     19  CG  UNL     1     -24.237 102.664  -8.179  0.00  0.00    +0.000 C 
BRANCH  19  21
ATOM     20  OE2 UNL     1     -26.153 103.266  -9.373  0.00  0.00    +0.000 OA
ATOM     21  CD  UNL     1     -25.005 102.860  -9.371  0.00  0.00    +0.000 C 
BRANCH  21  22
ATOM     22  OE1 UNL     1     -24.355 102.534 -10.502  0.00  0.00    +0.000 OA
ATOM     23  HE1 UNL     1     -25.058 102.558 -11.182  0.00  0.00    +0.000 HD
ENDBRANCH  21  22
ENDBRANCH  19  21
ENDBRANCH  13  18
ENDBRANCH   6  11
ENDBRANCH   1   3
BRANCH   1  24
ATOM     24  C   UNL     1     -24.625 104.006   2.279  0.00  0.00    +0.000 C 
BRANCH  24  31
ATOM     25  O   UNL     1     -22.924 104.057   7.257  0.00  0.00    +0.000 OA
ATOM     26  N   UNL     1     -23.857 103.479   4.565  0.00  0.00    +0.000 N 
ATOM     27  N   UNL     1     -23.600 100.645   3.925  0.00  0.00    +0.000 N 
ATOM     28  N   UNL     1     -22.623 100.258   6.035  0.00  0.00    +0.000 NA
ATOM     29  N   UNL     1     -22.454 101.907   7.649  0.00  0.00    +0.000 N 
ATOM     30  N   UNL     1     -21.745  99.764   8.099  0.00  0.00    +0.000 N 
ATOM     31  C   UNL     1     -24.158 103.095   3.263  0.00  0.00    +0.000 C 
ATOM     32  C   UNL     1     -23.969 101.719   3.057  0.00  0.00    +0.000 C 
ATOM     33  C   UNL     1     -23.352 102.501   5.466  0.00  0.00    +0.000 A 
ATOM     34  C   UNL     1     -23.194 101.164   5.168  0.00  0.00    +0.000 A 
ATOM     35  C   UNL     1     -22.909 102.903   6.841  0.00  0.00    +0.000 A 
ATOM     36  C   UNL     1     -22.286 100.638   7.220  0.00  0.00    +0.000 A 
ATOM     37  H   UNL     1     -22.987  99.889   3.634  0.00  0.00    +0.000 HD
ATOM     38  H   UNL     1     -22.114 102.192   8.554  0.00  0.00    +0.000 HD
ATOM     39  H   UNL     1     -21.842  98.800   7.791  0.00  0.00    +0.000 HD
ATOM     40  H   UNL     1     -21.988  99.885   9.074  0.00  0.00    +0.000 HD
BRANCH  26  42
ATOM     41  O   UNL     1     -24.193 105.912   5.151  0.00  0.00    +0.000 OA
ATOM     42  C   UNL     1     -24.020 104.774   4.913  0.00  0.00    +0.000 C 
ENDBRANCH  26  42
ENDBRANCH  24  31
ENDBRANCH   1  24
TORSDOF 10
ENDMDL
MODEL 9
REMARK VINA RESULT:      -6.0     21.342     22.637
REMARK  Name = 135403648_CalciumFolinate.pdbqt.pdb
REMARK  10 active torsions:
REMARK  status: ('A' for Active; 'I' for Inactive)
REMARK    1  A    between atoms: N_1  and  C_3
REMARK    2  A    between atoms: N_1  and  C_24
REMARK    3  A    between atoms: C_6  and  C_11
REMARK    4  A    between atoms: CA_13  and  C_15
REMARK    5  A    between atoms: CA_13  and  CB_18
REMARK    6  A    between atoms: C_15  and  O_16
REMARK    7  A    between atoms: CG_19  and  CD_21
REMARK    8  A    between atoms: CD_21  and  OE1_22
REMARK    9  A    between atoms: C_24  and  C_32
REMARK   10  A    between atoms: N_27  and  C_37
REMARK                            x       y       z     vdW  Elec       q    Type
REMARK                         _______ _______ _______ _____ _____    ______ ____
ROOT
ATOM      1  N   UNL     1     -33.561  77.515   6.450  0.00  0.00    +0.000 N 
ATOM      2  H   UNL     1     -33.909  76.741   7.015  0.00  0.00    +0.000 HD
ENDROOT
BRANCH   1   3
ATOM      3  C   UNL     1     -34.582  78.114   5.682  0.00  0.00    +0.000 A 
ATOM      4  C   UNL     1     -34.631  77.868   4.306  0.00  0.00    +0.000 A 
ATOM      5  C   UNL     1     -35.439  79.086   6.210  0.00  0.00    +0.000 A 
ATOM      6  C   UNL     1     -36.435  79.452   4.040  0.00  0.00    +0.000 A 
ATOM      7  C   UNL     1     -35.559  78.518   3.493  0.00  0.00    +0.000 A 
ATOM      8  C   UNL     1     -36.369  79.738   5.404  0.00  0.00    +0.000 A 
BRANCH   6  11
ATOM      9  O   UNL     1     -38.631  79.933   3.409  0.00  0.00    +0.000 OA
ATOM     10  N   UNL     1     -36.945  81.049   2.277  0.00  0.00    +0.000 N 
ATOM     11  C   ACE A   0     -37.442  80.165   3.216  0.00  0.00    +0.000 C 
ATOM     12  H   UNL     1     -35.940  81.170   2.188  0.00  0.00    +0.000 HD
ATOM     13  CA  UNL     1     -37.675  81.825   1.394  0.00  0.00    +0.000 C 
BRANCH  13  15
ATOM     14  OXT UNL     1     -37.284  83.093  -0.595  0.00  0.00    +0.000 OA
ATOM     15  C   UNL     1     -36.881  82.688   0.486  0.00  0.00    +0.000 C 
BRANCH  15  16
ATOM     16  O   UNL     1     -35.661  83.000   0.950  0.00  0.00    +0.000 OA
ATOM     17  H   UNL     1     -35.782  83.847   1.428  0.00  0.00    +0.000 HD
ENDBRANCH  15  16
ENDBRANCH  13  15
BRANCH  13  18
ATOM     18  CB  UNL     1     -39.094  81.801   1.356  0.00  0.00    +0.000 C 
ATOM     19  CG  UNL     1     -40.626  81.781   1.306  0.00  0.00    +0.000 C 
BRANCH  19  21
ATOM     20  OE2 UNL     1     -42.695  80.978   0.574  0.00  0.00    +0.000 OA
ATOM     21  CD  UNL     1     -42.056  81.771   1.242  0.00  0.00    +0.000 C 
BRANCH  21  22
ATOM     22  OE1 UNL     1     -42.644  82.735   1.973  0.00  0.00    +0.000 OA
ATOM     23  HE1 UNL     1     -43.337  82.252   2.468  0.00  0.00    +0.000 HD
ENDBRANCH  21  22
ENDBRANCH  19  21
ENDBRANCH  13  18
ENDBRANCH   6  11
ENDBRANCH   1   3
BRANCH   1  24
ATOM     24  C   UNL     1     -32.570  78.373   7.088  0.00  0.00    +0.000 C 
BRANCH  24  31
ATOM     25  O   UNL     1     -31.408  80.455  11.778  0.00  0.00    +0.000 OA
ATOM     26  N   UNL     1     -31.564  79.518   9.030  0.00  0.00    +0.000 N 
ATOM     27  N   UNL     1     -29.493  80.721   7.365  0.00  0.00    +0.000 N 
ATOM     28  N   UNL     1     -28.750  81.989   9.209  0.00  0.00    +0.000 NA
ATOM     29  N   UNL     1     -29.615  81.715  11.337  0.00  0.00    +0.000 N 
ATOM     30  N   UNL     1     -27.895  83.200  10.964  0.00  0.00    +0.000 N 
ATOM     31  C   UNL     1     -31.608  79.242   7.668  0.00  0.00    +0.000 C 
ATOM     32  C   UNL     1     -30.587  79.896   6.960  0.00  0.00    +0.000 C 
ATOM     33  C   UNL     1     -30.590  80.437   9.509  0.00  0.00    +0.000 A 
ATOM     34  C   UNL     1     -29.626  81.038   8.730  0.00  0.00    +0.000 A 
ATOM     35  C   UNL     1     -30.588  80.845  10.953  0.00  0.00    +0.000 A 
ATOM     36  C   UNL     1     -28.760  82.287  10.463  0.00  0.00    +0.000 A 
ATOM     37  H   UNL     1     -29.191  81.533   6.835  0.00  0.00    +0.000 HD
ATOM     38  H   UNL     1     -29.649  82.021  12.296  0.00  0.00    +0.000 HD
ATOM     39  H   UNL     1     -27.155  83.429  10.306  0.00  0.00    +0.000 HD
ATOM     40  H   UNL     1     -27.545  83.034  11.898  0.00  0.00    +0.000 HD
BRANCH  26  42
ATOM     41  O   UNL     1     -33.293  78.391  10.486  0.00  0.00    +0.000 OA
ATOM     42  C   UNL     1     -32.473  78.932   9.840  0.00  0.00    +0.000 C 
ENDBRANCH  26  42
ENDBRANCH  24  31
ENDBRANCH   1  24
TORSDOF 10
ENDMDL
