MODEL 1
REMARK VINA RESULT:      -6.7      0.000      0.000
REMARK  Name = 135423438_Nintedanib.pdbqt.pdb
REMARK  9 active torsions:
REMARK  status: ('A' for Active; 'I' for Inactive)
REMARK    1  A    between atoms: N_1  and  C_22
REMARK    2  A    between atoms: C_2  and  C_4
REMARK    3  A    between atoms: C_2  and  C_37
REMARK    4  A    between atoms: C_7  and  O_13
REMARK    5  A    between atoms: C_10  and  C_16
REMARK    6  A    between atoms: C_16  and  O_17
REMARK    7  A    between atoms: C_19  and  N_26
REMARK    8  A    between atoms: C_27  and  C_29
REMARK    9  A    between atoms: C_29  and  N_30
REMARK                            x       y       z     vdW  Elec       q    Type
REMARK                         _______ _______ _______ _____ _____    ______ ____
ROOT
ATOM      1  N   UNL     1     -22.932 102.044   2.434  0.00  0.00    +0.000 NA
ATOM      2  C   UNL     1     -23.547 102.635   3.418  0.00  0.00    +0.000 C 
ENDROOT
BRANCH   2   4
ATOM      3  N   UNL     1     -24.238 100.317   6.169  0.00  0.00    +0.000 N 
ATOM      4  C   UNL     1     -23.668 101.874   4.669  0.00  0.00    +0.000 A 
ATOM      5  C   UNL     1     -23.100 102.215   5.946  0.00  0.00    +0.000 A 
ATOM      6  C   UNL     1     -23.471 101.226   6.855  0.00  0.00    +0.000 A 
ATOM      7  C   UNL     1     -24.372 100.692   4.856  0.00  0.00    +0.000 A 
ATOM      8  C   UNL     1     -22.295 103.276   6.411  0.00  0.00    +0.000 A 
ATOM      9  C   UNL     1     -23.086 101.241   8.199  0.00  0.00    +0.000 A 
ATOM     10  C   UNL     1     -22.290 102.310   8.630  0.00  0.00    +0.000 A 
ATOM     11  C   UNL     1     -21.898 103.312   7.749  0.00  0.00    +0.000 A 
ATOM     12  H   UNL     1     -24.646  99.494   6.587  0.00  0.00    +0.000 HD
BRANCH   7  13
ATOM     13  O   UNL     1     -25.089  99.970   4.002  0.00  0.00    +0.000 OA
ATOM     14  H   UNL     1     -24.632  99.138   3.785  0.00  0.00    +0.000 HD
ENDBRANCH   7  13
BRANCH  10  16
ATOM     15  O   UNL     1     -21.717 103.479  10.615  0.00  0.00    +0.000 OA
ATOM     16  C   UNL     1     -21.834 102.410  10.034  0.00  0.00    +0.000 C 
BRANCH  16  17
ATOM     17  O   UNL     1     -21.593 101.153  10.504  0.00  0.00    +0.000 OA
ATOM     18  C   UNL     1     -20.258 100.772  10.719  0.00  0.00    +0.000 C 
ENDBRANCH  16  17
ENDBRANCH  10  16
ENDBRANCH   2   4
BRANCH   1  22
ATOM     19  C   UNL     1     -22.454 103.860  -1.358  0.00  0.00    +0.000 A 
ATOM     20  C   UNL     1     -21.446 103.907  -0.392  0.00  0.00    +0.000 A 
ATOM     21  C   UNL     1     -23.634 103.186  -1.017  0.00  0.00    +0.000 A 
ATOM     22  C   UNL     1     -22.796 102.676   1.192  0.00  0.00    +0.000 A 
ATOM     23  C   UNL     1     -21.603 103.317   0.861  0.00  0.00    +0.000 A 
ATOM     24  C   UNL     1     -23.804 102.592   0.233  0.00  0.00    +0.000 A 
BRANCH  19  26
ATOM     25  O   UNL     1     -21.538 102.512  -3.750  0.00  0.00    +0.000 OA
ATOM     26  N   UNL     1     -22.298 104.477  -2.656  0.00  0.00    +0.000 N 
ATOM     27  C   UNL     1     -21.838 103.702  -3.750  0.00  0.00    +0.000 C 
ATOM     28  C   UNL     1     -22.636 105.901  -2.716  0.00  0.00    +0.000 C 
BRANCH  27  29
ATOM     29  C   UNL     1     -21.698 104.394  -5.024  0.00  0.00    +0.000 C 
BRANCH  29  30
ATOM     30  N   UNL     1     -21.574 105.112  -6.291  0.00  0.00    +0.000 N 
ATOM     31  N   UNL     1     -23.766 104.040  -8.870  0.00  0.00    +0.000 N 
ATOM     32  C   UNL     1     -21.433 104.081  -7.357  0.00  0.00    +0.000 C 
ATOM     33  C   UNL     1     -22.950 105.537  -6.672  0.00  0.00    +0.000 C 
ATOM     34  C   UNL     1     -22.395 103.608  -8.486  0.00  0.00    +0.000 C 
ATOM     35  C   UNL     1     -23.912 105.064  -7.801  0.00  0.00    +0.000 C 
ATOM     36  C   UNL     1     -24.664 102.944  -8.531  0.00  0.00    +0.000 C 
ENDBRANCH  29  30
ENDBRANCH  27  29
ENDBRANCH  19  26
ENDBRANCH   1  22
BRANCH   2  37
ATOM     37  C   UNL     1     -24.122 103.991   3.362  0.00  0.00    +0.000 A 
ATOM     38  C   UNL     1     -25.485 104.148   3.114  0.00  0.00    +0.000 A 
ATOM     39  C   UNL     1     -23.296 105.089   3.592  0.00  0.00    +0.000 A 
ATOM     40  C   UNL     1     -26.024 105.430   3.089  0.00  0.00    +0.000 A 
ATOM     41  C   UNL     1     -23.846 106.367   3.564  0.00  0.00    +0.000 A 
ATOM     42  C   UNL     1     -25.207 106.537   3.314  0.00  0.00    +0.000 A 
ENDBRANCH   2  37
TORSDOF 9
ENDMDL
MODEL 2
REMARK VINA RESULT:      -6.3     16.661     23.100
REMARK  Name = 135423438_Nintedanib.pdbqt.pdb
REMARK  9 active torsions:
REMARK  status: ('A' for Active; 'I' for Inactive)
REMARK    1  A    between atoms: N_1  and  C_22
REMARK    2  A    between atoms: C_2  and  C_4
REMARK    3  A    between atoms: C_2  and  C_37
REMARK    4  A    between atoms: C_7  and  O_13
REMARK    5  A    between atoms: C_10  and  C_16
REMARK    6  A    between atoms: C_16  and  O_17
REMARK    7  A    between atoms: C_19  and  N_26
REMARK    8  A    between atoms: C_27  and  C_29
REMARK    9  A    between atoms: C_29  and  N_30
REMARK                            x       y       z     vdW  Elec       q    Type
REMARK                         _______ _______ _______ _____ _____    ______ ____
ROOT
ATOM      1  N   UNL     1     -30.257  99.880  17.707  0.00  0.00    +0.000 NA
ATOM      2  C   UNL     1     -31.417  99.548  17.218  0.00  0.00    +0.000 C 
ENDROOT
BRANCH   2   4
ATOM      3  N   UNL     1     -31.459 100.503  13.681  0.00  0.00    +0.000 N 
ATOM      4  C   UNL     1     -31.699  99.980  15.842  0.00  0.00    +0.000 A 
ATOM      5  C   UNL     1     -32.959 100.441  15.322  0.00  0.00    +0.000 A 
ATOM      6  C   UNL     1     -32.775 100.754  13.977  0.00  0.00    +0.000 A 
ATOM      7  C   UNL     1     -30.795 100.041  14.789  0.00  0.00    +0.000 A 
ATOM      8  C   UNL     1     -34.245 100.613  15.875  0.00  0.00    +0.000 A 
ATOM      9  C   UNL     1     -33.802 101.234  13.157  0.00  0.00    +0.000 A 
ATOM     10  C   UNL     1     -35.067 101.397  13.737  0.00  0.00    +0.000 A 
ATOM     11  C   UNL     1     -35.286 101.090  15.076  0.00  0.00    +0.000 A 
ATOM     12  H   UNL     1     -31.047 100.647  12.771  0.00  0.00    +0.000 HD
BRANCH   7  13
ATOM     13  O   UNL     1     -29.500  99.745  14.746  0.00  0.00    +0.000 OA
ATOM     14  H   UNL     1     -29.212  99.590  13.830  0.00  0.00    +0.000 HD
ENDBRANCH   7  13
BRANCH  10  16
ATOM     15  O   UNL     1     -36.535 103.077  12.928  0.00  0.00    +0.000 OA
ATOM     16  C   UNL     1     -36.214 101.898  12.948  0.00  0.00    +0.000 C 
BRANCH  16  17
ATOM     17  O   UNL     1     -36.789 100.846  12.299  0.00  0.00    +0.000 OA
ATOM     18  C   UNL     1     -38.083 100.458  12.685  0.00  0.00    +0.000 C 
ENDBRANCH  16  17
ENDBRANCH  10  16
ENDBRANCH   2   4
BRANCH   1  22
ATOM     19  C   UNL     1     -29.325  98.874  21.710  0.00  0.00    +0.000 A 
ATOM     20  C   UNL     1     -29.537 100.198  21.319  0.00  0.00    +0.000 A 
ATOM     21  C   UNL     1     -29.434  97.890  20.719  0.00  0.00    +0.000 A 
ATOM     22  C   UNL     1     -29.911  99.543  19.021  0.00  0.00    +0.000 A 
ATOM     23  C   UNL     1     -29.835 100.534  19.999  0.00  0.00    +0.000 A 
ATOM     24  C   UNL     1     -29.732  98.213  19.396  0.00  0.00    +0.000 A 
BRANCH  19  26
ATOM     25  O   UNL     1     -26.818  97.737  22.606  0.00  0.00    +0.000 OA
ATOM     26  N   UNL     1     -29.008  98.522  23.076  0.00  0.00    +0.000 N 
ATOM     27  C   UNL     1     -27.739  97.970  23.382  0.00  0.00    +0.000 C 
ATOM     28  C   UNL     1     -30.075  98.773  24.049  0.00  0.00    +0.000 C 
BRANCH  27  29
ATOM     29  C   UNL     1     -27.497  97.633  24.778  0.00  0.00    +0.000 C 
BRANCH  29  30
ATOM     30  N   UNL     1     -27.279  97.309  26.187  0.00  0.00    +0.000 N 
ATOM     31  N   UNL     1     -25.825  99.893  28.139  0.00  0.00    +0.000 N 
ATOM     32  C   UNL     1     -25.862  97.652  26.493  0.00  0.00    +0.000 C 
ATOM     33  C   UNL     1     -27.879  98.422  26.974  0.00  0.00    +0.000 C 
ATOM     34  C   UNL     1     -25.224  98.786  27.346  0.00  0.00    +0.000 C 
ATOM     35  C   UNL     1     -27.240  99.557  27.827  0.00  0.00    +0.000 C 
ATOM     36  C   UNL     1     -25.519 101.131  27.435  0.00  0.00    +0.000 C 
ENDBRANCH  29  30
ENDBRANCH  27  29
ENDBRANCH  19  26
ENDBRANCH   1  22
BRANCH   2  37
ATOM     37  C   UNL     1     -32.452  98.786  17.940  0.00  0.00    +0.000 A 
ATOM     38  C   UNL     1     -33.166  99.401  18.966  0.00  0.00    +0.000 A 
ATOM     39  C   UNL     1     -32.718  97.472  17.558  0.00  0.00    +0.000 A 
ATOM     40  C   UNL     1     -34.159  98.683  19.625  0.00  0.00    +0.000 A 
ATOM     41  C   UNL     1     -33.712  96.763  18.223  0.00  0.00    +0.000 A 
ATOM     42  C   UNL     1     -34.431  97.367  19.255  0.00  0.00    +0.000 A 
ENDBRANCH   2  37
TORSDOF 9
ENDMDL
MODEL 3
REMARK VINA RESULT:      -6.2      4.395     13.223
REMARK  Name = 135423438_Nintedanib.pdbqt.pdb
REMARK  9 active torsions:
REMARK  status: ('A' for Active; 'I' for Inactive)
REMARK    1  A    between atoms: N_1  and  C_22
REMARK    2  A    between atoms: C_2  and  C_4
REMARK    3  A    between atoms: C_2  and  C_37
REMARK    4  A    between atoms: C_7  and  O_13
REMARK    5  A    between atoms: C_10  and  C_16
REMARK    6  A    between atoms: C_16  and  O_17
REMARK    7  A    between atoms: C_19  and  N_26
REMARK    8  A    between atoms: C_27  and  C_29
REMARK    9  A    between atoms: C_29  and  N_30
REMARK                            x       y       z     vdW  Elec       q    Type
REMARK                         _______ _______ _______ _____ _____    ______ ____
ROOT
ATOM      1  N   UNL     1     -22.151 100.920   6.310  0.00  0.00    +0.000 NA
ATOM      2  C   UNL     1     -21.905 100.520   5.096  0.00  0.00    +0.000 C 
ENDROOT
BRANCH   2   4
ATOM      3  N   UNL     1     -24.751 101.138   2.873  0.00  0.00    +0.000 N 
ATOM      4  C   UNL     1     -22.870 100.921   4.063  0.00  0.00    +0.000 A 
ATOM      5  C   UNL     1     -22.612 101.748   2.914  0.00  0.00    +0.000 A 
ATOM      6  C   UNL     1     -23.802 101.865   2.198  0.00  0.00    +0.000 A 
ATOM      7  C   UNL     1     -24.209 100.561   3.993  0.00  0.00    +0.000 A 
ATOM      8  C   UNL     1     -21.471 102.414   2.421  0.00  0.00    +0.000 A 
ATOM      9  C   UNL     1     -23.912 102.606   1.017  0.00  0.00    +0.000 A 
ATOM     10  C   UNL     1     -22.760 103.253   0.551  0.00  0.00    +0.000 A 
ATOM     11  C   UNL     1     -21.558 103.160   1.244  0.00  0.00    +0.000 A 
ATOM     12  H   UNL     1     -25.710 101.046   2.573  0.00  0.00    +0.000 HD
BRANCH   7  13
ATOM     13  O   UNL     1     -24.939  99.794   4.797  0.00  0.00    +0.000 OA
ATOM     14  H   UNL     1     -25.666  99.373   4.305  0.00  0.00    +0.000 HD
ENDBRANCH   7  13
BRANCH  10  16
ATOM     15  O   UNL     1     -22.665 105.277  -0.684  0.00  0.00    +0.000 OA
ATOM     16  C   UNL     1     -22.782 104.060  -0.688  0.00  0.00    +0.000 C 
BRANCH  16  17
ATOM     17  O   UNL     1     -22.946 103.223  -1.751  0.00  0.00    +0.000 OA
ATOM     18  C   UNL     1     -22.157 103.437  -2.892  0.00  0.00    +0.000 C 
ENDBRANCH  16  17
ENDBRANCH  10  16
ENDBRANCH   2   4
BRANCH   1  22
ATOM     19  C   UNL     1     -19.672  99.895   9.582  0.00  0.00    +0.000 A 
ATOM     20  C   UNL     1     -19.593 101.148   8.969  0.00  0.00    +0.000 A 
ATOM     21  C   UNL     1     -20.608  98.989   9.066  0.00  0.00    +0.000 A 
ATOM     22  C   UNL     1     -21.308 100.560   7.368  0.00  0.00    +0.000 A 
ATOM     23  C   UNL     1     -20.402 101.486   7.885  0.00  0.00    +0.000 A 
ATOM     24  C   UNL     1     -21.423  99.315   7.983  0.00  0.00    +0.000 A 
BRANCH  19  26
ATOM     25  O   UNL     1     -20.384 100.190  12.372  0.00  0.00    +0.000 OA
ATOM     26  N   UNL     1     -18.830  99.538  10.701  0.00  0.00    +0.000 N 
ATOM     27  C   UNL     1     -19.299  99.734  12.024  0.00  0.00    +0.000 C 
ATOM     28  C   UNL     1     -17.517  98.993  10.346  0.00  0.00    +0.000 C 
BRANCH  27  29
ATOM     29  C   UNL     1     -18.391  99.358  13.099  0.00  0.00    +0.000 C 
BRANCH  29  30
ATOM     30  N   UNL     1     -17.493  99.002  14.196  0.00  0.00    +0.000 N 
ATOM     31  N   UNL     1     -14.451  97.449  13.231  0.00  0.00    +0.000 N 
ATOM     32  C   UNL     1     -17.120  97.574  13.999  0.00  0.00    +0.000 C 
ATOM     33  C   UNL     1     -16.157  99.559  13.845  0.00  0.00    +0.000 C 
ATOM     34  C   UNL     1     -15.788  96.893  13.573  0.00  0.00    +0.000 C 
ATOM     35  C   UNL     1     -14.824  98.877  13.419  0.00  0.00    +0.000 C 
ATOM     36  C   UNL     1     -14.262  97.246  11.801  0.00  0.00    +0.000 C 
ENDBRANCH  29  30
ENDBRANCH  27  29
ENDBRANCH  19  26
ENDBRANCH   1  22
BRANCH   2  37
ATOM     37  C   UNL     1     -20.746  99.703   4.695  0.00  0.00    +0.000 A 
ATOM     38  C   UNL     1     -20.919  98.342   4.447  0.00  0.00    +0.000 A 
ATOM     39  C   UNL     1     -19.504 100.316   4.537  0.00  0.00    +0.000 A 
ATOM     40  C   UNL     1     -19.825  97.583   4.043  0.00  0.00    +0.000 A 
ATOM     41  C   UNL     1     -18.417  99.548   4.134  0.00  0.00    +0.000 A 
ATOM     42  C   UNL     1     -18.577  98.185   3.887  0.00  0.00    +0.000 A 
ENDBRANCH   2  37
TORSDOF 9
ENDMDL
MODEL 4
REMARK VINA RESULT:      -6.2     16.410     23.421
REMARK  Name = 135423438_Nintedanib.pdbqt.pdb
REMARK  9 active torsions:
REMARK  status: ('A' for Active; 'I' for Inactive)
REMARK    1  A    between atoms: N_1  and  C_22
REMARK    2  A    between atoms: C_2  and  C_4
REMARK    3  A    between atoms: C_2  and  C_37
REMARK    4  A    between atoms: C_7  and  O_13
REMARK    5  A    between atoms: C_10  and  C_16
REMARK    6  A    between atoms: C_16  and  O_17
REMARK    7  A    between atoms: C_19  and  N_26
REMARK    8  A    between atoms: C_27  and  C_29
REMARK    9  A    between atoms: C_29  and  N_30
REMARK                            x       y       z     vdW  Elec       q    Type
REMARK                         _______ _______ _______ _____ _____    ______ ____
ROOT
ATOM      1  N   UNL     1     -29.404 101.241  18.670  0.00  0.00    +0.000 NA
ATOM      2  C   UNL     1     -30.100 100.341  18.038  0.00  0.00    +0.000 C 
ENDROOT
BRANCH   2   4
ATOM      3  N   UNL     1     -29.973 100.965  14.430  0.00  0.00    +0.000 N 
ATOM      4  C   UNL     1     -30.321 100.568  16.603  0.00  0.00    +0.000 A 
ATOM      5  C   UNL     1     -31.587 100.621  15.921  0.00  0.00    +0.000 A 
ATOM      6  C   UNL     1     -31.335 100.866  14.573  0.00  0.00    +0.000 A 
ATOM      7  C   UNL     1     -29.347 100.793  15.639  0.00  0.00    +0.000 A 
ATOM      8  C   UNL     1     -32.929 100.474  16.330  0.00  0.00    +0.000 A 
ATOM      9  C   UNL     1     -32.347 100.977  13.615  0.00  0.00    +0.000 A 
ATOM     10  C   UNL     1     -33.670 100.830  14.054  0.00  0.00    +0.000 A 
ATOM     11  C   UNL     1     -33.956 100.581  15.391  0.00  0.00    +0.000 A 
ATOM     12  H   UNL     1     -29.509 101.144  13.551  0.00  0.00    +0.000 HD
BRANCH   7  13
ATOM     13  O   UNL     1     -28.025 100.864  15.748  0.00  0.00    +0.000 OA
ATOM     14  H   UNL     1     -27.758 100.909  16.683  0.00  0.00    +0.000 HD
ENDBRANCH   7  13
BRANCH  10  16
ATOM     15  O   UNL     1     -34.752 101.589  12.083  0.00  0.00    +0.000 OA
ATOM     16  C   UNL     1     -34.806 100.931  13.112  0.00  0.00    +0.000 C 
BRANCH  16  17
ATOM     17  O   UNL     1     -35.843 100.192  13.598  0.00  0.00    +0.000 OA
ATOM     18  C   UNL     1     -36.882  99.849  12.718  0.00  0.00    +0.000 C 
ENDBRANCH  16  17
ENDBRANCH  10  16
ENDBRANCH   2   4
BRANCH   1  22
ATOM     19  C   UNL     1     -28.611 100.988  22.819  0.00  0.00    +0.000 A 
ATOM     20  C   UNL     1     -27.784 100.371  21.877  0.00  0.00    +0.000 A 
ATOM     21  C   UNL     1     -29.717 101.696  22.331  0.00  0.00    +0.000 A 
ATOM     22  C   UNL     1     -29.170 101.130  20.046  0.00  0.00    +0.000 A 
ATOM     23  C   UNL     1     -28.047 100.445  20.510  0.00  0.00    +0.000 A 
ATOM     24  C   UNL     1     -29.991 101.777  20.967  0.00  0.00    +0.000 A 
BRANCH  19  26
ATOM     25  O   UNL     1     -29.410  98.810  24.550  0.00  0.00    +0.000 OA
ATOM     26  N   UNL     1     -28.345 100.908  24.238  0.00  0.00    +0.000 N 
ATOM     27  C   UNL     1     -28.794  99.783  24.973  0.00  0.00    +0.000 C 
ATOM     28  C   UNL     1     -27.616 102.047  24.802  0.00  0.00    +0.000 C 
BRANCH  27  29
ATOM     29  C   UNL     1     -28.496  99.777  26.399  0.00  0.00    +0.000 C 
BRANCH  29  30
ATOM     30  N   UNL     1     -28.170  99.785  27.824  0.00  0.00    +0.000 N 
ATOM     31  N   UNL     1     -25.215  98.035  28.721  0.00  0.00    +0.000 N 
ATOM     32  C   UNL     1     -27.929  98.368  28.217  0.00  0.00    +0.000 C 
ATOM     33  C   UNL     1     -26.749 100.217  27.931  0.00  0.00    +0.000 C 
ATOM     34  C   UNL     1     -26.634  97.600  28.607  0.00  0.00    +0.000 C 
ATOM     35  C   UNL     1     -25.453  99.448  28.321  0.00  0.00    +0.000 C 
ATOM     36  C   UNL     1     -24.490  97.401  27.628  0.00  0.00    +0.000 C 
ENDBRANCH  29  30
ENDBRANCH  27  29
ENDBRANCH  19  26
ENDBRANCH   1  22
BRANCH   2  37
ATOM     37  C   UNL     1     -30.676  99.133  18.654  0.00  0.00    +0.000 A 
ATOM     38  C   UNL     1     -31.904  99.214  19.308  0.00  0.00    +0.000 A 
ATOM     39  C   UNL     1     -29.995  97.922  18.539  0.00  0.00    +0.000 A 
ATOM     40  C   UNL     1     -32.453  98.063  19.864  0.00  0.00    +0.000 A 
ATOM     41  C   UNL     1     -30.552  96.777  19.099  0.00  0.00    +0.000 A 
ATOM     42  C   UNL     1     -31.779  96.847  19.760  0.00  0.00    +0.000 A 
ENDBRANCH   2  37
TORSDOF 9
ENDMDL
MODEL 5
REMARK VINA RESULT:      -6.0      3.497     11.413
REMARK  Name = 135423438_Nintedanib.pdbqt.pdb
REMARK  9 active torsions:
REMARK  status: ('A' for Active; 'I' for Inactive)
REMARK    1  A    between atoms: N_1  and  C_22
REMARK    2  A    between atoms: C_2  and  C_4
REMARK    3  A    between atoms: C_2  and  C_37
REMARK    4  A    between atoms: C_7  and  O_13
REMARK    5  A    between atoms: C_10  and  C_16
REMARK    6  A    between atoms: C_16  and  O_17
REMARK    7  A    between atoms: C_19  and  N_26
REMARK    8  A    between atoms: C_27  and  C_29
REMARK    9  A    between atoms: C_29  and  N_30
REMARK                            x       y       z     vdW  Elec       q    Type
REMARK                         _______ _______ _______ _____ _____    ______ ____
ROOT
ATOM      1  N   UNL     1     -23.789 102.533   0.668  0.00  0.00    +0.000 NA
ATOM      2  C   UNL     1     -24.165 103.775   0.568  0.00  0.00    +0.000 C 
ENDROOT
BRANCH   2   4
ATOM      3  N   UNL     1     -24.561 104.488  -3.004  0.00  0.00    +0.000 N 
ATOM      4  C   UNL     1     -24.496 104.255  -0.780  0.00  0.00    +0.000 A 
ATOM      5  C   UNL     1     -25.371 105.346  -1.118  0.00  0.00    +0.000 A 
ATOM      6  C   UNL     1     -25.391 105.462  -2.507  0.00  0.00    +0.000 A 
ATOM      7  C   UNL     1     -24.011 103.756  -1.982  0.00  0.00    +0.000 A 
ATOM      8  C   UNL     1     -26.156 106.244  -0.366  0.00  0.00    +0.000 A 
ATOM      9  C   UNL     1     -26.147 106.426  -3.182  0.00  0.00    +0.000 A 
ATOM     10  C   UNL     1     -26.913 107.305  -2.406  0.00  0.00    +0.000 A 
ATOM     11  C   UNL     1     -26.919 107.215  -1.018  0.00  0.00    +0.000 A 
ATOM     12  H   UNL     1     -24.385 104.344  -3.987  0.00  0.00    +0.000 HD
BRANCH   7  13
ATOM     13  O   UNL     1     -23.159 102.765  -2.223  0.00  0.00    +0.000 OA
ATOM     14  H   UNL     1     -23.505 101.922  -1.880  0.00  0.00    +0.000 HD
ENDBRANCH   7  13
BRANCH  10  16
ATOM     15  O   UNL     1     -27.603 109.545  -2.781  0.00  0.00    +0.000 OA
ATOM     16  C   UNL     1     -27.743 108.357  -3.032  0.00  0.00    +0.000 C 
BRANCH  16  17
ATOM     17  O   UNL     1     -28.628 107.764  -3.883  0.00  0.00    +0.000 OA
ATOM     18  C   UNL     1     -29.822 107.254  -3.347  0.00  0.00    +0.000 C 
ENDBRANCH  16  17
ENDBRANCH  10  16
ENDBRANCH   2   4
BRANCH   1  22
ATOM     19  C   UNL     1     -22.693 101.011   4.461  0.00  0.00    +0.000 A 
ATOM     20  C   UNL     1     -21.810 101.778   3.698  0.00  0.00    +0.000 A 
ATOM     21  C   UNL     1     -23.960 100.764   3.916  0.00  0.00    +0.000 A 
ATOM     22  C   UNL     1     -23.420 101.994   1.907  0.00  0.00    +0.000 A 
ATOM     23  C   UNL     1     -22.164 102.274   2.444  0.00  0.00    +0.000 A 
ATOM     24  C   UNL     1     -24.327 101.255   2.664  0.00  0.00    +0.000 A 
BRANCH  19  26
ATOM     25  O   UNL     1     -23.590 102.066   7.003  0.00  0.00    +0.000 OA
ATOM     26  N   UNL     1     -22.327 100.488   5.759  0.00  0.00    +0.000 N 
ATOM     27  C   UNL     1     -22.836 101.100   6.931  0.00  0.00    +0.000 C 
ATOM     28  C   UNL     1     -21.422  99.336   5.735  0.00  0.00    +0.000 C 
BRANCH  27  29
ATOM     29  C   UNL     1     -22.417 100.523   8.201  0.00  0.00    +0.000 C 
BRANCH  29  30
ATOM     30  N   UNL     1     -21.993  99.972   9.486  0.00  0.00    +0.000 N 
ATOM     31  N   UNL     1     -18.580 100.489  10.316  0.00  0.00    +0.000 N 
ATOM     32  C   UNL     1     -20.769  99.165   9.225  0.00  0.00    +0.000 C 
ATOM     33  C   UNL     1     -21.298 101.073  10.210  0.00  0.00    +0.000 C 
ATOM     34  C   UNL     1     -19.272  99.392   9.586  0.00  0.00    +0.000 C 
ATOM     35  C   UNL     1     -19.800 101.301  10.570  0.00  0.00    +0.000 C 
ATOM     36  C   UNL     1     -17.786 101.214   9.333  0.00  0.00    +0.000 C 
ENDBRANCH  29  30
ENDBRANCH  27  29
ENDBRANCH  19  26
ENDBRANCH   1  22
BRANCH   2  37
ATOM     37  C   UNL     1     -24.276 104.718   1.695  0.00  0.00    +0.000 A 
ATOM     38  C   UNL     1     -25.374 104.640   2.549  0.00  0.00    +0.000 A 
ATOM     39  C   UNL     1     -23.259 105.648   1.905  0.00  0.00    +0.000 A 
ATOM     40  C   UNL     1     -25.457 105.517   3.627  0.00  0.00    +0.000 A 
ATOM     41  C   UNL     1     -23.352 106.520   2.985  0.00  0.00    +0.000 A 
ATOM     42  C   UNL     1     -24.449 106.454   3.844  0.00  0.00    +0.000 A 
ENDBRANCH   2  37
TORSDOF 9
ENDMDL
MODEL 6
REMARK VINA RESULT:      -5.8     21.215     25.585
REMARK  Name = 135423438_Nintedanib.pdbqt.pdb
REMARK  9 active torsions:
REMARK  status: ('A' for Active; 'I' for Inactive)
REMARK    1  A    between atoms: N_1  and  C_22
REMARK    2  A    between atoms: C_2  and  C_4
REMARK    3  A    between atoms: C_2  and  C_37
REMARK    4  A    between atoms: C_7  and  O_13
REMARK    5  A    between atoms: C_10  and  C_16
REMARK    6  A    between atoms: C_16  and  O_17
REMARK    7  A    between atoms: C_19  and  N_26
REMARK    8  A    between atoms: C_27  and  C_29
REMARK    9  A    between atoms: C_29  and  N_30
REMARK                            x       y       z     vdW  Elec       q    Type
REMARK                         _______ _______ _______ _____ _____    ______ ____
ROOT
ATOM      1  N   UNL     1     -28.933  82.844   9.962  0.00  0.00    +0.000 NA
ATOM      2  C   UNL     1     -27.883  82.668  10.712  0.00  0.00    +0.000 C 
ENDROOT
BRANCH   2   4
ATOM      3  N   UNL     1     -25.502  85.413  11.174  0.00  0.00    +0.000 N 
ATOM      4  C   UNL     1     -27.118  83.871  11.065  0.00  0.00    +0.000 A 
ATOM      5  C   UNL     1     -27.512  84.909  11.981  0.00  0.00    +0.000 A 
ATOM      6  C   UNL     1     -26.487  85.852  12.023  0.00  0.00    +0.000 A 
ATOM      7  C   UNL     1     -25.860  84.223  10.593  0.00  0.00    +0.000 A 
ATOM      8  C   UNL     1     -28.656  85.135  12.775  0.00  0.00    +0.000 A 
ATOM      9  C   UNL     1     -26.540  87.002  12.817  0.00  0.00    +0.000 A 
ATOM     10  C   UNL     1     -27.688  87.195  13.597  0.00  0.00    +0.000 A 
ATOM     11  C   UNL     1     -28.731  86.276  13.575  0.00  0.00    +0.000 A 
ATOM     12  H   UNL     1     -24.635  85.905  11.013  0.00  0.00    +0.000 HD
BRANCH   7  13
ATOM     13  O   UNL     1     -25.052  83.598   9.743  0.00  0.00    +0.000 OA
ATOM     14  H   UNL     1     -25.250  83.856   8.826  0.00  0.00    +0.000 HD
ENDBRANCH   7  13
BRANCH  10  16
ATOM     15  O   UNL     1     -27.421  89.489  14.146  0.00  0.00    +0.000 OA
ATOM     16  C   UNL     1     -27.833  88.383  14.466  0.00  0.00    +0.000 C 
BRANCH  16  17
ATOM     17  O   UNL     1     -28.475  88.011  15.610  0.00  0.00    +0.000 OA
ATOM     18  C   UNL     1     -29.261  88.969  16.270  0.00  0.00    +0.000 C 
ENDBRANCH  16  17
ENDBRANCH  10  16
ENDBRANCH   2   4
BRANCH   1  22
ATOM     19  C   UNL     1     -31.368  79.622   8.700  0.00  0.00    +0.000 A 
ATOM     20  C   UNL     1     -31.370  80.065  10.025  0.00  0.00    +0.000 A 
ATOM     21  C   UNL     1     -30.523  80.290   7.804  0.00  0.00    +0.000 A 
ATOM     22  C   UNL     1     -29.707  81.754   9.546  0.00  0.00    +0.000 A 
ATOM     23  C   UNL     1     -30.562  81.120  10.446  0.00  0.00    +0.000 A 
ATOM     24  C   UNL     1     -29.711  81.347   8.213  0.00  0.00    +0.000 A 
BRANCH  19  26
ATOM     25  O   UNL     1     -34.263  79.602   8.716  0.00  0.00    +0.000 OA
ATOM     26  N   UNL     1     -32.198  78.523   8.260  0.00  0.00    +0.000 N 
ATOM     27  C   UNL     1     -33.609  78.641   8.321  0.00  0.00    +0.000 C 
ATOM     28  C   UNL     1     -31.472  77.343   7.783  0.00  0.00    +0.000 C 
BRANCH  27  29
ATOM     29  C   UNL     1     -34.379  77.490   7.869  0.00  0.00    +0.000 C 
BRANCH  29  30
ATOM     30  N   UNL     1     -35.175  76.346   7.429  0.00  0.00    +0.000 N 
ATOM     31  N   UNL     1     -38.497  77.095   6.429  0.00  0.00    +0.000 N 
ATOM     32  C   UNL     1     -36.457  76.399   8.185  0.00  0.00    +0.000 C 
ATOM     33  C   UNL     1     -35.759  76.720   6.111  0.00  0.00    +0.000 C 
ATOM     34  C   UNL     1     -37.913  76.730   7.748  0.00  0.00    +0.000 C 
ATOM     35  C   UNL     1     -37.216  77.051   5.673  0.00  0.00    +0.000 C 
ATOM     36  C   UNL     1     -38.890  78.495   6.514  0.00  0.00    +0.000 C 
ENDBRANCH  29  30
ENDBRANCH  27  29
ENDBRANCH  19  26
ENDBRANCH   1  22
BRANCH   2  37
ATOM     37  C   UNL     1     -27.417  81.365  11.220  0.00  0.00    +0.000 A 
ATOM     38  C   UNL     1     -27.680  81.010  12.541  0.00  0.00    +0.000 A 
ATOM     39  C   UNL     1     -26.749  80.499  10.355  0.00  0.00    +0.000 A 
ATOM     40  C   UNL     1     -27.259  79.767  13.004  0.00  0.00    +0.000 A 
ATOM     41  C   UNL     1     -26.332  79.260  10.828  0.00  0.00    +0.000 A 
ATOM     42  C   UNL     1     -26.587  78.894  12.150  0.00  0.00    +0.000 A 
ENDBRANCH   2  37
TORSDOF 9
ENDMDL
MODEL 7
REMARK VINA RESULT:      -5.8     16.535     21.335
REMARK  Name = 135423438_Nintedanib.pdbqt.pdb
REMARK  9 active torsions:
REMARK  status: ('A' for Active; 'I' for Inactive)
REMARK    1  A    between atoms: N_1  and  C_22
REMARK    2  A    between atoms: C_2  and  C_4
REMARK    3  A    between atoms: C_2  and  C_37
REMARK    4  A    between atoms: C_7  and  O_13
REMARK    5  A    between atoms: C_10  and  C_16
REMARK    6  A    between atoms: C_16  and  O_17
REMARK    7  A    between atoms: C_19  and  N_26
REMARK    8  A    between atoms: C_27  and  C_29
REMARK    9  A    between atoms: C_29  and  N_30
REMARK                            x       y       z     vdW  Elec       q    Type
REMARK                         _______ _______ _______ _____ _____    ______ ____
ROOT
ATOM      1  N   UNL     1     -36.028 100.544  17.050  0.00  0.00    +0.000 NA
ATOM      2  C   UNL     1     -35.143 100.177  16.169  0.00  0.00    +0.000 C 
ENDROOT
BRANCH   2   4
ATOM      3  N   UNL     1     -32.350  98.320  17.642  0.00  0.00    +0.000 N 
ATOM      4  C   UNL     1     -33.875  99.651  16.690  0.00  0.00    +0.000 A 
ATOM      5  C   UNL     1     -32.599 100.317  16.694  0.00  0.00    +0.000 A 
ATOM      6  C   UNL     1     -31.674  99.461  17.290  0.00  0.00    +0.000 A 
ATOM      7  C   UNL     1     -33.673  98.417  17.294  0.00  0.00    +0.000 A 
ATOM      8  C   UNL     1     -32.145 101.571  16.236  0.00  0.00    +0.000 A 
ATOM      9  C   UNL     1     -30.325  99.793  17.457  0.00  0.00    +0.000 A 
ATOM     10  C   UNL     1     -29.907 101.048  16.995  0.00  0.00    +0.000 A 
ATOM     11  C   UNL     1     -30.803 101.923  16.392  0.00  0.00    +0.000 A 
ATOM     12  H   UNL     1     -31.921  97.528  18.099  0.00  0.00    +0.000 HD
BRANCH   7  13
ATOM     13  O   UNL     1     -34.529  97.434  17.553  0.00  0.00    +0.000 OA
ATOM     14  H   UNL     1     -34.250  96.931  18.339  0.00  0.00    +0.000 HD
ENDBRANCH   7  13
BRANCH  10  16
ATOM     15  O   UNL     1     -27.838 101.276  18.135  0.00  0.00    +0.000 OA
ATOM     16  C   UNL     1     -28.500 101.484  17.128  0.00  0.00    +0.000 C 
BRANCH  16  17
ATOM     17  O   UNL     1     -28.129 102.116  15.979  0.00  0.00    +0.000 OA
ATOM     18  C   UNL     1     -27.280 101.435  15.092  0.00  0.00    +0.000 C 
ENDBRANCH  16  17
ENDBRANCH  10  16
ENDBRANCH   2   4
BRANCH   1  22
ATOM     19  C   UNL     1     -39.761 102.210  15.958  0.00  0.00    +0.000 A 
ATOM     20  C   UNL     1     -39.652 100.893  16.410  0.00  0.00    +0.000 A 
ATOM     21  C   UNL     1     -38.579 102.959  15.880  0.00  0.00    +0.000 A 
ATOM     22  C   UNL     1     -37.254 101.090  16.650  0.00  0.00    +0.000 A 
ATOM     23  C   UNL     1     -38.422 100.338  16.762  0.00  0.00    +0.000 A 
ATOM     24  C   UNL     1     -37.344 102.415  16.229  0.00  0.00    +0.000 A 
BRANCH  19  26
ATOM     25  O   UNL     1     -40.867 102.233  13.283  0.00  0.00    +0.000 OA
ATOM     26  N   UNL     1     -41.033 102.788  15.585  0.00  0.00    +0.000 N 
ATOM     27  C   UNL     1     -41.460 102.732  14.234  0.00  0.00    +0.000 C 
ATOM     28  C   UNL     1     -41.784 103.406  16.681  0.00  0.00    +0.000 C 
BRANCH  27  29
ATOM     29  C   UNL     1     -42.748 103.342  13.934  0.00  0.00    +0.000 C 
BRANCH  29  30
ATOM     30  N   UNL     1     -44.051 103.945  13.660  0.00  0.00    +0.000 N 
ATOM     31  N   UNL     1     -46.853 101.838  14.219  0.00  0.00    +0.000 N 
ATOM     32  C   UNL     1     -44.782 103.000  12.771  0.00  0.00    +0.000 C 
ATOM     33  C   UNL     1     -44.891 103.702  14.865  0.00  0.00    +0.000 C 
ATOM     34  C   UNL     1     -46.009 102.074  13.016  0.00  0.00    +0.000 C 
ATOM     35  C   UNL     1     -46.118 102.775  15.111  0.00  0.00    +0.000 C 
ATOM     36  C   UNL     1     -46.556 100.490  14.685  0.00  0.00    +0.000 C 
ENDBRANCH  29  30
ENDBRANCH  27  29
ENDBRANCH  19  26
ENDBRANCH   1  22
BRANCH   2  37
ATOM     37  C   UNL     1     -35.322 100.257  14.708  0.00  0.00    +0.000 A 
ATOM     38  C   UNL     1     -36.224  99.400  14.080  0.00  0.00    +0.000 A 
ATOM     39  C   UNL     1     -34.609 101.214  13.988  0.00  0.00    +0.000 A 
ATOM     40  C   UNL     1     -36.407  99.500  12.704  0.00  0.00    +0.000 A 
ATOM     41  C   UNL     1     -34.799 101.305  12.613  0.00  0.00    +0.000 A 
ATOM     42  C   UNL     1     -35.696 100.450  11.972  0.00  0.00    +0.000 A 
ENDBRANCH   2  37
TORSDOF 9
ENDMDL
MODEL 8
REMARK VINA RESULT:      -5.8     20.112     22.585
REMARK  Name = 135423438_Nintedanib.pdbqt.pdb
REMARK  9 active torsions:
REMARK  status: ('A' for Active; 'I' for Inactive)
REMARK    1  A    between atoms: N_1  and  C_22
REMARK    2  A    between atoms: C_2  and  C_4
REMARK    3  A    between atoms: C_2  and  C_37
REMARK    4  A    between atoms: C_7  and  O_13
REMARK    5  A    between atoms: C_10  and  C_16
REMARK    6  A    between atoms: C_16  and  O_17
REMARK    7  A    between atoms: C_19  and  N_26
REMARK    8  A    between atoms: C_27  and  C_29
REMARK    9  A    between atoms: C_29  and  N_30
REMARK                            x       y       z     vdW  Elec       q    Type
REMARK                         _______ _______ _______ _____ _____    ______ ____
ROOT
ATOM      1  N   UNL     1     -39.665  90.460  -8.395  0.00  0.00    +0.000 NA
ATOM      2  C   UNL     1     -39.424  90.277  -7.129  0.00  0.00    +0.000 C 
ENDROOT
BRANCH   2   4
ATOM      3  N   UNL     1     -42.528  90.661  -5.220  0.00  0.00    +0.000 N 
ATOM      4  C   UNL     1     -40.592  90.200  -6.241  0.00  0.00    +0.000 A 
ATOM      5  C   UNL     1     -40.853  89.197  -5.242  0.00  0.00    +0.000 A 
ATOM      6  C   UNL     1     -42.064  89.512  -4.629  0.00  0.00    +0.000 A 
ATOM      7  C   UNL     1     -41.655  91.091  -6.188  0.00  0.00    +0.000 A 
ATOM      8  C   UNL     1     -40.169  88.043  -4.808  0.00  0.00    +0.000 A 
ATOM      9  C   UNL     1     -42.625  88.741  -3.606  0.00  0.00    +0.000 A 
ATOM     10  C   UNL     1     -41.919  87.603  -3.195  0.00  0.00    +0.000 A 
ATOM     11  C   UNL     1     -40.710  87.258  -3.788  0.00  0.00    +0.000 A 
ATOM     12  H   UNL     1     -43.391  91.118  -4.966  0.00  0.00    +0.000 HD
BRANCH   7  13
ATOM     13  O   UNL     1     -41.888  92.198  -6.885  0.00  0.00    +0.000 OA
ATOM     14  H   UNL     1     -42.192  92.916  -6.302  0.00  0.00    +0.000 HD
ENDBRANCH   7  13
BRANCH  10  16
ATOM     15  O   UNL     1     -43.378  85.967  -2.285  0.00  0.00    +0.000 OA
ATOM     16  C   UNL     1     -42.435  86.727  -2.120  0.00  0.00    +0.000 C 
BRANCH  16  17
ATOM     17  O   UNL     1     -41.692  86.933  -0.995  0.00  0.00    +0.000 OA
ATOM     18  C   UNL     1     -42.247  87.716   0.030  0.00  0.00    +0.000 C 
ENDBRANCH  16  17
ENDBRANCH  10  16
ENDBRANCH   2   4
BRANCH   1  22
ATOM     19  C   UNL     1     -36.575  90.829 -11.262  0.00  0.00    +0.000 A 
ATOM     20  C   UNL     1     -37.222  89.612 -11.036  0.00  0.00    +0.000 A 
ATOM     21  C   UNL     1     -36.993  91.926 -10.497  0.00  0.00    +0.000 A 
ATOM     22  C   UNL     1     -38.616  90.581  -9.314  0.00  0.00    +0.000 A 
ATOM     23  C   UNL     1     -38.235  89.484 -10.086  0.00  0.00    +0.000 A 
ATOM     24  C   UNL     1     -38.004  91.812  -9.544  0.00  0.00    +0.000 A 
BRANCH  19  26
ATOM     25  O   UNL     1     -36.835  92.136 -13.832  0.00  0.00    +0.000 OA
ATOM     26  N   UNL     1     -35.520  90.964 -12.241  0.00  0.00    +0.000 N 
ATOM     27  C   UNL     1     -35.779  91.629 -13.466  0.00  0.00    +0.000 C 
ATOM     28  C   UNL     1     -34.236  90.370 -11.861  0.00  0.00    +0.000 C 
BRANCH  27  29
ATOM     29  C   UNL     1     -34.670  91.718 -14.405  0.00  0.00    +0.000 C 
BRANCH  29  30
ATOM     30  N   UNL     1     -33.569  91.785 -15.364  0.00  0.00    +0.000 N 
ATOM     31  N   UNL     1     -32.337  95.044 -16.044  0.00  0.00    +0.000 N 
ATOM     32  C   UNL     1     -33.948  92.803 -16.383  0.00  0.00    +0.000 C 
ATOM     33  C   UNL     1     -32.500  92.601 -14.724  0.00  0.00    +0.000 C 
ATOM     34  C   UNL     1     -33.411  94.233 -16.679  0.00  0.00    +0.000 C 
ATOM     35  C   UNL     1     -31.962  94.032 -15.020  0.00  0.00    +0.000 C 
ATOM     36  C   UNL     1     -32.995  96.136 -15.339  0.00  0.00    +0.000 C 
ENDBRANCH  29  30
ENDBRANCH  27  29
ENDBRANCH  19  26
ENDBRANCH   1  22
BRANCH   2  37
ATOM     37  C   UNL     1     -38.081  90.150  -6.535  0.00  0.00    +0.000 A 
ATOM     38  C   UNL     1     -37.500  91.251  -5.910  0.00  0.00    +0.000 A 
ATOM     39  C   UNL     1     -37.433  88.917  -6.582  0.00  0.00    +0.000 A 
ATOM     40  C   UNL     1     -36.243  91.114  -5.328  0.00  0.00    +0.000 A 
ATOM     41  C   UNL     1     -36.176  88.791  -5.998  0.00  0.00    +0.000 A 
ATOM     42  C   UNL     1     -35.583  89.887  -5.373  0.00  0.00    +0.000 A 
ENDBRANCH   2  37
TORSDOF 9
ENDMDL
MODEL 9
REMARK VINA RESULT:      -5.6     18.147     21.220
REMARK  Name = 135423438_Nintedanib.pdbqt.pdb
REMARK  9 active torsions:
REMARK  status: ('A' for Active; 'I' for Inactive)
REMARK    1  A    between atoms: N_1  and  C_22
REMARK    2  A    between atoms: C_2  and  C_4
REMARK    3  A    between atoms: C_2  and  C_37
REMARK    4  A    between atoms: C_7  and  O_13
REMARK    5  A    between atoms: C_10  and  C_16
REMARK    6  A    between atoms: C_16  and  O_17
REMARK    7  A    between atoms: C_19  and  N_26
REMARK    8  A    between atoms: C_27  and  C_29
REMARK    9  A    between atoms: C_29  and  N_30
REMARK                            x       y       z     vdW  Elec       q    Type
REMARK                         _______ _______ _______ _____ _____    ______ ____
ROOT
ATOM      1  N   UNL     1     -36.796 100.130  17.125  0.00  0.00    +0.000 NA
ATOM      2  C   UNL     1     -35.869  99.678  16.331  0.00  0.00    +0.000 C 
ENDROOT
BRANCH   2   4
ATOM      3  N   UNL     1     -33.859  97.059  17.920  0.00  0.00    +0.000 N 
ATOM      4  C   UNL     1     -34.856  98.802  16.935  0.00  0.00    +0.000 A 
ATOM      5  C   UNL     1     -33.462  99.102  17.133  0.00  0.00    +0.000 A 
ATOM      6  C   UNL     1     -32.872  97.997  17.744  0.00  0.00    +0.000 A 
ATOM      7  C   UNL     1     -35.058  97.526  17.443  0.00  0.00    +0.000 A 
ATOM      8  C   UNL     1     -32.646 100.214  16.840  0.00  0.00    +0.000 A 
ATOM      9  C   UNL     1     -31.516  97.946  18.082  0.00  0.00    +0.000 A 
ATOM     10  C   UNL     1     -30.733  99.068  17.782  0.00  0.00    +0.000 A 
ATOM     11  C   UNL     1     -31.290 100.185  17.168  0.00  0.00    +0.000 A 
ATOM     12  H   UNL     1     -33.710  96.156  18.346  0.00  0.00    +0.000 HD
BRANCH   7  13
ATOM     13  O   UNL     1     -36.164  96.794  17.521  0.00  0.00    +0.000 OA
ATOM     14  H   UNL     1     -36.010  95.897  17.174  0.00  0.00    +0.000 HD
ENDBRANCH   7  13
BRANCH  10  16
ATOM     15  O   UNL     1     -28.673  98.117  18.475  0.00  0.00    +0.000 OA
ATOM     16  C   UNL     1     -29.290  99.104  18.102  0.00  0.00    +0.000 C 
BRANCH  16  17
ATOM     17  O   UNL     1     -28.831 100.373  17.907  0.00  0.00    +0.000 OA
ATOM     18  C   UNL     1     -28.308 101.065  19.011  0.00  0.00    +0.000 C 
ENDBRANCH  16  17
ENDBRANCH  10  16
ENDBRANCH   2   4
BRANCH   1  22
ATOM     19  C   UNL     1     -39.829 102.767  15.801  0.00  0.00    +0.000 A 
ATOM     20  C   UNL     1     -40.098 101.426  16.085  0.00  0.00    +0.000 A 
ATOM     21  C   UNL     1     -38.508 103.204  15.973  0.00  0.00    +0.000 A 
ATOM     22  C   UNL     1     -37.786 100.999  16.650  0.00  0.00    +0.000 A 
ATOM     23  C   UNL     1     -39.100 100.552  16.513  0.00  0.00    +0.000 A 
ATOM     24  C   UNL     1     -37.501 102.340  16.401  0.00  0.00    +0.000 A 
BRANCH  19  26
ATOM     25  O   UNL     1     -40.926 102.855  13.124  0.00  0.00    +0.000 OA
ATOM     26  N   UNL     1     -40.860 103.675  15.350  0.00  0.00    +0.000 N 
ATOM     27  C   UNL     1     -41.310 103.615  14.008  0.00  0.00    +0.000 C 
ATOM     28  C   UNL     1     -41.353 104.612  16.363  0.00  0.00    +0.000 C 
BRANCH  27  29
ATOM     29  C   UNL     1     -42.344 104.566  13.625  0.00  0.00    +0.000 C 
BRANCH  29  30
ATOM     30  N   UNL     1     -43.396 105.499  13.226  0.00  0.00    +0.000 N 
ATOM     31  N   UNL     1     -46.123 104.060  11.468  0.00  0.00    +0.000 N 
ATOM     32  C   UNL     1     -43.641 105.275  11.774  0.00  0.00    +0.000 C 
ATOM     33  C   UNL     1     -44.683 104.910  13.691  0.00  0.00    +0.000 C 
ATOM     34  C   UNL     1     -44.835 104.642  11.003  0.00  0.00    +0.000 C 
ATOM     35  C   UNL     1     -45.877 104.276  12.919  0.00  0.00    +0.000 C 
ATOM     36  C   UNL     1     -46.047 102.624  11.234  0.00  0.00    +0.000 C 
ENDBRANCH  29  30
ENDBRANCH  27  29
ENDBRANCH  19  26
ENDBRANCH   1  22
BRANCH   2  37
ATOM     37  C   UNL     1     -35.766  99.983  14.893  0.00  0.00    +0.000 A 
ATOM     38  C   UNL     1     -34.800 100.885  14.451  0.00  0.00    +0.000 A 
ATOM     39  C   UNL     1     -36.618  99.337  13.999  0.00  0.00    +0.000 A 
ATOM     40  C   UNL     1     -34.693 101.148  13.089  0.00  0.00    +0.000 A 
ATOM     41  C   UNL     1     -36.503  99.607  12.639  0.00  0.00    +0.000 A 
ATOM     42  C   UNL     1     -35.542 100.510  12.185  0.00  0.00    +0.000 A 
ENDBRANCH   2  37
TORSDOF 9
ENDMDL
