MODEL 1
REMARK VINA RESULT:      -7.6      0.000      0.000
REMARK  Name = 14132199_RiccardinD.pdbqt.pdb
REMARK  3 active torsions:
REMARK  status: ('A' for Active; 'I' for Inactive)
REMARK    1  A    between atoms: C_11  and  O_30
REMARK    2  A    between atoms: C_16  and  O_32
REMARK    3  A    between atoms: C_28  and  O_34
REMARK                            x       y       z     vdW  Elec       q    Type
REMARK                         _______ _______ _______ _____ _____    ______ ____
ROOT
ATOM      1  O   UNL     1     -37.936 103.759  14.242  0.00  0.00    +0.000 OA
ATOM      2  C   UNL     1     -31.445 104.559  16.604  0.00  0.00    +0.000 C 
ATOM      3  C   UNL     1     -30.097 104.165  16.899  0.00  0.00    +0.000 A 
ATOM      4  C   UNL     1     -29.638 102.845  16.653  0.00  0.00    +0.000 A 
ATOM      5  C   UNL     1     -32.906 104.826  16.207  0.00  0.00    +0.000 C 
ATOM      6  C   UNL     1     -33.867  99.687  14.699  0.00  0.00    +0.000 C 
ATOM      7  C   UNL     1     -30.572 101.789  16.202  0.00  0.00    +0.000 A 
ATOM      8  C   UNL     1     -32.634 100.108  15.279  0.00  0.00    +0.000 A 
ATOM      9  C   UNL     1     -35.303  99.743  14.174  0.00  0.00    +0.000 C 
ATOM     10  C   UNL     1     -34.261 104.865  15.765  0.00  0.00    +0.000 A 
ATOM     11  C   UNL     1     -30.502 101.176  14.942  0.00  0.00    +0.000 A 
ATOM     12  C   UNL     1     -36.558 100.336  13.867  0.00  0.00    +0.000 A 
ATOM     13  C   UNL     1     -31.646 101.437  17.031  0.00  0.00    +0.000 A 
ATOM     14  C   UNL     1     -31.532 100.360  14.469  0.00  0.00    +0.000 A 
ATOM     15  C   UNL     1     -32.673 100.614  16.576  0.00  0.00    +0.000 A 
ATOM     16  C   UNL     1     -28.272 102.593  16.877  0.00  0.00    +0.000 A 
ATOM     17  C   UNL     1     -29.234 105.147  17.390  0.00  0.00    +0.000 A 
ATOM     18  C   UNL     1     -27.418 103.572  17.385  0.00  0.00    +0.000 A 
ATOM     19  C   UNL     1     -27.902 104.847  17.651  0.00  0.00    +0.000 A 
ATOM     20  C   UNL     1     -36.662 101.689  14.168  0.00  0.00    +0.000 A 
ATOM     21  C   UNL     1     -35.283 104.491  16.640  0.00  0.00    +0.000 A 
ATOM     22  C   UNL     1     -34.535 105.067  14.412  0.00  0.00    +0.000 A 
ATOM     23  C   UNL     1     -37.829 102.411  13.940  0.00  0.00    +0.000 A 
ATOM     24  C   UNL     1     -37.641  99.667  13.317  0.00  0.00    +0.000 A 
ATOM     25  C   UNL     1     -36.793 104.326  14.775  0.00  0.00    +0.000 A 
ATOM     26  C   UNL     1     -36.559 104.230  16.148  0.00  0.00    +0.000 A 
ATOM     27  C   UNL     1     -35.809 104.808  13.911  0.00  0.00    +0.000 A 
ATOM     28  C   UNL     1     -38.914 101.739  13.389  0.00  0.00    +0.000 A 
ATOM     29  C   UNL     1     -38.824 100.377  13.077  0.00  0.00    +0.000 A 
ENDROOT
BRANCH  11  30
ATOM     30  O   UNL     1     -29.408 101.397  14.147  0.00  0.00    +0.000 OA
ATOM     31  H   UNL     1     -28.928 102.172  14.500  0.00  0.00    +0.000 HD
ENDBRANCH  11  30
BRANCH  16  32
ATOM     32  O   UNL     1     -27.694 101.384  16.591  0.00  0.00    +0.000 OA
ATOM     33  H   UNL     1     -28.391 100.709  16.694  0.00  0.00    +0.000 HD
ENDBRANCH  16  32
BRANCH  28  34
ATOM     34  O   UNL     1     -40.093 102.380  13.135  0.00  0.00    +0.000 OA
ATOM     35  H   UNL     1     -40.180 102.454  12.167  0.00  0.00    +0.000 HD
ENDBRANCH  28  34
TORSDOF 3
ENDMDL
MODEL 2
REMARK VINA RESULT:      -7.6      3.660      9.112
REMARK  Name = 14132199_RiccardinD.pdbqt.pdb
REMARK  3 active torsions:
REMARK  status: ('A' for Active; 'I' for Inactive)
REMARK    1  A    between atoms: C_11  and  O_30
REMARK    2  A    between atoms: C_16  and  O_32
REMARK    3  A    between atoms: C_28  and  O_34
REMARK                            x       y       z     vdW  Elec       q    Type
REMARK                         _______ _______ _______ _____ _____    ______ ____
ROOT
ATOM      1  O   UNL     1     -29.022  99.279  18.990  0.00  0.00    +0.000 OA
ATOM      2  C   UNL     1     -34.524  99.564  14.746  0.00  0.00    +0.000 C 
ATOM      3  C   UNL     1     -35.916  99.595  14.403  0.00  0.00    +0.000 A 
ATOM      4  C   UNL     1     -36.929  99.489  15.391  0.00  0.00    +0.000 A 
ATOM      5  C   UNL     1     -33.083  99.540  15.282  0.00  0.00    +0.000 C 
ATOM      6  C   UNL     1     -34.582  98.733  20.450  0.00  0.00    +0.000 C 
ATOM      7  C   UNL     1     -36.583  99.212  16.804  0.00  0.00    +0.000 A 
ATOM      8  C   UNL     1     -35.511  98.767  19.369  0.00  0.00    +0.000 A 
ATOM      9  C   UNL     1     -33.251  98.756  21.205  0.00  0.00    +0.000 C 
ATOM     10  C   UNL     1     -31.839  99.509  15.980  0.00  0.00    +0.000 A 
ATOM     11  C   UNL     1     -36.794 100.124  17.849  0.00  0.00    +0.000 A 
ATOM     12  C   UNL     1     -31.840  98.835  21.360  0.00  0.00    +0.000 A 
ATOM     13  C   UNL     1     -35.923  98.016  17.117  0.00  0.00    +0.000 A 
ATOM     14  C   UNL     1     -36.247  99.921  19.117  0.00  0.00    +0.000 A 
ATOM     15  C   UNL     1     -35.383  97.795  18.380  0.00  0.00    +0.000 A 
ATOM     16  C   UNL     1     -38.259  99.640  14.960  0.00  0.00    +0.000 A 
ATOM     17  C   UNL     1     -36.242  99.788  13.058  0.00  0.00    +0.000 A 
ATOM     18  C   UNL     1     -38.580  99.813  13.614  0.00  0.00    +0.000 A 
ATOM     19  C   UNL     1     -37.570  99.878  12.661  0.00  0.00    +0.000 A 
ATOM     20  C   UNL     1     -31.125  99.017  20.181  0.00  0.00    +0.000 A 
ATOM     21  C   UNL     1     -31.242  98.281  16.269  0.00  0.00    +0.000 A 
ATOM     22  C   UNL     1     -31.346 100.682  16.552  0.00  0.00    +0.000 A 
ATOM     23  C   UNL     1     -29.737  99.101  20.163  0.00  0.00    +0.000 A 
ATOM     24  C   UNL     1     -31.166  98.735  22.567  0.00  0.00    +0.000 A 
ATOM     25  C   UNL     1     -29.797  99.378  17.849  0.00  0.00    +0.000 A 
ATOM     26  C   UNL     1     -30.207  98.213  17.199  0.00  0.00    +0.000 A 
ATOM     27  C   UNL     1     -30.311 100.623  17.484  0.00  0.00    +0.000 A 
ATOM     28  C   UNL     1     -29.062  99.000  21.374  0.00  0.00    +0.000 A 
ATOM     29  C   UNL     1     -29.767  98.819  22.569  0.00  0.00    +0.000 A 
ENDROOT
BRANCH  11  30
ATOM     30  O   UNL     1     -37.539 101.250  17.617  0.00  0.00    +0.000 OA
ATOM     31  H   UNL     1     -37.321 101.581  16.724  0.00  0.00    +0.000 HD
ENDBRANCH  11  30
BRANCH  16  32
ATOM     32  O   UNL     1     -39.315  99.647  15.833  0.00  0.00    +0.000 OA
ATOM     33  H   UNL     1     -40.085  99.298  15.345  0.00  0.00    +0.000 HD
ENDBRANCH  16  32
BRANCH  28  34
ATOM     34  O   UNL     1     -27.699  99.074  21.436  0.00  0.00    +0.000 OA
ATOM     35  H   UNL     1     -27.447  99.984  21.198  0.00  0.00    +0.000 HD
ENDBRANCH  28  34
TORSDOF 3
ENDMDL
MODEL 3
REMARK VINA RESULT:      -7.5     12.296     16.263
REMARK  Name = 14132199_RiccardinD.pdbqt.pdb
REMARK  3 active torsions:
REMARK  status: ('A' for Active; 'I' for Inactive)
REMARK    1  A    between atoms: C_11  and  O_30
REMARK    2  A    between atoms: C_16  and  O_32
REMARK    3  A    between atoms: C_28  and  O_34
REMARK                            x       y       z     vdW  Elec       q    Type
REMARK                         _______ _______ _______ _____ _____    ______ ____
ROOT
ATOM      1  O   UNL     1     -34.843 107.706  -0.406  0.00  0.00    +0.000 OA
ATOM      2  C   UNL     1     -40.192 103.344   0.442  0.00  0.00    +0.000 C 
ATOM      3  C   UNL     1     -41.035 102.423   1.148  0.00  0.00    +0.000 A 
ATOM      4  C   UNL     1     -40.746 102.018   2.477  0.00  0.00    +0.000 A 
ATOM      5  C   UNL     1     -39.205 104.356  -0.161  0.00  0.00    +0.000 C 
ATOM      6  C   UNL     1     -35.915 104.355   4.173  0.00  0.00    +0.000 C 
ATOM      7  C   UNL     1     -39.489 102.434   3.139  0.00  0.00    +0.000 A 
ATOM      8  C   UNL     1     -37.052 103.502   4.061  0.00  0.00    +0.000 A 
ATOM      9  C   UNL     1     -34.858 105.399   3.806  0.00  0.00    +0.000 C 
ATOM     10  C   UNL     1     -38.190 105.291  -0.524  0.00  0.00    +0.000 A 
ATOM     11  C   UNL     1     -39.443 103.285   4.254  0.00  0.00    +0.000 A 
ATOM     12  C   UNL     1     -34.200 106.358   2.989  0.00  0.00    +0.000 A 
ATOM     13  C   UNL     1     -38.266 102.041   2.579  0.00  0.00    +0.000 A 
ATOM     14  C   UNL     1     -38.240 103.836   4.703  0.00  0.00    +0.000 A 
ATOM     15  C   UNL     1     -37.060 102.573   3.025  0.00  0.00    +0.000 A 
ATOM     16  C   UNL     1     -41.694 101.197   3.114  0.00  0.00    +0.000 A 
ATOM     17  C   UNL     1     -42.187 101.977   0.495  0.00  0.00    +0.000 A 
ATOM     18  C   UNL     1     -42.832 100.739   2.451  0.00  0.00    +0.000 A 
ATOM     19  C   UNL     1     -43.074 101.122   1.138  0.00  0.00    +0.000 A 
ATOM     20  C   UNL     1     -34.789 106.584   1.749  0.00  0.00    +0.000 A 
ATOM     21  C   UNL     1     -36.990 104.829  -1.068  0.00  0.00    +0.000 A 
ATOM     22  C   UNL     1     -38.317 106.625  -0.134  0.00  0.00    +0.000 A 
ATOM     23  C   UNL     1     -34.260 107.482   0.830  0.00  0.00    +0.000 A 
ATOM     24  C   UNL     1     -33.047 107.045   3.339  0.00  0.00    +0.000 A 
ATOM     25  C   UNL     1     -35.994 106.977  -0.644  0.00  0.00    +0.000 A 
ATOM     26  C   UNL     1     -35.887 105.677  -1.141  0.00  0.00    +0.000 A 
ATOM     27  C   UNL     1     -37.219 107.479  -0.204  0.00  0.00    +0.000 A 
ATOM     28  C   UNL     1     -33.104 108.170   1.182  0.00  0.00    +0.000 A 
ATOM     29  C   UNL     1     -32.499 107.956   2.426  0.00  0.00    +0.000 A 
ENDROOT
BRANCH  11  30
ATOM     30  O   UNL     1     -40.605 103.599   4.908  0.00  0.00    +0.000 OA
ATOM     31  H   UNL     1     -40.747 104.562   4.830  0.00  0.00    +0.000 HD
ENDBRANCH  11  30
BRANCH  16  32
ATOM     32  O   UNL     1     -41.569 100.816   4.424  0.00  0.00    +0.000 OA
ATOM     33  H   UNL     1     -41.934 101.542   4.964  0.00  0.00    +0.000 HD
ENDBRANCH  16  32
BRANCH  28  34
ATOM     34  O   UNL     1     -32.525 109.069   0.332  0.00  0.00    +0.000 OA
ATOM     35  H   UNL     1     -32.752 109.960   0.654  0.00  0.00    +0.000 HD
ENDBRANCH  28  34
TORSDOF 3
ENDMDL
MODEL 4
REMARK VINA RESULT:      -7.3      2.663      7.866
REMARK  Name = 14132199_RiccardinD.pdbqt.pdb
REMARK  3 active torsions:
REMARK  status: ('A' for Active; 'I' for Inactive)
REMARK    1  A    between atoms: C_11  and  O_30
REMARK    2  A    between atoms: C_16  and  O_32
REMARK    3  A    between atoms: C_28  and  O_34
REMARK                            x       y       z     vdW  Elec       q    Type
REMARK                         _______ _______ _______ _____ _____    ______ ____
ROOT
ATOM      1  O   UNL     1     -30.088  99.214  17.575  0.00  0.00    +0.000 OA
ATOM      2  C   UNL     1     -34.614 103.108  14.010  0.00  0.00    +0.000 C 
ATOM      3  C   UNL     1     -35.904 103.510  13.525  0.00  0.00    +0.000 A 
ATOM      4  C   UNL     1     -37.076 102.773  13.833  0.00  0.00    +0.000 A 
ATOM      5  C   UNL     1     -33.319 102.560  14.630  0.00  0.00    +0.000 C 
ATOM      6  C   UNL     1     -35.733  98.224  16.861  0.00  0.00    +0.000 C 
ATOM      7  C   UNL     1     -36.995 101.488  14.562  0.00  0.00    +0.000 A 
ATOM      8  C   UNL     1     -36.421  99.151  16.025  0.00  0.00    +0.000 A 
ATOM      9  C   UNL     1     -34.592  97.548  17.626  0.00  0.00    +0.000 C 
ATOM     10  C   UNL     1     -32.246 101.901  15.301  0.00  0.00    +0.000 A 
ATOM     11  C   UNL     1     -37.514 101.290  15.850  0.00  0.00    +0.000 A 
ATOM     12  C   UNL     1     -33.260  97.360  18.084  0.00  0.00    +0.000 A 
ATOM     13  C   UNL     1     -36.282 100.427  13.985  0.00  0.00    +0.000 A 
ATOM     14  C   UNL     1     -37.215 100.144  16.590  0.00  0.00    +0.000 A 
ATOM     15  C   UNL     1     -35.989  99.274  14.707  0.00  0.00    +0.000 A 
ATOM     16  C   UNL     1     -38.301 103.313  13.398  0.00  0.00    +0.000 A 
ATOM     17  C   UNL     1     -35.970 104.689  12.778  0.00  0.00    +0.000 A 
ATOM     18  C   UNL     1     -38.359 104.480  12.636  0.00  0.00    +0.000 A 
ATOM     19  C   UNL     1     -37.192 105.163  12.318  0.00  0.00    +0.000 A 
ATOM     20  C   UNL     1     -32.346  98.316  17.655  0.00  0.00    +0.000 A 
ATOM     21  C   UNL     1     -31.586 100.844  14.673  0.00  0.00    +0.000 A 
ATOM     22  C   UNL     1     -32.013 102.172  16.650  0.00  0.00    +0.000 A 
ATOM     23  C   UNL     1     -31.002  98.265  18.005  0.00  0.00    +0.000 A 
ATOM     24  C   UNL     1     -32.837  96.316  18.893  0.00  0.00    +0.000 A 
ATOM     25  C   UNL     1     -30.622 100.215  16.785  0.00  0.00    +0.000 A 
ATOM     26  C   UNL     1     -30.760 100.001  15.413  0.00  0.00    +0.000 A 
ATOM     27  C   UNL     1     -31.188 101.334  17.397  0.00  0.00    +0.000 A 
ATOM     28  C   UNL     1     -30.578  97.217  18.815  0.00  0.00    +0.000 A 
ATOM     29  C   UNL     1     -31.486  96.249  19.258  0.00  0.00    +0.000 A 
ENDROOT
BRANCH  11  30
ATOM     30  O   UNL     1     -38.317 102.251  16.405  0.00  0.00    +0.000 OA
ATOM     31  H   UNL     1     -38.002 102.424  17.313  0.00  0.00    +0.000 HD
ENDBRANCH  11  30
BRANCH  16  32
ATOM     32  O   UNL     1     -39.505 102.740  13.711  0.00  0.00    +0.000 OA
ATOM     33  H   UNL     1     -39.464 102.497  14.655  0.00  0.00    +0.000 HD
ENDBRANCH  16  32
BRANCH  28  34
ATOM     34  O   UNL     1     -29.273  97.101  19.202  0.00  0.00    +0.000 OA
ATOM     35  H   UNL     1     -29.212  97.427  20.118  0.00  0.00    +0.000 HD
ENDBRANCH  28  34
TORSDOF 3
ENDMDL
MODEL 5
REMARK VINA RESULT:      -7.2     13.812     15.699
REMARK  Name = 14132199_RiccardinD.pdbqt.pdb
REMARK  3 active torsions:
REMARK  status: ('A' for Active; 'I' for Inactive)
REMARK    1  A    between atoms: C_11  and  O_30
REMARK    2  A    between atoms: C_16  and  O_32
REMARK    3  A    between atoms: C_28  and  O_34
REMARK                            x       y       z     vdW  Elec       q    Type
REMARK                         _______ _______ _______ _____ _____    ______ ____
ROOT
ATOM      1  O   UNL     1     -24.329 107.165   2.006  0.00  0.00    +0.000 OA
ATOM      2  C   UNL     1     -22.484 103.198   7.412  0.00  0.00    +0.000 C 
ATOM      3  C   UNL     1     -22.089 101.992   8.080  0.00  0.00    +0.000 A 
ATOM      4  C   UNL     1     -21.981 100.759   7.387  0.00  0.00    +0.000 A 
ATOM      5  C   UNL     1     -22.893 104.400   6.545  0.00  0.00    +0.000 C 
ATOM      6  C   UNL     1     -23.524 101.447   2.019  0.00  0.00    +0.000 C 
ATOM      7  C   UNL     1     -22.398 100.646   5.971  0.00  0.00    +0.000 A 
ATOM      8  C   UNL     1     -23.211 100.870   3.284  0.00  0.00    +0.000 A 
ATOM      9  C   UNL     1     -23.871 102.500   0.963  0.00  0.00    +0.000 C 
ATOM     10  C   UNL     1     -23.266 105.374   5.571  0.00  0.00    +0.000 A 
ATOM     11  C   UNL     1     -21.509 100.383   4.918  0.00  0.00    +0.000 A 
ATOM     12  C   UNL     1     -24.155 103.798   0.460  0.00  0.00    +0.000 A 
ATOM     13  C   UNL     1     -23.734 100.905   5.637  0.00  0.00    +0.000 A 
ATOM     14  C   UNL     1     -21.900 100.514   3.584  0.00  0.00    +0.000 A 
ATOM     15  C   UNL     1     -24.139 101.026   4.311  0.00  0.00    +0.000 A 
ATOM     16  C   UNL     1     -21.482  99.661   8.112  0.00  0.00    +0.000 A 
ATOM     17  C   UNL     1     -21.761 102.087   9.435  0.00  0.00    +0.000 A 
ATOM     18  C   UNL     1     -21.174  99.757   9.469  0.00  0.00    +0.000 A 
ATOM     19  C   UNL     1     -21.323 100.968  10.133  0.00  0.00    +0.000 A 
ATOM     20  C   UNL     1     -24.107 104.821   1.401  0.00  0.00    +0.000 A 
ATOM     21  C   UNL     1     -24.616 105.573   5.279  0.00  0.00    +0.000 A 
ATOM     22  C   UNL     1     -22.281 105.956   4.773  0.00  0.00    +0.000 A 
ATOM     23  C   UNL     1     -24.373 106.145   1.070  0.00  0.00    +0.000 A 
ATOM     24  C   UNL     1     -24.475 104.088  -0.857  0.00  0.00    +0.000 A 
ATOM     25  C   UNL     1     -23.988 106.764   3.285  0.00  0.00    +0.000 A 
ATOM     26  C   UNL     1     -24.984 106.281   4.137  0.00  0.00    +0.000 A 
ATOM     27  C   UNL     1     -22.640 106.666   3.629  0.00  0.00    +0.000 A 
ATOM     28  C   UNL     1     -24.694 106.434  -0.251  0.00  0.00    +0.000 A 
ATOM     29  C   UNL     1     -24.745 105.417  -1.211  0.00  0.00    +0.000 A 
ENDROOT
BRANCH  11  30
ATOM     30  O   UNL     1     -20.223 100.007   5.202  0.00  0.00    +0.000 OA
ATOM     31  H   UNL     1     -19.803  99.708   4.373  0.00  0.00    +0.000 HD
ENDBRANCH  11  30
BRANCH  16  32
ATOM     32  O   UNL     1     -21.248  98.444   7.529  0.00  0.00    +0.000 OA
ATOM     33  H   UNL     1     -20.846  98.622   6.658  0.00  0.00    +0.000 HD
ENDBRANCH  16  32
BRANCH  28  34
ATOM     34  O   UNL     1     -24.968 107.711  -0.653  0.00  0.00    +0.000 OA
ATOM     35  H   UNL     1     -24.118 108.184  -0.716  0.00  0.00    +0.000 HD
ENDBRANCH  28  34
TORSDOF 3
ENDMDL
MODEL 6
REMARK VINA RESULT:      -7.2      3.110      5.660
REMARK  Name = 14132199_RiccardinD.pdbqt.pdb
REMARK  3 active torsions:
REMARK  status: ('A' for Active; 'I' for Inactive)
REMARK    1  A    between atoms: C_11  and  O_30
REMARK    2  A    between atoms: C_16  and  O_32
REMARK    3  A    between atoms: C_28  and  O_34
REMARK                            x       y       z     vdW  Elec       q    Type
REMARK                         _______ _______ _______ _____ _____    ______ ____
ROOT
ATOM      1  O   UNL     1     -39.523 102.999  13.136  0.00  0.00    +0.000 OA
ATOM      2  C   UNL     1     -36.084  98.134  16.722  0.00  0.00    +0.000 C 
ATOM      3  C   UNL     1     -34.950  97.531  17.362  0.00  0.00    +0.000 A 
ATOM      4  C   UNL     1     -33.666  98.131  17.319  0.00  0.00    +0.000 A 
ATOM      5  C   UNL     1     -37.196  98.922  16.011  0.00  0.00    +0.000 C 
ATOM      6  C   UNL     1     -33.850 102.811  14.198  0.00  0.00    +0.000 C 
ATOM      7  C   UNL     1     -33.421  99.341  16.501  0.00  0.00    +0.000 A 
ATOM      8  C   UNL     1     -33.392 101.662  14.907  0.00  0.00    +0.000 A 
ATOM      9  C   UNL     1     -34.799 103.785  13.496  0.00  0.00    +0.000 C 
ATOM     10  C   UNL     1     -38.073  99.805  15.312  0.00  0.00    +0.000 A 
ATOM     11  C   UNL     1     -33.093 100.592  17.044  0.00  0.00    +0.000 A 
ATOM     12  C   UNL     1     -36.042 104.272  13.008  0.00  0.00    +0.000 A 
ATOM     13  C   UNL     1     -33.615  99.271  15.115  0.00  0.00    +0.000 A 
ATOM     14  C   UNL     1     -33.098 101.750  16.263  0.00  0.00    +0.000 A 
ATOM     15  C   UNL     1     -33.611 100.416  14.324  0.00  0.00    +0.000 A 
ATOM     16  C   UNL     1     -32.648  97.514  18.069  0.00  0.00    +0.000 A 
ATOM     17  C   UNL     1     -35.170  96.351  18.077  0.00  0.00    +0.000 A 
ATOM     18  C   UNL     1     -32.867  96.325  18.765  0.00  0.00    +0.000 A 
ATOM     19  C   UNL     1     -34.127  95.739  18.761  0.00  0.00    +0.000 A 
ATOM     20  C   UNL     1     -37.143 103.469  13.285  0.00  0.00    +0.000 A 
ATOM     21  C   UNL     1     -38.211  99.687  13.929  0.00  0.00    +0.000 A 
ATOM     22  C   UNL     1     -38.610 100.905  15.981  0.00  0.00    +0.000 A 
ATOM     23  C   UNL     1     -38.426 103.800  12.864  0.00  0.00    +0.000 A 
ATOM     24  C   UNL     1     -36.210 105.448  12.291  0.00  0.00    +0.000 A 
ATOM     25  C   UNL     1     -39.242 101.859  13.866  0.00  0.00    +0.000 A 
ATOM     26  C   UNL     1     -38.809 100.712  13.199  0.00  0.00    +0.000 A 
ATOM     27  C   UNL     1     -39.209 101.935  15.258  0.00  0.00    +0.000 A 
ATOM     28  C   UNL     1     -38.592 104.978  12.146  0.00  0.00    +0.000 A 
ATOM     29  C   UNL     1     -37.495 105.799  11.860  0.00  0.00    +0.000 A 
ENDROOT
BRANCH  11  30
ATOM     30  O   UNL     1     -32.776 100.686  18.373  0.00  0.00    +0.000 OA
ATOM     31  H   UNL     1     -33.325 100.042  18.862  0.00  0.00    +0.000 HD
ENDBRANCH  11  30
BRANCH  16  32
ATOM     32  O   UNL     1     -31.392  98.049  18.177  0.00  0.00    +0.000 OA
ATOM     33  H   UNL     1     -31.506  98.992  18.403  0.00  0.00    +0.000 HD
ENDBRANCH  16  32
BRANCH  28  34
ATOM     34  O   UNL     1     -39.823 105.370  11.699  0.00  0.00    +0.000 OA
ATOM     35  H   UNL     1     -40.248 105.868  12.421  0.00  0.00    +0.000 HD
ENDBRANCH  28  34
TORSDOF 3
ENDMDL
MODEL 7
REMARK VINA RESULT:      -7.1      3.602      8.651
REMARK  Name = 14132199_RiccardinD.pdbqt.pdb
REMARK  3 active torsions:
REMARK  status: ('A' for Active; 'I' for Inactive)
REMARK    1  A    between atoms: C_11  and  O_30
REMARK    2  A    between atoms: C_16  and  O_32
REMARK    3  A    between atoms: C_28  and  O_34
REMARK                            x       y       z     vdW  Elec       q    Type
REMARK                         _______ _______ _______ _____ _____    ______ ____
ROOT
ATOM      1  O   UNL     1     -28.101 101.736  20.229  0.00  0.00    +0.000 OA
ATOM      2  C   UNL     1     -32.592 101.267  14.940  0.00  0.00    +0.000 C 
ATOM      3  C   UNL     1     -33.743 100.782  14.235  0.00  0.00    +0.000 A 
ATOM      4  C   UNL     1     -34.571  99.763  14.774  0.00  0.00    +0.000 A 
ATOM      5  C   UNL     1     -31.415 101.692  15.833  0.00  0.00    +0.000 C 
ATOM      6  C   UNL     1     -32.466  97.995  19.684  0.00  0.00    +0.000 C 
ATOM      7  C   UNL     1     -34.202  99.073  16.030  0.00  0.00    +0.000 A 
ATOM      8  C   UNL     1     -33.197  98.072  18.463  0.00  0.00    +0.000 A 
ATOM      9  C   UNL     1     -31.416  98.302  20.755  0.00  0.00    +0.000 C 
ATOM     10  C   UNL     1     -30.405 101.943  16.809  0.00  0.00    +0.000 A 
ATOM     11  C   UNL     1     -34.941  99.173  17.218  0.00  0.00    +0.000 A 
ATOM     12  C   UNL     1     -30.303  98.965  21.338  0.00  0.00    +0.000 A 
ATOM     13  C   UNL     1     -33.002  98.349  16.077  0.00  0.00    +0.000 A 
ATOM     14  C   UNL     1     -34.439  98.699  18.432  0.00  0.00    +0.000 A 
ATOM     15  C   UNL     1     -32.497  97.862  17.278  0.00  0.00    +0.000 A 
ATOM     16  C   UNL     1     -35.734  99.438  14.051  0.00  0.00    +0.000 A 
ATOM     17  C   UNL     1     -34.052 101.389  13.015  0.00  0.00    +0.000 A 
ATOM     18  C   UNL     1     -36.027 100.033  12.825  0.00  0.00    +0.000 A 
ATOM     19  C   UNL     1     -35.180 101.003  12.302  0.00  0.00    +0.000 A 
ATOM     20  C   UNL     1     -29.753  99.985  20.570  0.00  0.00    +0.000 A 
ATOM     21  C   UNL     1     -29.238 101.178  16.805  0.00  0.00    +0.000 A 
ATOM     22  C   UNL     1     -30.684 102.794  17.879  0.00  0.00    +0.000 A 
ATOM     23  C   UNL     1     -28.652 100.721  20.994  0.00  0.00    +0.000 A 
ATOM     24  C   UNL     1     -29.750  98.657  22.572  0.00  0.00    +0.000 A 
ATOM     25  C   UNL     1     -28.738 101.964  19.023  0.00  0.00    +0.000 A 
ATOM     26  C   UNL     1     -28.391 101.195  17.911  0.00  0.00    +0.000 A 
ATOM     27  C   UNL     1     -29.842 102.816  18.990  0.00  0.00    +0.000 A 
ATOM     28  C   UNL     1     -28.099 100.412  22.231  0.00  0.00    +0.000 A 
ATOM     29  C   UNL     1     -28.641  99.389  23.017  0.00  0.00    +0.000 A 
ENDROOT
BRANCH  11  30
ATOM     30  O   UNL     1     -36.176  99.765  17.193  0.00  0.00    +0.000 OA
ATOM     31  H   UNL     1     -36.516  99.798  18.108  0.00  0.00    +0.000 HD
ENDBRANCH  11  30
BRANCH  16  32
ATOM     32  O   UNL     1     -36.655  98.536  14.515  0.00  0.00    +0.000 OA
ATOM     33  H   UNL     1     -36.564  97.734  13.967  0.00  0.00    +0.000 HD
ENDBRANCH  16  32
BRANCH  28  34
ATOM     34  O   UNL     1     -27.017 101.091  22.716  0.00  0.00    +0.000 OA
ATOM     35  H   UNL     1     -26.349 100.428  22.971  0.00  0.00    +0.000 HD
ENDBRANCH  28  34
TORSDOF 3
ENDMDL
MODEL 8
REMARK VINA RESULT:      -6.8     23.698     26.094
REMARK  Name = 14132199_RiccardinD.pdbqt.pdb
REMARK  3 active torsions:
REMARK  status: ('A' for Active; 'I' for Inactive)
REMARK    1  A    between atoms: C_11  and  O_30
REMARK    2  A    between atoms: C_16  and  O_32
REMARK    3  A    between atoms: C_28  and  O_34
REMARK                            x       y       z     vdW  Elec       q    Type
REMARK                         _______ _______ _______ _____ _____    ______ ____
ROOT
ATOM      1  O   UNL     1     -36.855  84.119  -0.598  0.00  0.00    +0.000 OA
ATOM      2  C   UNL     1     -37.354  89.019  -5.507  0.00  0.00    +0.000 C 
ATOM      3  C   UNL     1     -38.025  89.888  -6.431  0.00  0.00    +0.000 A 
ATOM      4  C   UNL     1     -39.432  89.844  -6.605  0.00  0.00    +0.000 A 
ATOM      5  C   UNL     1     -36.796  88.043  -4.459  0.00  0.00    +0.000 C 
ATOM      6  C   UNL     1     -41.625  85.767  -3.405  0.00  0.00    +0.000 C 
ATOM      7  C   UNL     1     -40.248  88.810  -5.930  0.00  0.00    +0.000 A 
ATOM      8  C   UNL     1     -41.437  86.755  -4.416  0.00  0.00    +0.000 A 
ATOM      9  C   UNL     1     -41.304  84.776  -2.284  0.00  0.00    +0.000 C 
ATOM     10  C   UNL     1     -36.489  87.082  -3.451  0.00  0.00    +0.000 A 
ATOM     11  C   UNL     1     -41.196  89.094  -4.936  0.00  0.00    +0.000 A 
ATOM     12  C   UNL     1     -40.484  84.068  -1.363  0.00  0.00    +0.000 A 
ATOM     13  C   UNL     1     -40.006  87.460  -6.222  0.00  0.00    +0.000 A 
ATOM     14  C   UNL     1     -41.773  88.082  -4.167  0.00  0.00    +0.000 A 
ATOM     15  C   UNL     1     -40.584  86.442  -5.471  0.00  0.00    +0.000 A 
ATOM     16  C   UNL     1     -40.000  90.812  -7.455  0.00  0.00    +0.000 A 
ATOM     17  C   UNL     1     -37.243  90.819  -7.119  0.00  0.00    +0.000 A 
ATOM     18  C   UNL     1     -39.213  91.727  -8.155  0.00  0.00    +0.000 A 
ATOM     19  C   UNL     1     -37.833  91.724  -7.993  0.00  0.00    +0.000 A 
ATOM     20  C   UNL     1     -39.134  84.402  -1.395  0.00  0.00    +0.000 A 
ATOM     21  C   UNL     1     -36.269  85.751  -3.810  0.00  0.00    +0.000 A 
ATOM     22  C   UNL     1     -36.624  87.433  -2.107  0.00  0.00    +0.000 A 
ATOM     23  C   UNL     1     -38.201  83.790  -0.566  0.00  0.00    +0.000 A 
ATOM     24  C   UNL     1     -40.933  83.098  -0.481  0.00  0.00    +0.000 A 
ATOM     25  C   UNL     1     -36.521  85.107  -1.506  0.00  0.00    +0.000 A 
ATOM     26  C   UNL     1     -36.273  84.757  -2.835  0.00  0.00    +0.000 A 
ATOM     27  C   UNL     1     -36.629  86.444  -1.125  0.00  0.00    +0.000 A 
ATOM     28  C   UNL     1     -38.652  82.817   0.318  0.00  0.00    +0.000 A 
ATOM     29  C   UNL     1     -40.007  82.471   0.364  0.00  0.00    +0.000 A 
ENDROOT
BRANCH  11  30
ATOM     30  O   UNL     1     -41.554  90.396  -4.701  0.00  0.00    +0.000 OA
ATOM     31  H   UNL     1     -42.523  90.467  -4.797  0.00  0.00    +0.000 HD
ENDBRANCH  11  30
BRANCH  16  32
ATOM     32  O   UNL     1     -41.353  90.927  -7.631  0.00  0.00    +0.000 OA
ATOM     33  H   UNL     1     -41.770  90.656  -6.791  0.00  0.00    +0.000 HD
ENDBRANCH  16  32
BRANCH  28  34
ATOM     34  O   UNL     1     -37.795  82.173   1.164  0.00  0.00    +0.000 OA
ATOM     35  H   UNL     1     -38.311  81.498   1.642  0.00  0.00    +0.000 HD
ENDBRANCH  28  34
TORSDOF 3
ENDMDL
MODEL 9
REMARK VINA RESULT:      -6.4     16.210     19.179
REMARK  Name = 14132199_RiccardinD.pdbqt.pdb
REMARK  3 active torsions:
REMARK  status: ('A' for Active; 'I' for Inactive)
REMARK    1  A    between atoms: C_11  and  O_30
REMARK    2  A    between atoms: C_16  and  O_32
REMARK    3  A    between atoms: C_28  and  O_34
REMARK                            x       y       z     vdW  Elec       q    Type
REMARK                         _______ _______ _______ _____ _____    ______ ____
ROOT
ATOM      1  O   UNL     1     -19.457 105.012   5.508  0.00  0.00    +0.000 OA
ATOM      2  C   UNL     1     -21.127 103.748  -1.124  0.00  0.00    +0.000 C 
ATOM      3  C   UNL     1     -22.004 103.550  -2.242  0.00  0.00    +0.000 A 
ATOM      4  C   UNL     1     -23.415 103.554  -2.090  0.00  0.00    +0.000 A 
ATOM      5  C   UNL     1     -20.331 104.001   0.167  0.00  0.00    +0.000 C 
ATOM      6  C   UNL     1     -24.747 104.195   3.340  0.00  0.00    +0.000 C 
ATOM      7  C   UNL     1     -24.032 103.635  -0.747  0.00  0.00    +0.000 A 
ATOM      8  C   UNL     1     -24.804 103.887   1.950  0.00  0.00    +0.000 A 
ATOM      9  C   UNL     1     -24.170 104.529   4.718  0.00  0.00    +0.000 C 
ATOM     10  C   UNL     1     -19.790 104.261   1.461  0.00  0.00    +0.000 A 
ATOM     11  C   UNL     1     -24.797 104.726  -0.308  0.00  0.00    +0.000 A 
ATOM     12  C   UNL     1     -23.156 104.795   5.678  0.00  0.00    +0.000 A 
ATOM     13  C   UNL     1     -23.771 102.617   0.180  0.00  0.00    +0.000 A 
ATOM     14  C   UNL     1     -25.164 104.869   1.032  0.00  0.00    +0.000 A 
ATOM     15  C   UNL     1     -24.142 102.741   1.516  0.00  0.00    +0.000 A 
ATOM     16  C   UNL     1     -24.183 103.459  -3.265  0.00  0.00    +0.000 A 
ATOM     17  C   UNL     1     -21.417 103.405  -3.501  0.00  0.00    +0.000 A 
ATOM     18  C   UNL     1     -23.591 103.295  -4.517  0.00  0.00    +0.000 A 
ATOM     19  C   UNL     1     -22.207 103.259  -4.634  0.00  0.00    +0.000 A 
ATOM     20  C   UNL     1     -21.856 104.790   5.183  0.00  0.00    +0.000 A 
ATOM     21  C   UNL     1     -19.565 103.201   2.340  0.00  0.00    +0.000 A 
ATOM     22  C   UNL     1     -19.696 105.579   1.911  0.00  0.00    +0.000 A 
ATOM     23  C   UNL     1     -20.753 105.020   5.998  0.00  0.00    +0.000 A 
ATOM     24  C   UNL     1     -23.380 105.038   7.025  0.00  0.00    +0.000 A 
ATOM     25  C   UNL     1     -19.353 104.771   4.150  0.00  0.00    +0.000 A 
ATOM     26  C   UNL     1     -19.333 103.453   3.690  0.00  0.00    +0.000 A 
ATOM     27  C   UNL     1     -19.465 105.840   3.260  0.00  0.00    +0.000 A 
ATOM     28  C   UNL     1     -20.979 105.263   7.348  0.00  0.00    +0.000 A 
ATOM     29  C   UNL     1     -22.281 105.273   7.861  0.00  0.00    +0.000 A 
ENDROOT
BRANCH  11  30
ATOM     30  O   UNL     1     -25.179 105.685  -1.209  0.00  0.00    +0.000 OA
ATOM     31  H   UNL     1     -24.376 106.030  -1.644  0.00  0.00    +0.000 HD
ENDBRANCH  11  30
BRANCH  16  32
ATOM     32  O   UNL     1     -25.550 103.542  -3.254  0.00  0.00    +0.000 OA
ATOM     33  H   UNL     1     -25.853 103.078  -2.451  0.00  0.00    +0.000 HD
ENDBRANCH  16  32
BRANCH  28  34
ATOM     34  O   UNL     1     -19.945 105.498   8.210  0.00  0.00    +0.000 OA
ATOM     35  H   UNL     1     -19.609 104.631   8.502  0.00  0.00    +0.000 HD
ENDBRANCH  28  34
TORSDOF 3
ENDMDL
