REMARK  Name = 14132199_RiccardinD.pdbqt.pdb
REMARK  3 active torsions:
REMARK  status: ('A' for Active; 'I' for Inactive)
REMARK    1  A    between atoms: C_11  and  O_30
REMARK    2  A    between atoms: C_16  and  O_32
REMARK    3  A    between atoms: C_28  and  O_34
REMARK                            x       y       z     vdW  Elec       q    Type
REMARK                         _______ _______ _______ _____ _____    ______ ____
ROOT
ATOM      1  O   UNL     1       3.994   2.653  -0.105  0.00  0.00    +0.000 OA
ATOM      2  C   UNL     1      -2.832   1.342  -0.324  0.00  0.00    +0.000 C 
ATOM      3  C   UNL     1      -4.014   0.529  -0.299  0.00  0.00    +0.000 A 
ATOM      4  C   UNL     1      -3.942  -0.885  -0.205  0.00  0.00    +0.000 A 
ATOM      5  C   UNL     1      -1.476   2.066  -0.311  0.00  0.00    +0.000 C 
ATOM      6  C   UNL     1       1.441  -2.526  -0.203  0.00  0.00    +0.000 C 
ATOM      7  C   UNL     1      -2.638  -1.583  -0.258  0.00  0.00    +0.000 A 
ATOM      8  C   UNL     1       0.020  -2.512  -0.314  0.00  0.00    +0.000 A 
ATOM      9  C   UNL     1       2.882  -2.019  -0.105  0.00  0.00    +0.000 C 
ATOM     10  C   UNL     1      -0.130   2.537  -0.272  0.00  0.00    +0.000 A 
ATOM     11  C   UNL     1      -2.094  -2.297   0.820  0.00  0.00    +0.000 A 
ATOM     12  C   UNL     1       3.925  -1.055  -0.052  0.00  0.00    +0.000 A 
ATOM     13  C   UNL     1      -1.849  -1.456  -1.410  0.00  0.00    +0.000 A 
ATOM     14  C   UNL     1      -0.770  -2.741   0.808  0.00  0.00    +0.000 A 
ATOM     15  C   UNL     1      -0.532  -1.905  -1.439  0.00  0.00    +0.000 A 
ATOM     16  C   UNL     1      -5.160  -1.578  -0.079  0.00  0.00    +0.000 A 
ATOM     17  C   UNL     1      -5.246   1.187  -0.318  0.00  0.00    +0.000 A 
ATOM     18  C   UNL     1      -6.388  -0.918  -0.118  0.00  0.00    +0.000 A 
ATOM     19  C   UNL     1      -6.431   0.465  -0.247  0.00  0.00    +0.000 A 
ATOM     20  C   UNL     1       3.508   0.271  -0.092  0.00  0.00    +0.000 A 
ATOM     21  C   UNL     1       0.603   2.629  -1.456  0.00  0.00    +0.000 A 
ATOM     22  C   UNL     1       0.505   2.693   0.961  0.00  0.00    +0.000 A 
ATOM     23  C   UNL     1       4.407   1.331  -0.062  0.00  0.00    +0.000 A 
ATOM     24  C   UNL     1       5.278  -1.350   0.023  0.00  0.00    +0.000 A 
ATOM     25  C   UNL     1       2.624   2.830  -0.167  0.00  0.00    +0.000 A 
ATOM     26  C   UNL     1       1.986   2.788  -1.408  0.00  0.00    +0.000 A 
ATOM     27  C   UNL     1       1.888   2.852   1.018  0.00  0.00    +0.000 A 
ATOM     28  C   UNL     1       5.763   1.034   0.013  0.00  0.00    +0.000 A 
ATOM     29  C   UNL     1       6.199  -0.295   0.056  0.00  0.00    +0.000 A 
ENDROOT
BRANCH  11  30
ATOM     30  O   UNL     1      -2.872  -2.550   1.919  0.00  0.00    +0.000 OA
ATOM     31  H   UNL     1      -2.297  -2.909   2.622  0.00  0.00    +0.000 HD
ENDBRANCH  11  30
BRANCH  16  32
ATOM     32  O   UNL     1      -5.214  -2.934   0.109  0.00  0.00    +0.000 OA
ATOM     33  H   UNL     1      -4.426  -3.177   0.631  0.00  0.00    +0.000 HD
ENDBRANCH  16  32
BRANCH  28  34
ATOM     34  O   UNL     1       6.706   2.022   0.047  0.00  0.00    +0.000 OA
ATOM     35  H   UNL     1       6.235   2.874   0.005  0.00  0.00    +0.000 HD
ENDBRANCH  28  34
TORSDOF 3
