MODEL 1
REMARK VINA RESULT:      -4.3      0.000      0.000
REMARK  Name = 146026348_FluorouracilMononitrate.pdbqt.pdb
REMARK  2 active torsions:
REMARK  status: ('A' for Active; 'I' for Inactive)
REMARK    1  A    between atoms: N_4  and  O_10
REMARK    2  A    between atoms: O_10  and  N_13
REMARK                            x       y       z     vdW  Elec       q    Type
REMARK                         _______ _______ _______ _____ _____    ______ ____
ROOT
ATOM      1  F   UNL     1     -40.388 101.730  14.030  0.00  0.00    +0.000 F 
ATOM      2  O   UNL     1     -38.427 102.133  12.080  0.00  0.00    +0.000 OA
ATOM      3  O   UNL     1     -35.750  99.117  14.449  0.00  0.00    +0.000 OA
ATOM      4  N   UNL     1     -36.994 100.756  13.316  0.00  0.00    +0.000 N 
ATOM      5  N   UNL     1     -39.148 101.227  14.131  0.00  0.00    +0.000 N 
ATOM      6  C   UNL     1     -38.212 101.452  13.079  0.00  0.00    +0.000 A 
ATOM      7  C   UNL     1     -36.730  99.834  14.330  0.00  0.00    +0.000 A 
ATOM      8  C   UNL     1     -37.836  99.774  15.257  0.00  0.00    +0.000 A 
ATOM      9  C   UNL     1     -38.855 100.384  15.139  0.00  0.00    +0.000 A 
ENDROOT
BRANCH   4  10
ATOM     10  O   UNL     1     -36.037 100.839  12.289  0.00  0.00    +0.000 OA
BRANCH  10  13
ATOM     11  O   UNL     1     -33.865 101.112  12.805  0.00  0.00    +0.000 OA
ATOM     12  O   UNL     1     -35.215 102.879  12.565  0.00  0.00    +0.000 OA
ATOM     13  N   UNL     1     -34.937 101.682  12.583  0.00  0.00    +0.000 N 
ENDBRANCH  10  13
ENDBRANCH   4  10
TORSDOF 2
ENDMDL
MODEL 2
REMARK VINA RESULT:      -4.0     25.977     26.837
REMARK  Name = 146026348_FluorouracilMononitrate.pdbqt.pdb
REMARK  2 active torsions:
REMARK  status: ('A' for Active; 'I' for Inactive)
REMARK    1  A    between atoms: N_4  and  O_10
REMARK    2  A    between atoms: O_10  and  N_13
REMARK                            x       y       z     vdW  Elec       q    Type
REMARK                         _______ _______ _______ _____ _____    ______ ____
ROOT
ATOM      1  F   UNL     1     -33.291  99.860 -16.110  0.00  0.00    +0.000 F 
ATOM      2  O   UNL     1     -34.639 101.493 -14.286  0.00  0.00    +0.000 OA
ATOM      3  O   UNL     1     -33.542  98.359 -10.993  0.00  0.00    +0.000 OA
ATOM      4  N   UNL     1     -34.252  99.876 -12.639  0.00  0.00    +0.000 N 
ATOM      5  N   UNL     1     -33.524  99.494 -14.841  0.00  0.00    +0.000 N 
ATOM      6  C   UNL     1     -34.193 100.395 -13.962  0.00  0.00    +0.000 A 
ATOM      7  C   UNL     1     -33.627  98.726 -12.153  0.00  0.00    +0.000 A 
ATOM      8  C   UNL     1     -33.006  97.995 -13.233  0.00  0.00    +0.000 A 
ATOM      9  C   UNL     1     -32.981  98.355 -14.370  0.00  0.00    +0.000 A 
ENDROOT
BRANCH   4  10
ATOM     10  O   UNL     1     -34.813 100.732 -11.674  0.00  0.00    +0.000 OA
BRANCH  10  13
ATOM     11  O   UNL     1     -36.978 100.160 -11.877  0.00  0.00    +0.000 OA
ATOM     12  O   UNL     1     -35.932 100.003  -9.906  0.00  0.00    +0.000 OA
ATOM     13  N   UNL     1     -36.020 100.259 -11.105  0.00  0.00    +0.000 N 
ENDBRANCH  10  13
ENDBRANCH   4  10
TORSDOF 2
ENDMDL
MODEL 3
REMARK VINA RESULT:      -3.7     15.634     16.935
REMARK  Name = 146026348_FluorouracilMononitrate.pdbqt.pdb
REMARK  2 active torsions:
REMARK  status: ('A' for Active; 'I' for Inactive)
REMARK    1  A    between atoms: N_4  and  O_10
REMARK    2  A    between atoms: O_10  and  N_13
REMARK                            x       y       z     vdW  Elec       q    Type
REMARK                         _______ _______ _______ _____ _____    ______ ____
ROOT
ATOM      1  F   UNL     1     -22.807 101.339   9.534  0.00  0.00    +0.000 F 
ATOM      2  O   UNL     1     -23.544 101.142   6.845  0.00  0.00    +0.000 OA
ATOM      3  O   UNL     1     -20.404  97.698   6.455  0.00  0.00    +0.000 OA
ATOM      4  N   UNL     1     -21.874  99.527   6.564  0.00  0.00    +0.000 N 
ATOM      5  N   UNL     1     -22.161 100.554   8.658  0.00  0.00    +0.000 N 
ATOM      6  C   UNL     1     -22.616 100.486   7.309  0.00  0.00    +0.000 A 
ATOM      7  C   UNL     1     -20.928  98.625   7.052  0.00  0.00    +0.000 A 
ATOM      8  C   UNL     1     -20.651  98.888   8.445  0.00  0.00    +0.000 A 
ATOM      9  C   UNL     1     -21.199  99.722   9.100  0.00  0.00    +0.000 A 
ENDROOT
BRANCH   4  10
ATOM     10  O   UNL     1     -22.308  99.317   5.242  0.00  0.00    +0.000 OA
BRANCH  10  13
ATOM     11  O   UNL     1     -20.522 100.243   4.238  0.00  0.00    +0.000 OA
ATOM     12  O   UNL     1     -22.599 100.838   3.657  0.00  0.00    +0.000 OA
ATOM     13  N   UNL     1     -21.754 100.215   4.297  0.00  0.00    +0.000 N 
ENDBRANCH  10  13
ENDBRANCH   4  10
TORSDOF 2
ENDMDL
MODEL 4
REMARK VINA RESULT:      -3.7     21.654     22.372
REMARK  Name = 146026348_FluorouracilMononitrate.pdbqt.pdb
REMARK  2 active torsions:
REMARK  status: ('A' for Active; 'I' for Inactive)
REMARK    1  A    between atoms: N_4  and  O_10
REMARK    2  A    between atoms: O_10  and  N_13
REMARK                            x       y       z     vdW  Elec       q    Type
REMARK                         _______ _______ _______ _____ _____    ______ ____
ROOT
ATOM      1  F   UNL     1     -19.145  89.723   4.081  0.00  0.00    +0.000 F 
ATOM      2  O   UNL     1     -20.895  89.105   6.170  0.00  0.00    +0.000 OA
ATOM      3  O   UNL     1     -23.603  86.993   2.996  0.00  0.00    +0.000 OA
ATOM      4  N   UNL     1     -22.358  88.178   4.596  0.00  0.00    +0.000 N 
ATOM      5  N   UNL     1     -20.350  89.168   3.880  0.00  0.00    +0.000 N 
ATOM      6  C   UNL     1     -21.173  88.855   5.001  0.00  0.00    +0.000 A 
ATOM      7  C   UNL     1     -22.669  87.707   3.319  0.00  0.00    +0.000 A 
ATOM      8  C   UNL     1     -21.674  88.141   2.366  0.00  0.00    +0.000 A 
ATOM      9  C   UNL     1     -20.695  88.764   2.643  0.00  0.00    +0.000 A 
ENDROOT
BRANCH   4  10
ATOM     10  O   UNL     1     -23.196  87.743   5.639  0.00  0.00    +0.000 OA
BRANCH  10  13
ATOM     11  O   UNL     1     -22.288  85.686   5.678  0.00  0.00    +0.000 OA
ATOM     12  O   UNL     1     -22.743  86.773   7.579  0.00  0.00    +0.000 OA
ATOM     13  N   UNL     1     -22.698  86.629   6.360  0.00  0.00    +0.000 N 
ENDBRANCH  10  13
ENDBRANCH   4  10
TORSDOF 2
ENDMDL
MODEL 5
REMARK VINA RESULT:      -3.7     25.073     26.004
REMARK  Name = 146026348_FluorouracilMononitrate.pdbqt.pdb
REMARK  2 active torsions:
REMARK  status: ('A' for Active; 'I' for Inactive)
REMARK    1  A    between atoms: N_4  and  O_10
REMARK    2  A    between atoms: O_10  and  N_13
REMARK                            x       y       z     vdW  Elec       q    Type
REMARK                         _______ _______ _______ _____ _____    ______ ____
ROOT
ATOM      1  F   UNL     1     -22.522  88.776  -6.774  0.00  0.00    +0.000 F 
ATOM      2  O   UNL     1     -24.417  90.328  -5.428  0.00  0.00    +0.000 OA
ATOM      3  O   UNL     1     -27.555  87.020  -6.467  0.00  0.00    +0.000 OA
ATOM      4  N   UNL     1     -26.054  88.780  -6.062  0.00  0.00    +0.000 N 
ATOM      5  N   UNL     1     -23.832  88.483  -6.770  0.00  0.00    +0.000 N 
ATOM      6  C   UNL     1     -24.733  89.308  -6.034  0.00  0.00    +0.000 A 
ATOM      7  C   UNL     1     -26.461  87.548  -6.578  0.00  0.00    +0.000 A 
ATOM      8  C   UNL     1     -25.365  86.899  -7.259  0.00  0.00    +0.000 A 
ATOM      9  C   UNL     1     -24.254  87.329  -7.320  0.00  0.00    +0.000 A 
ENDROOT
BRANCH   4  10
ATOM     10  O   UNL     1     -27.001  89.472  -5.287  0.00  0.00    +0.000 OA
BRANCH  10  13
ATOM     11  O   UNL     1     -26.270  89.181  -3.180  0.00  0.00    +0.000 OA
ATOM     12  O   UNL     1     -28.238  88.344  -3.834  0.00  0.00    +0.000 OA
ATOM     13  N   UNL     1     -27.180  88.951  -3.981  0.00  0.00    +0.000 N 
ENDBRANCH  10  13
ENDBRANCH   4  10
TORSDOF 2
ENDMDL
MODEL 6
REMARK VINA RESULT:      -3.6      1.907      3.121
REMARK  Name = 146026348_FluorouracilMononitrate.pdbqt.pdb
REMARK  2 active torsions:
REMARK  status: ('A' for Active; 'I' for Inactive)
REMARK    1  A    between atoms: N_4  and  O_10
REMARK    2  A    between atoms: O_10  and  N_13
REMARK                            x       y       z     vdW  Elec       q    Type
REMARK                         _______ _______ _______ _____ _____    ______ ____
ROOT
ATOM      1  F   UNL     1     -38.882 101.523  17.400  0.00  0.00    +0.000 F 
ATOM      2  O   UNL     1     -37.986  99.327  15.922  0.00  0.00    +0.000 OA
ATOM      3  O   UNL     1     -38.622 101.920  12.082  0.00  0.00    +0.000 OA
ATOM      4  N   UNL     1     -38.440 100.529  13.966  0.00  0.00    +0.000 N 
ATOM      5  N   UNL     1     -38.919 101.486  16.059  0.00  0.00    +0.000 N 
ATOM      6  C   UNL     1     -38.415 100.340  15.376  0.00  0.00    +0.000 A 
ATOM      7  C   UNL     1     -38.749 101.702  13.275  0.00  0.00    +0.000 A 
ATOM      8  C   UNL     1     -39.217 102.718  14.190  0.00  0.00    +0.000 A 
ATOM      9  C   UNL     1     -39.276 102.589  15.375  0.00  0.00    +0.000 A 
ENDROOT
BRANCH   4  10
ATOM     10  O   UNL     1     -37.877  99.490  13.204  0.00  0.00    +0.000 OA
BRANCH  10  13
ATOM     11  O   UNL     1     -35.717  99.426  13.828  0.00  0.00    +0.000 OA
ATOM     12  O   UNL     1     -36.291 100.025  11.751  0.00  0.00    +0.000 OA
ATOM     13  N   UNL     1     -36.502  99.664  12.907  0.00  0.00    +0.000 N 
ENDBRANCH  10  13
ENDBRANCH   4  10
TORSDOF 2
ENDMDL
MODEL 7
REMARK VINA RESULT:      -3.5     22.545     23.176
REMARK  Name = 146026348_FluorouracilMononitrate.pdbqt.pdb
REMARK  2 active torsions:
REMARK  status: ('A' for Active; 'I' for Inactive)
REMARK    1  A    between atoms: N_4  and  O_10
REMARK    2  A    between atoms: O_10  and  N_13
REMARK                            x       y       z     vdW  Elec       q    Type
REMARK                         _______ _______ _______ _____ _____    ______ ____
ROOT
ATOM      1  F   UNL     1     -38.079  89.472  -9.893  0.00  0.00    +0.000 F 
ATOM      2  O   UNL     1     -37.006  88.278  -7.605  0.00  0.00    +0.000 OA
ATOM      3  O   UNL     1     -38.056  92.217  -5.313  0.00  0.00    +0.000 OA
ATOM      4  N   UNL     1     -37.365  90.286  -6.457  0.00  0.00    +0.000 N 
ATOM      5  N   UNL     1     -37.904  90.136  -8.740  0.00  0.00    +0.000 N 
ATOM      6  C   UNL     1     -37.377  89.448  -7.607  0.00  0.00    +0.000 A 
ATOM      7  C   UNL     1     -37.922  91.559  -6.332  0.00  0.00    +0.000 A 
ATOM      8  C   UNL     1     -38.402  92.028  -7.611  0.00  0.00    +0.000 A 
ATOM      9  C   UNL     1     -38.378  91.391  -8.620  0.00  0.00    +0.000 A 
ENDROOT
BRANCH   4  10
ATOM     10  O   UNL     1     -36.949  89.670  -5.262  0.00  0.00    +0.000 OA
BRANCH  10  13
ATOM     11  O   UNL     1     -34.788  89.054  -5.365  0.00  0.00    +0.000 OA
ATOM     12  O   UNL     1     -35.400  90.907  -4.271  0.00  0.00    +0.000 OA
ATOM     13  N   UNL     1     -35.588  89.891  -4.937  0.00  0.00    +0.000 N 
ENDBRANCH  10  13
ENDBRANCH   4  10
TORSDOF 2
ENDMDL
MODEL 8
REMARK VINA RESULT:      -3.5     21.655     22.205
REMARK  Name = 146026348_FluorouracilMononitrate.pdbqt.pdb
REMARK  2 active torsions:
REMARK  status: ('A' for Active; 'I' for Inactive)
REMARK    1  A    between atoms: N_4  and  O_10
REMARK    2  A    between atoms: O_10  and  N_13
REMARK                            x       y       z     vdW  Elec       q    Type
REMARK                         _______ _______ _______ _____ _____    ______ ____
ROOT
ATOM      1  F   UNL     1     -46.622  80.914   2.319  0.00  0.00    +0.000 F 
ATOM      2  O   UNL     1     -46.707  83.159   3.981  0.00  0.00    +0.000 OA
ATOM      3  O   UNL     1     -42.194  82.370   4.923  0.00  0.00    +0.000 OA
ATOM      4  N   UNL     1     -44.496  82.710   4.606  0.00  0.00    +0.000 N 
ATOM      5  N   UNL     1     -45.602  81.267   3.117  0.00  0.00    +0.000 N 
ATOM      6  C   UNL     1     -45.711  82.444   3.914  0.00  0.00    +0.000 A 
ATOM      7  C   UNL     1     -43.275  82.052   4.455  0.00  0.00    +0.000 A 
ATOM      8  C   UNL     1     -43.423  80.907   3.587  0.00  0.00    +0.000 A 
ATOM      9  C   UNL     1     -44.434  80.603   3.031  0.00  0.00    +0.000 A 
ENDROOT
BRANCH   4  10
ATOM     10  O   UNL     1     -44.470  83.904   5.349  0.00  0.00    +0.000 OA
BRANCH  10  13
ATOM     11  O   UNL     1     -44.791  82.886   7.329  0.00  0.00    +0.000 OA
ATOM     12  O   UNL     1     -45.941  84.726   6.789  0.00  0.00    +0.000 OA
ATOM     13  N   UNL     1     -45.126  83.825   6.603  0.00  0.00    +0.000 N 
ENDBRANCH  10  13
ENDBRANCH   4  10
TORSDOF 2
ENDMDL
MODEL 9
REMARK VINA RESULT:      -3.5     16.105     17.342
REMARK  Name = 146026348_FluorouracilMononitrate.pdbqt.pdb
REMARK  2 active torsions:
REMARK  status: ('A' for Active; 'I' for Inactive)
REMARK    1  A    between atoms: N_4  and  O_10
REMARK    2  A    between atoms: O_10  and  N_13
REMARK                            x       y       z     vdW  Elec       q    Type
REMARK                         _______ _______ _______ _____ _____    ______ ____
ROOT
ATOM      1  F   UNL     1     -23.158 100.811   8.849  0.00  0.00    +0.000 F 
ATOM      2  O   UNL     1     -20.971  99.272   8.038  0.00  0.00    +0.000 OA
ATOM      3  O   UNL     1     -22.080 100.399   3.636  0.00  0.00    +0.000 OA
ATOM      4  N   UNL     1     -21.582  99.677   5.815  0.00  0.00    +0.000 N 
ATOM      5  N   UNL     1     -22.899 100.538   7.561  0.00  0.00    +0.000 N 
ATOM      6  C   UNL     1     -21.746  99.770   7.225  0.00  0.00    +0.000 A 
ATOM      7  C   UNL     1     -22.312 100.349   4.833  0.00  0.00    +0.000 A 
ATOM      8  C   UNL     1     -23.414 101.069   5.427  0.00  0.00    +0.000 A 
ATOM      9  C   UNL     1     -23.634 101.128   6.599  0.00  0.00    +0.000 A 
ENDROOT
BRANCH   4  10
ATOM     10  O   UNL     1     -20.419  99.016   5.381  0.00  0.00    +0.000 OA
BRANCH  10  13
ATOM     11  O   UNL     1     -21.102  97.321   4.069  0.00  0.00    +0.000 OA
ATOM     12  O   UNL     1     -20.187  96.922   6.070  0.00  0.00    +0.000 OA
ATOM     13  N   UNL     1     -20.590  97.628   5.149  0.00  0.00    +0.000 N 
ENDBRANCH  10  13
ENDBRANCH   4  10
TORSDOF 2
ENDMDL
