MODEL 1
REMARK VINA RESULT:      -7.7      0.000      0.000
REMARK  Name = 179268_Nortopsentin.pdbqt.pdb
REMARK  2 active torsions:
REMARK  status: ('A' for Active; 'I' for Inactive)
REMARK    1  A    between atoms: C_3  and  C_9
REMARK    2  A    between atoms: C_4  and  C_20
REMARK                            x       y       z     vdW  Elec       q    Type
REMARK                         _______ _______ _______ _____ _____    ______ ____
ROOT
ATOM      1  N   UNL     1     -23.200 101.809   4.421  0.00  0.00    +0.000 N 
ATOM      2  N   UNL     1     -25.243 101.048   4.048  0.00  0.00    +0.000 NA
ATOM      3  C   UNL     1     -23.294 100.639   5.121  0.00  0.00    +0.000 A 
ATOM      4  C   UNL     1     -24.398 102.022   3.786  0.00  0.00    +0.000 A 
ATOM      5  C   UNL     1     -24.569 100.183   4.876  0.00  0.00    +0.000 A 
ATOM      6  H   UNL     1     -22.399 102.419   4.370  0.00  0.00    +0.000 HD
ENDROOT
BRANCH   3   9
ATOM      7 BR   UNL     1     -20.381  99.886  11.724  0.00  0.00    +0.000 Br
ATOM      8  N   UNL     1     -20.496  98.762   6.497  0.00  0.00    +0.000 N 
ATOM      9  C   UNL     1     -22.248 100.012   5.954  0.00  0.00    +0.000 A 
ATOM     10  C   UNL     1     -22.019 100.156   7.353  0.00  0.00    +0.000 A 
ATOM     11  C   UNL     1     -20.912  99.360   7.664  0.00  0.00    +0.000 A 
ATOM     12  C   UNL     1     -21.297  99.150   5.460  0.00  0.00    +0.000 A 
ATOM     13  C   UNL     1     -22.636 100.882   8.390  0.00  0.00    +0.000 A 
ATOM     14  C   UNL     1     -20.391  99.252   8.959  0.00  0.00    +0.000 A 
ATOM     15  C   UNL     1     -22.134 100.789   9.688  0.00  0.00    +0.000 A 
ATOM     16  C   UNL     1     -21.032  99.986   9.957  0.00  0.00    +0.000 A 
ATOM     17  H   UNL     1     -19.713  98.128   6.416  0.00  0.00    +0.000 HD
ENDBRANCH   3   9
BRANCH   4  20
ATOM     18 BR   UNL     1     -23.955 104.910  -2.845  0.00  0.00    +0.000 Br
ATOM     19  N   UNL     1     -25.422 105.191   2.290  0.00  0.00    +0.000 N 
ATOM     20  C   UNL     1     -24.694 103.192   2.922  0.00  0.00    +0.000 A 
ATOM     21  C   UNL     1     -24.403 103.351   1.538  0.00  0.00    +0.000 A 
ATOM     22  C   UNL     1     -24.870 104.614   1.168  0.00  0.00    +0.000 A 
ATOM     23  C   UNL     1     -25.319 104.339   3.356  0.00  0.00    +0.000 A 
ATOM     24  C   UNL     1     -23.788 102.545   0.559  0.00  0.00    +0.000 A 
ATOM     25  C   UNL     1     -24.756 105.117  -0.131  0.00  0.00    +0.000 A 
ATOM     26  C   UNL     1     -23.663 103.029  -0.744  0.00  0.00    +0.000 A 
ATOM     27  C   UNL     1     -24.141 104.290  -1.073  0.00  0.00    +0.000 A 
ATOM     28  H   UNL     1     -25.840 106.111   2.318  0.00  0.00    +0.000 HD
ENDBRANCH   4  20
TORSDOF 2
ENDMDL
MODEL 2
REMARK VINA RESULT:      -7.2      1.912      2.772
REMARK  Name = 179268_Nortopsentin.pdbqt.pdb
REMARK  2 active torsions:
REMARK  status: ('A' for Active; 'I' for Inactive)
REMARK    1  A    between atoms: C_3  and  C_9
REMARK    2  A    between atoms: C_4  and  C_20
REMARK                            x       y       z     vdW  Elec       q    Type
REMARK                         _______ _______ _______ _____ _____    ______ ____
ROOT
ATOM      1  N   UNL     1     -23.179 101.781   4.362  0.00  0.00    +0.000 N 
ATOM      2  N   UNL     1     -25.255 101.078   4.064  0.00  0.00    +0.000 NA
ATOM      3  C   UNL     1     -23.284 100.620   5.077  0.00  0.00    +0.000 A 
ATOM      4  C   UNL     1     -24.390 102.024   3.764  0.00  0.00    +0.000 A 
ATOM      5  C   UNL     1     -24.580 100.201   4.878  0.00  0.00    +0.000 A 
ATOM      6  H   UNL     1     -22.362 102.366   4.279  0.00  0.00    +0.000 HD
ENDROOT
BRANCH   3   9
ATOM      7 BR   UNL     1     -17.793  95.881   5.266  0.00  0.00    +0.000 Br
ATOM      8  N   UNL     1     -20.975  99.463   7.640  0.00  0.00    +0.000 N 
ATOM      9  C   UNL     1     -22.231  99.970   5.881  0.00  0.00    +0.000 A 
ATOM     10  C   UNL     1     -21.274  98.996   5.475  0.00  0.00    +0.000 A 
ATOM     11  C   UNL     1     -20.499  98.697   6.601  0.00  0.00    +0.000 A 
ATOM     12  C   UNL     1     -22.020 100.234   7.214  0.00  0.00    +0.000 A 
ATOM     13  C   UNL     1     -20.983  98.334   4.266  0.00  0.00    +0.000 A 
ATOM     14  C   UNL     1     -19.450  97.771   6.580  0.00  0.00    +0.000 A 
ATOM     15  C   UNL     1     -19.940  97.408   4.222  0.00  0.00    +0.000 A 
ATOM     16  C   UNL     1     -19.194  97.139   5.363  0.00  0.00    +0.000 A 
ATOM     17  H   UNL     1     -20.607  99.458   8.582  0.00  0.00    +0.000 HD
ENDBRANCH   3   9
BRANCH   4  20
ATOM     18 BR   UNL     1     -23.934 104.899  -2.872  0.00  0.00    +0.000 Br
ATOM     19  N   UNL     1     -25.395 105.197   2.264  0.00  0.00    +0.000 N 
ATOM     20  C   UNL     1     -24.679 103.195   2.899  0.00  0.00    +0.000 A 
ATOM     21  C   UNL     1     -24.389 103.349   1.514  0.00  0.00    +0.000 A 
ATOM     22  C   UNL     1     -24.848 104.615   1.143  0.00  0.00    +0.000 A 
ATOM     23  C   UNL     1     -25.297 104.346   3.331  0.00  0.00    +0.000 A 
ATOM     24  C   UNL     1     -23.780 102.538   0.536  0.00  0.00    +0.000 A 
ATOM     25  C   UNL     1     -24.732 105.115  -0.157  0.00  0.00    +0.000 A 
ATOM     26  C   UNL     1     -23.652 103.019  -0.768  0.00  0.00    +0.000 A 
ATOM     27  C   UNL     1     -24.122 104.283  -1.098  0.00  0.00    +0.000 A 
ATOM     28  H   UNL     1     -25.808 106.119   2.292  0.00  0.00    +0.000 HD
ENDBRANCH   4  20
TORSDOF 2
ENDMDL
MODEL 3
REMARK VINA RESULT:      -7.0     17.987     20.017
REMARK  Name = 179268_Nortopsentin.pdbqt.pdb
REMARK  2 active torsions:
REMARK  status: ('A' for Active; 'I' for Inactive)
REMARK    1  A    between atoms: C_3  and  C_9
REMARK    2  A    between atoms: C_4  and  C_20
REMARK                            x       y       z     vdW  Elec       q    Type
REMARK                         _______ _______ _______ _____ _____    ______ ____
ROOT
ATOM      1  N   UNL     1     -29.375  88.594  16.481  0.00  0.00    +0.000 N 
ATOM      2  N   UNL     1     -28.513  90.335  15.422  0.00  0.00    +0.000 NA
ATOM      3  C   UNL     1     -30.003  89.693  16.999  0.00  0.00    +0.000 A 
ATOM      4  C   UNL     1     -28.482  89.023  15.531  0.00  0.00    +0.000 A 
ATOM      5  C   UNL     1     -29.453  90.762  16.328  0.00  0.00    +0.000 A 
ATOM      6  H   UNL     1     -29.529  87.632  16.742  0.00  0.00    +0.000 HD
ENDROOT
BRANCH   3   9
ATOM      7 BR   UNL     1     -36.657  87.654  19.051  0.00  0.00    +0.000 Br
ATOM      8  N   UNL     1     -32.031  90.169  19.983  0.00  0.00    +0.000 N 
ATOM      9  C   UNL     1     -31.041  89.714  18.049  0.00  0.00    +0.000 A 
ATOM     10  C   UNL     1     -32.337  89.123  18.032  0.00  0.00    +0.000 A 
ATOM     11  C   UNL     1     -32.935  89.425  19.259  0.00  0.00    +0.000 A 
ATOM     12  C   UNL     1     -30.885  90.347  19.260  0.00  0.00    +0.000 A 
ATOM     13  C   UNL     1     -33.067  88.361  17.100  0.00  0.00    +0.000 A 
ATOM     14  C   UNL     1     -34.225  89.005  19.603  0.00  0.00    +0.000 A 
ATOM     15  C   UNL     1     -34.355  87.931  17.421  0.00  0.00    +0.000 A 
ATOM     16  C   UNL     1     -34.914  88.252  18.652  0.00  0.00    +0.000 A 
ATOM     17  H   UNL     1     -32.189  90.531  20.914  0.00  0.00    +0.000 HD
ENDBRANCH   3   9
BRANCH   4  20
ATOM     18 BR   UNL     1     -28.069  84.135  10.198  0.00  0.00    +0.000 Br
ATOM     19  N   UNL     1     -25.777  87.097  14.014  0.00  0.00    +0.000 N 
ATOM     20  C   UNL     1     -27.605  88.126  14.738  0.00  0.00    +0.000 A 
ATOM     21  C   UNL     1     -27.980  87.251  13.680  0.00  0.00    +0.000 A 
ATOM     22  C   UNL     1     -26.813  86.618  13.246  0.00  0.00    +0.000 A 
ATOM     23  C   UNL     1     -26.245  88.010  14.921  0.00  0.00    +0.000 A 
ATOM     24  C   UNL     1     -29.197  86.933  13.046  0.00  0.00    +0.000 A 
ATOM     25  C   UNL     1     -26.797  85.681  12.208  0.00  0.00    +0.000 A 
ATOM     26  C   UNL     1     -29.204  85.998  12.009  0.00  0.00    +0.000 A 
ATOM     27  C   UNL     1     -28.022  85.391  11.605  0.00  0.00    +0.000 A 
ATOM     28  H   UNL     1     -24.811  86.814  13.921  0.00  0.00    +0.000 HD
ENDBRANCH   4  20
TORSDOF 2
ENDMDL
MODEL 4
REMARK VINA RESULT:      -7.0     14.763     16.407
REMARK  Name = 179268_Nortopsentin.pdbqt.pdb
REMARK  2 active torsions:
REMARK  status: ('A' for Active; 'I' for Inactive)
REMARK    1  A    between atoms: C_3  and  C_9
REMARK    2  A    between atoms: C_4  and  C_20
REMARK                            x       y       z     vdW  Elec       q    Type
REMARK                         _______ _______ _______ _____ _____    ______ ____
ROOT
ATOM      1  N   UNL     1     -35.066 100.413  14.242  0.00  0.00    +0.000 N 
ATOM      2  N   UNL     1     -35.256 101.835  12.558  0.00  0.00    +0.000 NA
ATOM      3  C   UNL     1     -33.787 100.712  13.862  0.00  0.00    +0.000 A 
ATOM      4  C   UNL     1     -35.925 101.111  13.431  0.00  0.00    +0.000 A 
ATOM      5  C   UNL     1     -33.928 101.595  12.816  0.00  0.00    +0.000 A 
ATOM      6  H   UNL     1     -35.345  99.791  14.986  0.00  0.00    +0.000 HD
ENDROOT
BRANCH   3   9
ATOM      7 BR   UNL     1     -30.681  96.805  19.128  0.00  0.00    +0.000 Br
ATOM      8  N   UNL     1     -30.366  99.815  14.720  0.00  0.00    +0.000 N 
ATOM      9  C   UNL     1     -32.537 100.193  14.453  0.00  0.00    +0.000 A 
ATOM     10  C   UNL     1     -32.369  99.381  15.610  0.00  0.00    +0.000 A 
ATOM     11  C   UNL     1     -30.996  99.159  15.753  0.00  0.00    +0.000 A 
ATOM     12  C   UNL     1     -31.289 100.441  13.930  0.00  0.00    +0.000 A 
ATOM     13  C   UNL     1     -33.242  98.807  16.555  0.00  0.00    +0.000 A 
ATOM     14  C   UNL     1     -30.451  98.396  16.791  0.00  0.00    +0.000 A 
ATOM     15  C   UNL     1     -32.721  98.042  17.598  0.00  0.00    +0.000 A 
ATOM     16  C   UNL     1     -31.349  97.846  17.705  0.00  0.00    +0.000 A 
ATOM     17  H   UNL     1     -29.367  99.832  14.565  0.00  0.00    +0.000 HD
ENDBRANCH   3   9
BRANCH   4  20
ATOM     18 BR   UNL     1     -42.113 104.867  13.763  0.00  0.00    +0.000 Br
ATOM     19  N   UNL     1     -39.458 100.226  13.678  0.00  0.00    +0.000 N 
ATOM     20  C   UNL     1     -37.405 101.054  13.529  0.00  0.00    +0.000 A 
ATOM     21  C   UNL     1     -38.319 102.144  13.568  0.00  0.00    +0.000 A 
ATOM     22  C   UNL     1     -39.600 101.595  13.662  0.00  0.00    +0.000 A 
ATOM     23  C   UNL     1     -38.134  99.889  13.598  0.00  0.00    +0.000 A 
ATOM     24  C   UNL     1     -38.187 103.546  13.532  0.00  0.00    +0.000 A 
ATOM     25  C   UNL     1     -40.759 102.374  13.722  0.00  0.00    +0.000 A 
ATOM     26  C   UNL     1     -39.331 104.343  13.593  0.00  0.00    +0.000 A 
ATOM     27  C   UNL     1     -40.588 103.759  13.685  0.00  0.00    +0.000 A 
ATOM     28  H   UNL     1     -40.223  99.568  13.740  0.00  0.00    +0.000 HD
ENDBRANCH   4  20
TORSDOF 2
ENDMDL
MODEL 5
REMARK VINA RESULT:      -6.8     15.352     18.005
REMARK  Name = 179268_Nortopsentin.pdbqt.pdb
REMARK  2 active torsions:
REMARK  status: ('A' for Active; 'I' for Inactive)
REMARK    1  A    between atoms: C_3  and  C_9
REMARK    2  A    between atoms: C_4  and  C_20
REMARK                            x       y       z     vdW  Elec       q    Type
REMARK                         _______ _______ _______ _____ _____    ______ ____
ROOT
ATOM      1  N   UNL     1     -39.293 102.722   2.175  0.00  0.00    +0.000 N 
ATOM      2  N   UNL     1     -38.562 102.214   4.200  0.00  0.00    +0.000 NA
ATOM      3  C   UNL     1     -40.252 101.919   2.726  0.00  0.00    +0.000 A 
ATOM      4  C   UNL     1     -38.287 102.877   3.096  0.00  0.00    +0.000 A 
ATOM      5  C   UNL     1     -39.779 101.615   3.982  0.00  0.00    +0.000 A 
ATOM      6  H   UNL     1     -39.307 103.135   1.255  0.00  0.00    +0.000 HD
ENDROOT
BRANCH   3   9
ATOM      7 BR   UNL     1     -47.294 100.401   3.593  0.00  0.00    +0.000 Br
ATOM      8  N   UNL     1     -42.931 100.805   0.529  0.00  0.00    +0.000 N 
ATOM      9  C   UNL     1     -41.516 101.481   2.100  0.00  0.00    +0.000 A 
ATOM     10  C   UNL     1     -42.793 101.300   2.704  0.00  0.00    +0.000 A 
ATOM     11  C   UNL     1     -43.661 100.876   1.693  0.00  0.00    +0.000 A 
ATOM     12  C   UNL     1     -41.635 101.169   0.766  0.00  0.00    +0.000 A 
ATOM     13  C   UNL     1     -43.305 101.453   4.007  0.00  0.00    +0.000 A 
ATOM     14  C   UNL     1     -45.014 100.596   1.918  0.00  0.00    +0.000 A 
ATOM     15  C   UNL     1     -44.651 101.180   4.254  0.00  0.00    +0.000 A 
ATOM     16  C   UNL     1     -45.481 100.760   3.222  0.00  0.00    +0.000 A 
ATOM     17  H   UNL     1     -43.298 100.526  -0.371  0.00  0.00    +0.000 HD
ENDBRANCH   3   9
BRANCH   4  20
ATOM     18 BR   UNL     1     -33.742 107.839   5.783  0.00  0.00    +0.000 Br
ATOM     19  N   UNL     1     -35.251 104.502   1.886  0.00  0.00    +0.000 N 
ATOM     20  C   UNL     1     -37.061 103.683   2.873  0.00  0.00    +0.000 A 
ATOM     21  C   UNL     1     -36.468 104.629   3.755  0.00  0.00    +0.000 A 
ATOM     22  C   UNL     1     -35.334 105.128   3.109  0.00  0.00    +0.000 A 
ATOM     23  C   UNL     1     -36.292 103.627   1.734  0.00  0.00    +0.000 A 
ATOM     24  C   UNL     1     -36.780 105.114   5.040  0.00  0.00    +0.000 A 
ATOM     25  C   UNL     1     -34.493 106.087   3.681  0.00  0.00    +0.000 A 
ATOM     26  C   UNL     1     -35.955 106.073   5.630  0.00  0.00    +0.000 A 
ATOM     27  C   UNL     1     -34.835 106.543   4.955  0.00  0.00    +0.000 A 
ATOM     28  H   UNL     1     -34.525 104.668   1.202  0.00  0.00    +0.000 HD
ENDBRANCH   4  20
TORSDOF 2
ENDMDL
MODEL 6
REMARK VINA RESULT:      -6.7     17.629     20.315
REMARK  Name = 179268_Nortopsentin.pdbqt.pdb
REMARK  2 active torsions:
REMARK  status: ('A' for Active; 'I' for Inactive)
REMARK    1  A    between atoms: C_3  and  C_9
REMARK    2  A    between atoms: C_4  and  C_20
REMARK                            x       y       z     vdW  Elec       q    Type
REMARK                         _______ _______ _______ _____ _____    ______ ____
ROOT
ATOM      1  N   UNL     1     -29.218  88.525  16.340  0.00  0.00    +0.000 N 
ATOM      2  N   UNL     1     -29.347  90.712  16.033  0.00  0.00    +0.000 NA
ATOM      3  C   UNL     1     -28.354  88.809  15.319  0.00  0.00    +0.000 A 
ATOM      4  C   UNL     1     -29.800  89.700  16.744  0.00  0.00    +0.000 A 
ATOM      5  C   UNL     1     -28.450  90.171  15.145  0.00  0.00    +0.000 A 
ATOM      6  H   UNL     1     -29.406  87.617  16.737  0.00  0.00    +0.000 HD
ENDROOT
BRANCH   3   9
ATOM      7 BR   UNL     1     -28.038  83.437  10.452  0.00  0.00    +0.000 Br
ATOM      8  N   UNL     1     -25.685  86.793  13.885  0.00  0.00    +0.000 N 
ATOM      9  C   UNL     1     -27.509  87.854  14.575  0.00  0.00    +0.000 A 
ATOM     10  C   UNL     1     -27.902  86.874  13.619  0.00  0.00    +0.000 A 
ATOM     11  C   UNL     1     -26.735  86.224  13.203  0.00  0.00    +0.000 A 
ATOM     12  C   UNL     1     -26.143  87.778  14.715  0.00  0.00    +0.000 A 
ATOM     13  C   UNL     1     -29.130  86.470  13.060  0.00  0.00    +0.000 A 
ATOM     14  C   UNL     1     -26.733  85.191  12.258  0.00  0.00    +0.000 A 
ATOM     15  C   UNL     1     -29.151  85.442  12.116  0.00  0.00    +0.000 A 
ATOM     16  C   UNL     1     -27.970  84.822  11.730  0.00  0.00    +0.000 A 
ATOM     17  H   UNL     1     -24.715  86.525  13.788  0.00  0.00    +0.000 HD
ENDBRANCH   3   9
BRANCH   4  20
ATOM     18 BR   UNL     1     -36.351  87.767  19.164  0.00  0.00    +0.000 Br
ATOM     19  N   UNL     1     -31.741  90.413  19.753  0.00  0.00    +0.000 N 
ATOM     20  C   UNL     1     -30.800  89.811  17.836  0.00  0.00    +0.000 A 
ATOM     21  C   UNL     1     -32.085  89.205  17.906  0.00  0.00    +0.000 A 
ATOM     22  C   UNL     1     -32.653  89.600  19.119  0.00  0.00    +0.000 A 
ATOM     23  C   UNL     1     -30.617  90.547  18.984  0.00  0.00    +0.000 A 
ATOM     24  C   UNL     1     -32.825  88.357  17.058  0.00  0.00    +0.000 A 
ATOM     25  C   UNL     1     -33.925  89.192  19.532  0.00  0.00    +0.000 A 
ATOM     26  C   UNL     1     -34.098  87.939  17.451  0.00  0.00    +0.000 A 
ATOM     27  C   UNL     1     -34.628  88.354  18.665  0.00  0.00    +0.000 A 
ATOM     28  H   UNL     1     -31.884  90.847  20.654  0.00  0.00    +0.000 HD
ENDBRANCH   4  20
TORSDOF 2
ENDMDL
MODEL 7
REMARK VINA RESULT:      -6.5     16.570     18.934
REMARK  Name = 179268_Nortopsentin.pdbqt.pdb
REMARK  2 active torsions:
REMARK  status: ('A' for Active; 'I' for Inactive)
REMARK    1  A    between atoms: C_3  and  C_9
REMARK    2  A    between atoms: C_4  and  C_20
REMARK                            x       y       z     vdW  Elec       q    Type
REMARK                         _______ _______ _______ _____ _____    ______ ____
ROOT
ATOM      1  N   UNL     1     -40.503 102.221   2.047  0.00  0.00    +0.000 N 
ATOM      2  N   UNL     1     -39.659 101.906   4.067  0.00  0.00    +0.000 NA
ATOM      3  C   UNL     1     -41.508 101.660   2.786  0.00  0.00    +0.000 A 
ATOM      4  C   UNL     1     -39.403 102.353   2.855  0.00  0.00    +0.000 A 
ATOM      5  C   UNL     1     -40.963 101.474   4.036  0.00  0.00    +0.000 A 
ATOM      6  H   UNL     1     -40.549 102.493   1.077  0.00  0.00    +0.000 HD
ENDROOT
BRANCH   3   9
ATOM      7 BR   UNL     1     -48.398 100.318   4.621  0.00  0.00    +0.000 Br
ATOM      8  N   UNL     1     -44.549 100.869   0.951  0.00  0.00    +0.000 N 
ATOM      9  C   UNL     1     -42.874 101.333   2.332  0.00  0.00    +0.000 A 
ATOM     10  C   UNL     1     -44.049 101.139   3.112  0.00  0.00    +0.000 A 
ATOM     11  C   UNL     1     -45.085 100.849   2.218  0.00  0.00    +0.000 A 
ATOM     12  C   UNL     1     -43.215 101.160   1.011  0.00  0.00    +0.000 A 
ATOM     13  C   UNL     1     -44.344 101.179   4.489  0.00  0.00    +0.000 A 
ATOM     14  C   UNL     1     -46.399 100.597   2.629  0.00  0.00    +0.000 A 
ATOM     15  C   UNL     1     -45.648 100.931   4.921  0.00  0.00    +0.000 A 
ATOM     16  C   UNL     1     -46.649 100.647   4.000  0.00  0.00    +0.000 A 
ATOM     17  H   UNL     1     -45.065 100.694   0.099  0.00  0.00    +0.000 HD
ENDBRANCH   3   9
BRANCH   4  20
ATOM     18 BR   UNL     1     -36.001 106.899  -1.647  0.00  0.00    +0.000 Br
ATOM     19  N   UNL     1     -35.921 103.310   2.317  0.00  0.00    +0.000 N 
ATOM     20  C   UNL     1     -38.104 102.923   2.419  0.00  0.00    +0.000 A 
ATOM     21  C   UNL     1     -37.873 103.884   1.395  0.00  0.00    +0.000 A 
ATOM     22  C   UNL     1     -36.495 104.108   1.353  0.00  0.00    +0.000 A 
ATOM     23  C   UNL     1     -36.886 102.590   2.967  0.00  0.00    +0.000 A 
ATOM     24  C   UNL     1     -38.699 104.589   0.497  0.00  0.00    +0.000 A 
ATOM     25  C   UNL     1     -35.896 105.001   0.459  0.00  0.00    +0.000 A 
ATOM     26  C   UNL     1     -38.122 105.485  -0.405  0.00  0.00    +0.000 A 
ATOM     27  C   UNL     1     -36.747 105.680  -0.415  0.00  0.00    +0.000 A 
ATOM     28  H   UNL     1     -34.931 103.265   2.513  0.00  0.00    +0.000 HD
ENDBRANCH   4  20
TORSDOF 2
ENDMDL
MODEL 8
REMARK VINA RESULT:      -6.5     13.648     18.280
REMARK  Name = 179268_Nortopsentin.pdbqt.pdb
REMARK  2 active torsions:
REMARK  status: ('A' for Active; 'I' for Inactive)
REMARK    1  A    between atoms: C_3  and  C_9
REMARK    2  A    between atoms: C_4  and  C_20
REMARK                            x       y       z     vdW  Elec       q    Type
REMARK                         _______ _______ _______ _____ _____    ______ ____
ROOT
ATOM      1  N   UNL     1     -29.323 100.589  18.595  0.00  0.00    +0.000 N 
ATOM      2  N   UNL     1     -28.990  98.575  19.447  0.00  0.00    +0.000 NA
ATOM      3  C   UNL     1     -29.761  99.707  17.647  0.00  0.00    +0.000 A 
ATOM      4  C   UNL     1     -28.864  99.867  19.668  0.00  0.00    +0.000 A 
ATOM      5  C   UNL     1     -29.545  98.463  18.196  0.00  0.00    +0.000 A 
ATOM      6  H   UNL     1     -29.329 101.596  18.532  0.00  0.00    +0.000 HD
ENDROOT
BRANCH   3   9
ATOM      7 BR   UNL     1     -35.750 100.645  13.660  0.00  0.00    +0.000 Br
ATOM      8  N   UNL     1     -30.428 100.566  14.174  0.00  0.00    +0.000 N 
ATOM      9  C   UNL     1     -30.337 100.031  16.326  0.00  0.00    +0.000 A 
ATOM     10  C   UNL     1     -31.708 100.112  15.949  0.00  0.00    +0.000 A 
ATOM     11  C   UNL     1     -31.734 100.450  14.592  0.00  0.00    +0.000 A 
ATOM     12  C   UNL     1     -29.579 100.315  15.215  0.00  0.00    +0.000 A 
ATOM     13  C   UNL     1     -32.934  99.933  16.619  0.00  0.00    +0.000 A 
ATOM     14  C   UNL     1     -32.922 100.618  13.871  0.00  0.00    +0.000 A 
ATOM     15  C   UNL     1     -34.130 100.097  15.920  0.00  0.00    +0.000 A 
ATOM     16  C   UNL     1     -34.114 100.433  14.572  0.00  0.00    +0.000 A 
ATOM     17  H   UNL     1     -30.137 100.803  13.235  0.00  0.00    +0.000 HD
ENDBRANCH   3   9
BRANCH   4  20
ATOM     18 BR   UNL     1     -25.968  98.654  26.199  0.00  0.00    +0.000 Br
ATOM     19  N   UNL     1     -27.633 101.993  22.369  0.00  0.00    +0.000 N 
ATOM     20  C   UNL     1     -28.305 100.466  20.906  0.00  0.00    +0.000 A 
ATOM     21  C   UNL     1     -27.803  99.789  22.052  0.00  0.00    +0.000 A 
ATOM     22  C   UNL     1     -27.389 100.772  22.954  0.00  0.00    +0.000 A 
ATOM     23  C   UNL     1     -28.188 101.819  21.130  0.00  0.00    +0.000 A 
ATOM     24  C   UNL     1     -27.657  98.435  22.416  0.00  0.00    +0.000 A 
ATOM     25  C   UNL     1     -26.835 100.474  24.203  0.00  0.00    +0.000 A 
ATOM     26  C   UNL     1     -27.108  98.116  23.659  0.00  0.00    +0.000 A 
ATOM     27  C   UNL     1     -26.708  99.123  24.527  0.00  0.00    +0.000 A 
ATOM     28  H   UNL     1     -27.432 102.888  22.795  0.00  0.00    +0.000 HD
ENDBRANCH   4  20
TORSDOF 2
ENDMDL
MODEL 9
REMARK VINA RESULT:      -6.4      2.077      9.317
REMARK  Name = 179268_Nortopsentin.pdbqt.pdb
REMARK  2 active torsions:
REMARK  status: ('A' for Active; 'I' for Inactive)
REMARK    1  A    between atoms: C_3  and  C_9
REMARK    2  A    between atoms: C_4  and  C_20
REMARK                            x       y       z     vdW  Elec       q    Type
REMARK                         _______ _______ _______ _____ _____    ______ ____
ROOT
ATOM      1  N   UNL     1     -24.573 103.284   1.703  0.00  0.00    +0.000 N 
ATOM      2  N   UNL     1     -25.247 104.461   3.450  0.00  0.00    +0.000 NA
ATOM      3  C   UNL     1     -24.976 104.492   1.205  0.00  0.00    +0.000 A 
ATOM      4  C   UNL     1     -24.753 103.304   3.063  0.00  0.00    +0.000 A 
ATOM      5  C   UNL     1     -25.390 105.206   2.305  0.00  0.00    +0.000 A 
ATOM      6  H   UNL     1     -24.207 102.506   1.176  0.00  0.00    +0.000 HD
ENDROOT
BRANCH   3   9
ATOM      7 BR   UNL     1     -22.192 103.583  -5.434  0.00  0.00    +0.000 Br
ATOM      8  N   UNL     1     -25.492 106.065  -2.036  0.00  0.00    +0.000 N 
ATOM      9  C   UNL     1     -24.963 104.922  -0.208  0.00  0.00    +0.000 A 
ATOM     10  C   UNL     1     -24.180 104.418  -1.285  0.00  0.00    +0.000 A 
ATOM     11  C   UNL     1     -24.534 105.155  -2.420  0.00  0.00    +0.000 A 
ATOM     12  C   UNL     1     -25.757 105.931  -0.702  0.00  0.00    +0.000 A 
ATOM     13  C   UNL     1     -23.205 103.411  -1.417  0.00  0.00    +0.000 A 
ATOM     14  C   UNL     1     -23.962 104.937  -3.679  0.00  0.00    +0.000 A 
ATOM     15  C   UNL     1     -22.623 103.175  -2.663  0.00  0.00    +0.000 A 
ATOM     16  C   UNL     1     -23.001 103.929  -3.767  0.00  0.00    +0.000 A 
ATOM     17  H   UNL     1     -25.936 106.735  -2.649  0.00  0.00    +0.000 HD
ENDBRANCH   3   9
BRANCH   4  20
ATOM     18 BR   UNL     1     -21.917 101.259   9.411  0.00  0.00    +0.000 Br
ATOM     19  N   UNL     1     -24.264 100.102   4.748  0.00  0.00    +0.000 N 
ATOM     20  C   UNL     1     -24.430 102.173   3.970  0.00  0.00    +0.000 A 
ATOM     21  C   UNL     1     -23.812 102.231   5.250  0.00  0.00    +0.000 A 
ATOM     22  C   UNL     1     -23.720 100.916   5.714  0.00  0.00    +0.000 A 
ATOM     23  C   UNL     1     -24.696 100.852   3.688  0.00  0.00    +0.000 A 
ATOM     24  C   UNL     1     -23.320 103.270   6.064  0.00  0.00    +0.000 A 
ATOM     25  C   UNL     1     -23.161 100.584   6.952  0.00  0.00    +0.000 A 
ATOM     26  C   UNL     1     -22.756 102.960   7.303  0.00  0.00    +0.000 A 
ATOM     27  C   UNL     1     -22.684 101.640   7.729  0.00  0.00    +0.000 A 
ATOM     28  H   UNL     1     -24.333  99.095   4.813  0.00  0.00    +0.000 HD
ENDBRANCH   4  20
TORSDOF 2
ENDMDL
