MODEL 1
REMARK VINA RESULT:      -4.3      0.000      0.000
REMARK  Name = 21574552_Mertensene.pdbqt.pdb
REMARK  1 active torsions:
REMARK  status: ('A' for Active; 'I' for Inactive)
REMARK    1  A    between atoms: C_4  and  C_13
REMARK                            x       y       z     vdW  Elec       q    Type
REMARK                         _______ _______ _______ _____ _____    ______ ____
ROOT
ATOM      1 BR   UNL     1     -40.538 105.432   3.353  0.00  0.00    +0.000 Br
ATOM      2 CL   UNL     1     -41.474 100.602   0.014  0.00  0.00    +0.000 Cl
ATOM      3 CL   UNL     1     -43.794 103.072  -0.327  0.00  0.00    +0.000 Cl
ATOM      4  C   UNL     1     -40.692 102.448   3.299  0.00  0.00    +0.000 C 
ATOM      5  C   UNL     1     -41.398 101.467   2.467  0.00  0.00    +0.000 C 
ATOM      6  C   UNL     1     -42.367 101.298   1.387  0.00  0.00    +0.000 C 
ATOM      7  C   UNL     1     -41.262 103.814   2.839  0.00  0.00    +0.000 C 
ATOM      8  C   UNL     1     -42.862 102.714   1.061  0.00  0.00    +0.000 C 
ATOM      9  C   UNL     1     -42.245 103.760   1.807  0.00  0.00    +0.000 C 
ATOM     10  C   UNL     1     -41.037 102.226   4.789  0.00  0.00    +0.000 C 
ATOM     11  C   UNL     1     -43.517 100.356   1.759  0.00  0.00    +0.000 C 
ENDROOT
BRANCH   4  13
ATOM     12 CL   UNL     1     -36.334 102.284   2.564  0.00  0.00    +0.000 Cl
ATOM     13  C   UNL     1     -39.244 102.391   3.047  0.00  0.00    +0.000 C 
ATOM     14  C   UNL     1     -38.061 102.346   2.846  0.00  0.00    +0.000 C 
ENDBRANCH   4  13
TORSDOF 1
ENDMDL
MODEL 2
REMARK VINA RESULT:      -4.0     16.307     18.491
REMARK  Name = 21574552_Mertensene.pdbqt.pdb
REMARK  1 active torsions:
REMARK  status: ('A' for Active; 'I' for Inactive)
REMARK    1  A    between atoms: C_4  and  C_13
REMARK                            x       y       z     vdW  Elec       q    Type
REMARK                         _______ _______ _______ _____ _____    ______ ____
ROOT
ATOM      1 BR   UNL     1     -22.066 104.278   7.429  0.00  0.00    +0.000 Br
ATOM      2 CL   UNL     1     -23.185 100.824   2.720  0.00  0.00    +0.000 Cl
ATOM      3 CL   UNL     1     -24.939 103.742   2.828  0.00  0.00    +0.000 Cl
ATOM      4  C   UNL     1     -22.721 101.522   6.476  0.00  0.00    +0.000 C 
ATOM      5  C   UNL     1     -23.418 100.974   5.308  0.00  0.00    +0.000 C 
ATOM      6  C   UNL     1     -24.184 101.312   4.111  0.00  0.00    +0.000 C 
ATOM      7  C   UNL     1     -22.951 103.051   6.371  0.00  0.00    +0.000 C 
ATOM      8  C   UNL     1     -24.358 102.836   4.157  0.00  0.00    +0.000 C 
ATOM      9  C   UNL     1     -23.718 103.488   5.252  0.00  0.00    +0.000 C 
ATOM     10  C   UNL     1     -23.370 100.996   7.776  0.00  0.00    +0.000 C 
ATOM     11  C   UNL     1     -25.528 100.580   4.035  0.00  0.00    +0.000 C 
ENDROOT
BRANCH   4  13
ATOM     12 CL   UNL     1     -18.400 100.605   6.252  0.00  0.00    +0.000 Cl
ATOM     13  C   UNL     1     -21.283 101.218   6.409  0.00  0.00    +0.000 C 
ATOM     14  C   UNL     1     -20.110 100.970   6.350  0.00  0.00    +0.000 C 
ENDBRANCH   4  13
TORSDOF 1
ENDMDL
MODEL 3
REMARK VINA RESULT:      -4.0     12.410     14.393
REMARK  Name = 21574552_Mertensene.pdbqt.pdb
REMARK  1 active torsions:
REMARK  status: ('A' for Active; 'I' for Inactive)
REMARK    1  A    between atoms: C_4  and  C_13
REMARK                            x       y       z     vdW  Elec       q    Type
REMARK                         _______ _______ _______ _____ _____    ______ ____
ROOT
ATOM      1 BR   UNL     1     -34.914 100.996  18.156  0.00  0.00    +0.000 Br
ATOM      2 CL   UNL     1     -34.801 101.006  12.210  0.00  0.00    +0.000 Cl
ATOM      3 CL   UNL     1     -36.570 103.546  13.631  0.00  0.00    +0.000 Cl
ATOM      4  C   UNL     1     -35.277  99.382  15.667  0.00  0.00    +0.000 C 
ATOM      5  C   UNL     1     -35.660  99.690  14.285  0.00  0.00    +0.000 C 
ATOM      6  C   UNL     1     -36.116 100.744  13.382  0.00  0.00    +0.000 C 
ATOM      7  C   UNL     1     -35.496 100.714  16.427  0.00  0.00    +0.000 C 
ATOM      8  C   UNL     1     -36.317 101.980  14.269  0.00  0.00    +0.000 C 
ATOM      9  C   UNL     1     -35.974 101.805  15.642  0.00  0.00    +0.000 C 
ATOM     10  C   UNL     1     -36.215  98.301  16.249  0.00  0.00    +0.000 C 
ATOM     11  C   UNL     1     -37.390 100.367  12.619  0.00  0.00    +0.000 C 
ENDROOT
BRANCH   4  13
ATOM     12 CL   UNL     1     -31.027  98.172  15.858  0.00  0.00    +0.000 Cl
ATOM     13  C   UNL     1     -33.861  98.986  15.734  0.00  0.00    +0.000 C 
ATOM     14  C   UNL     1     -32.707  98.659  15.787  0.00  0.00    +0.000 C 
ENDBRANCH   4  13
TORSDOF 1
ENDMDL
MODEL 4
REMARK VINA RESULT:      -3.9     20.815     22.234
REMARK  Name = 21574552_Mertensene.pdbqt.pdb
REMARK  1 active torsions:
REMARK  status: ('A' for Active; 'I' for Inactive)
REMARK    1  A    between atoms: C_4  and  C_13
REMARK                            x       y       z     vdW  Elec       q    Type
REMARK                         _______ _______ _______ _____ _____    ______ ____
ROOT
ATOM      1 BR   UNL     1     -30.807  86.750  -7.756  0.00  0.00    +0.000 Br
ATOM      2 CL   UNL     1     -25.094  87.936  -6.610  0.00  0.00    +0.000 Cl
ATOM      3 CL   UNL     1     -26.956  87.027  -3.907  0.00  0.00    +0.000 Cl
ATOM      4  C   UNL     1     -28.548  88.668  -8.142  0.00  0.00    +0.000 C 
ATOM      5  C   UNL     1     -27.338  89.003  -7.382  0.00  0.00    +0.000 C 
ATOM      6  C   UNL     1     -26.603  88.757  -6.144  0.00  0.00    +0.000 C 
ATOM      7  C   UNL     1     -29.329  87.711  -7.207  0.00  0.00    +0.000 C 
ATOM      8  C   UNL     1     -27.502  87.829  -5.316  0.00  0.00    +0.000 C 
ATOM      9  C   UNL     1     -28.713  87.428  -5.953  0.00  0.00    +0.000 C 
ATOM     10  C   UNL     1     -29.389  89.941  -8.388  0.00  0.00    +0.000 C 
ATOM     11  C   UNL     1     -26.254  90.045  -5.391  0.00  0.00    +0.000 C 
ENDROOT
BRANCH   4  13
ATOM     12 CL   UNL     1     -27.472  86.598 -11.899  0.00  0.00    +0.000 Cl
ATOM     13  C   UNL     1     -28.196  87.981  -9.394  0.00  0.00    +0.000 C 
ATOM     14  C   UNL     1     -27.906  87.420 -10.415  0.00  0.00    +0.000 C 
ENDBRANCH   4  13
TORSDOF 1
ENDMDL
MODEL 5
REMARK VINA RESULT:      -3.8     15.070     16.406
REMARK  Name = 21574552_Mertensene.pdbqt.pdb
REMARK  1 active torsions:
REMARK  status: ('A' for Active; 'I' for Inactive)
REMARK    1  A    between atoms: C_4  and  C_13
REMARK                            x       y       z     vdW  Elec       q    Type
REMARK                         _______ _______ _______ _____ _____    ______ ____
ROOT
ATOM      1 BR   UNL     1     -40.587  90.368  -7.890  0.00  0.00    +0.000 Br
ATOM      2 CL   UNL     1     -34.899  88.806  -7.137  0.00  0.00    +0.000 Cl
ATOM      3 CL   UNL     1     -37.159  86.921  -5.423  0.00  0.00    +0.000 Cl
ATOM      4  C   UNL     1     -37.817  91.311  -7.281  0.00  0.00    +0.000 C 
ATOM      5  C   UNL     1     -36.628  90.697  -6.681  0.00  0.00    +0.000 C 
ATOM      6  C   UNL     1     -36.107  89.499  -6.027  0.00  0.00    +0.000 C 
ATOM      7  C   UNL     1     -38.931  90.252  -7.083  0.00  0.00    +0.000 C 
ATOM      8  C   UNL     1     -37.314  88.564  -5.872  0.00  0.00    +0.000 C 
ATOM      9  C   UNL     1     -38.535  89.052  -6.423  0.00  0.00    +0.000 C 
ATOM     10  C   UNL     1     -38.195  92.598  -6.513  0.00  0.00    +0.000 C 
ATOM     11  C   UNL     1     -35.431  89.797  -4.684  0.00  0.00    +0.000 C 
ENDROOT
BRANCH   4  13
ATOM     12 CL   UNL     1     -37.159  92.041 -11.593  0.00  0.00    +0.000 Cl
ATOM     13  C   UNL     1     -37.602  91.561  -8.715  0.00  0.00    +0.000 C 
ATOM     14  C   UNL     1     -37.424  91.761  -9.885  0.00  0.00    +0.000 C 
ENDBRANCH   4  13
TORSDOF 1
ENDMDL
MODEL 6
REMARK VINA RESULT:      -3.7     15.161     16.307
REMARK  Name = 21574552_Mertensene.pdbqt.pdb
REMARK  1 active torsions:
REMARK  status: ('A' for Active; 'I' for Inactive)
REMARK    1  A    between atoms: C_4  and  C_13
REMARK                            x       y       z     vdW  Elec       q    Type
REMARK                         _______ _______ _______ _____ _____    ______ ____
ROOT
ATOM      1 BR   UNL     1     -34.601  88.308  -7.858  0.00  0.00    +0.000 Br
ATOM      2 CL   UNL     1     -39.913  90.831  -6.974  0.00  0.00    +0.000 Cl
ATOM      3 CL   UNL     1     -38.150  92.052  -9.621  0.00  0.00    +0.000 Cl
ATOM      4  C   UNL     1     -36.452  89.558  -5.872  0.00  0.00    +0.000 C 
ATOM      5  C   UNL     1     -37.537  90.542  -5.951  0.00  0.00    +0.000 C 
ATOM      6  C   UNL     1     -38.252  91.458  -6.835  0.00  0.00    +0.000 C 
ATOM      7  C   UNL     1     -35.835  89.560  -7.293  0.00  0.00    +0.000 C 
ATOM      8  C   UNL     1     -37.519  91.378  -8.181  0.00  0.00    +0.000 C 
ATOM      9  C   UNL     1     -36.440  90.448  -8.231  0.00  0.00    +0.000 C 
ATOM     10  C   UNL     1     -35.388  90.021  -4.852  0.00  0.00    +0.000 C 
ATOM     11  C   UNL     1     -38.308  92.890  -6.293  0.00  0.00    +0.000 C 
ENDROOT
BRANCH   4  13
ATOM     12 CL   UNL     1     -38.039  85.545  -4.901  0.00  0.00    +0.000 Cl
ATOM     13  C   UNL     1     -36.987  88.225  -5.552  0.00  0.00    +0.000 C 
ATOM     14  C   UNL     1     -37.419  87.136  -5.289  0.00  0.00    +0.000 C 
ENDBRANCH   4  13
TORSDOF 1
ENDMDL
MODEL 7
REMARK VINA RESULT:      -3.7     23.617     25.255
REMARK  Name = 21574552_Mertensene.pdbqt.pdb
REMARK  1 active torsions:
REMARK  status: ('A' for Active; 'I' for Inactive)
REMARK    1  A    between atoms: C_4  and  C_13
REMARK                            x       y       z     vdW  Elec       q    Type
REMARK                         _______ _______ _______ _____ _____    ______ ____
ROOT
ATOM      1 BR   UNL     1     -27.113  79.909  10.869  0.00  0.00    +0.000 Br
ATOM      2 CL   UNL     1     -28.894  85.455   9.675  0.00  0.00    +0.000 Cl
ATOM      3 CL   UNL     1     -25.576  85.115  10.365  0.00  0.00    +0.000 Cl
ATOM      4  C   UNL     1     -29.121  82.046  11.445  0.00  0.00    +0.000 C 
ATOM      5  C   UNL     1     -29.111  83.512  11.392  0.00  0.00    +0.000 C 
ATOM      6  C   UNL     1     -28.279  84.689  11.160  0.00  0.00    +0.000 C 
ATOM      7  C   UNL     1     -27.646  81.647  11.188  0.00  0.00    +0.000 C 
ATOM      8  C   UNL     1     -26.858  84.148  10.953  0.00  0.00    +0.000 C 
ATOM      9  C   UNL     1     -26.739  82.728  10.981  0.00  0.00    +0.000 C 
ATOM     10  C   UNL     1     -29.541  81.569  12.854  0.00  0.00    +0.000 C 
ATOM     11  C   UNL     1     -28.349  85.705  12.306  0.00  0.00    +0.000 C 
ENDROOT
BRANCH   4  13
ATOM     12 CL   UNL     1     -31.730  80.416   8.267  0.00  0.00    +0.000 Cl
ATOM     13  C   UNL     1     -29.988  81.497  10.390  0.00  0.00    +0.000 C 
ATOM     14  C   UNL     1     -30.695  81.052   9.529  0.00  0.00    +0.000 C 
ENDBRANCH   4  13
TORSDOF 1
ENDMDL
MODEL 8
REMARK VINA RESULT:      -3.5     24.120     25.448
REMARK  Name = 21574552_Mertensene.pdbqt.pdb
REMARK  1 active torsions:
REMARK  status: ('A' for Active; 'I' for Inactive)
REMARK    1  A    between atoms: C_4  and  C_13
REMARK                            x       y       z     vdW  Elec       q    Type
REMARK                         _______ _______ _______ _____ _____    ______ ____
ROOT
ATOM      1 BR   UNL     1     -18.479  86.636   2.572  0.00  0.00    +0.000 Br
ATOM      2 CL   UNL     1     -22.263  87.465   7.083  0.00  0.00    +0.000 Cl
ATOM      3 CL   UNL     1     -21.856  84.227   6.109  0.00  0.00    +0.000 Cl
ATOM      4  C   UNL     1     -20.815  88.195   3.592  0.00  0.00    +0.000 C 
ATOM      5  C   UNL     1     -21.895  87.926   4.548  0.00  0.00    +0.000 C 
ATOM      6  C   UNL     1     -22.501  86.913   5.407  0.00  0.00    +0.000 C 
ATOM      7  C   UNL     1     -20.094  86.832   3.444  0.00  0.00    +0.000 C 
ATOM      8  C   UNL     1     -21.712  85.625   5.134  0.00  0.00    +0.000 C 
ATOM      9  C   UNL     1     -20.628  85.760   4.218  0.00  0.00    +0.000 C 
ATOM     10  C   UNL     1     -21.406  88.611   2.226  0.00  0.00    +0.000 C 
ATOM     11  C   UNL     1     -24.002  86.735   5.153  0.00  0.00    +0.000 C 
ENDROOT
BRANCH   4  13
ATOM     12 CL   UNL     1     -18.016  91.222   5.194  0.00  0.00    +0.000 Cl
ATOM     13  C   UNL     1     -19.890  89.204   4.129  0.00  0.00    +0.000 C 
ATOM     14  C   UNL     1     -19.132  90.027   4.565  0.00  0.00    +0.000 C 
ENDBRANCH   4  13
TORSDOF 1
ENDMDL
MODEL 9
REMARK VINA RESULT:      -3.4     15.472     16.706
REMARK  Name = 21574552_Mertensene.pdbqt.pdb
REMARK  1 active torsions:
REMARK  status: ('A' for Active; 'I' for Inactive)
REMARK    1  A    between atoms: C_4  and  C_13
REMARK                            x       y       z     vdW  Elec       q    Type
REMARK                         _______ _______ _______ _____ _____    ______ ____
ROOT
ATOM      1 BR   UNL     1     -40.517  87.401  -4.919  0.00  0.00    +0.000 Br
ATOM      2 CL   UNL     1     -35.408  90.443  -4.828  0.00  0.00    +0.000 Cl
ATOM      3 CL   UNL     1     -37.907  91.860  -6.660  0.00  0.00    +0.000 Cl
ATOM      4  C   UNL     1     -37.549  87.273  -5.248  0.00  0.00    +0.000 C 
ATOM      5  C   UNL     1     -36.514  88.233  -5.645  0.00  0.00    +0.000 C 
ATOM      6  C   UNL     1     -36.269  89.588  -6.132  0.00  0.00    +0.000 C 
ATOM      7  C   UNL     1     -38.880  88.026  -5.500  0.00  0.00    +0.000 C 
ATOM      8  C   UNL     1     -37.660  90.194  -6.363  0.00  0.00    +0.000 C 
ATOM      9  C   UNL     1     -38.755  89.352  -6.010  0.00  0.00    +0.000 C 
ATOM     10  C   UNL     1     -37.490  86.023  -6.156  0.00  0.00    +0.000 C 
ATOM     11  C   UNL     1     -35.407  89.621  -7.398  0.00  0.00    +0.000 C 
ENDROOT
BRANCH   4  13
ATOM     12 CL   UNL     1     -37.181  86.245  -0.963  0.00  0.00    +0.000 Cl
ATOM     13  C   UNL     1     -37.420  86.933  -3.823  0.00  0.00    +0.000 C 
ATOM     14  C   UNL     1     -37.318  86.654  -2.660  0.00  0.00    +0.000 C 
ENDBRANCH   4  13
TORSDOF 1
ENDMDL
