MODEL 1
REMARK VINA RESULT:      -7.1      0.000      0.000
REMARK  Name = 222284_BetaSitosterol.pdbqt.pdb
REMARK  5 active torsions:
REMARK  status: ('A' for Active; 'I' for Inactive)
REMARK    1  A    between atoms: C_5  and  C_22
REMARK    2  A    between atoms: C_19  and  O_20
REMARK    3  A    between atoms: C_22  and  C_24
REMARK    4  A    between atoms: C_25  and  C_26
REMARK    5  A    between atoms: C_26  and  C_30
REMARK                            x       y       z     vdW  Elec       q    Type
REMARK                         _______ _______ _______ _____ _____    ______ ____
ROOT
ATOM      1  C   UNL     1     -22.265 102.005   4.317  0.00  0.00    +0.000 C 
ATOM      2  C   UNL     1     -23.682 102.650   3.900  0.00  0.00    +0.000 C 
ATOM      3  C   UNL     1     -23.844 103.461   2.675  0.00  0.00    +0.000 C 
ATOM      4  C   UNL     1     -22.855 103.557   1.541  0.00  0.00    +0.000 C 
ATOM      5  C   UNL     1     -22.631 100.602   4.778  0.00  0.00    +0.000 C 
ATOM      6  C   UNL     1     -21.459 102.033   3.095  0.00  0.00    +0.000 C 
ATOM      7  C   UNL     1     -23.042 104.487   0.311  0.00  0.00    +0.000 C 
ATOM      8  C   UNL     1     -24.697 101.714   4.273  0.00  0.00    +0.000 C 
ATOM      9  C   UNL     1     -21.702 102.767   1.799  0.00  0.00    +0.000 C 
ATOM     10  C   UNL     1     -24.047 100.450   4.770  0.00  0.00    +0.000 C 
ATOM     11  C   UNL     1     -25.057 104.140   2.403  0.00  0.00    +0.000 C 
ATOM     12  C   UNL     1     -21.673 102.847   5.477  0.00  0.00    +0.000 C 
ATOM     13  C   UNL     1     -24.589 105.029   0.108  0.00  0.00    +0.000 C 
ATOM     14  C   UNL     1     -22.754 103.741  -0.949  0.00  0.00    +0.000 C 
ATOM     15  C   UNL     1     -25.365 104.885   1.139  0.00  0.00    +0.000 C 
ATOM     16  C   UNL     1     -22.135 105.741   0.480  0.00  0.00    +0.000 C 
ATOM     17  C   UNL     1     -25.160 104.795  -1.199  0.00  0.00    +0.000 C 
ATOM     18  C   UNL     1     -23.517 103.526  -2.267  0.00  0.00    +0.000 C 
ATOM     19  C   UNL     1     -24.806 104.118  -2.409  0.00  0.00    +0.000 C 
ENDROOT
BRANCH  19  20
ATOM     20  O   UNL     1     -25.274 104.518  -3.626  0.00  0.00    +0.000 OA
ATOM     21  H   UNL     1     -26.185 104.852  -3.566  0.00  0.00    +0.000 HD
ENDBRANCH  19  20
BRANCH   5  22
ATOM     22  C   UNL     1     -21.688  99.580   5.110  0.00  0.00    +0.000 C 
ATOM     23  C   UNL     1     -21.229  98.549   4.110  0.00  0.00    +0.000 C 
BRANCH  22  24
ATOM     24  C   UNL     1     -21.103  99.478   6.401  0.00  0.00    +0.000 C 
ATOM     25  C   UNL     1     -20.492  99.386   7.807  0.00  0.00    +0.000 C 
BRANCH  25  26
ATOM     26  C   UNL     1     -19.925  99.320   9.116  0.00  0.00    +0.000 C 
ATOM     27  C   UNL     1     -20.581  99.961  10.235  0.00  0.00    +0.000 C 
ATOM     28  C   UNL     1     -21.891 100.711  10.089  0.00  0.00    +0.000 C 
ATOM     29  C   UNL     1     -20.018  99.973  11.639  0.00  0.00    +0.000 C 
BRANCH  26  30
ATOM     30  C   UNL     1     -18.713  98.612   9.329  0.00  0.00    +0.000 C 
ATOM     31  C   UNL     1     -17.414  97.848   9.612  0.00  0.00    +0.000 C 
ENDBRANCH  26  30
ENDBRANCH  25  26
ENDBRANCH  22  24
ENDBRANCH   5  22
TORSDOF 5
ENDMDL
MODEL 2
REMARK VINA RESULT:      -7.0     19.551     22.412
REMARK  Name = 222284_BetaSitosterol.pdbqt.pdb
REMARK  5 active torsions:
REMARK  status: ('A' for Active; 'I' for Inactive)
REMARK    1  A    between atoms: C_5  and  C_22
REMARK    2  A    between atoms: C_19  and  O_20
REMARK    3  A    between atoms: C_22  and  C_24
REMARK    4  A    between atoms: C_25  and  C_26
REMARK    5  A    between atoms: C_26  and  C_30
REMARK                            x       y       z     vdW  Elec       q    Type
REMARK                         _______ _______ _______ _____ _____    ______ ____
ROOT
ATOM      1  C   UNL     1     -43.834 101.952   2.329  0.00  0.00    +0.000 C 
ATOM      2  C   UNL     1     -44.611 101.547   3.683  0.00  0.00    +0.000 C 
ATOM      3  C   UNL     1     -45.957 100.939   3.662  0.00  0.00    +0.000 C 
ATOM      4  C   UNL     1     -46.648 100.360   2.453  0.00  0.00    +0.000 C 
ATOM      5  C   UNL     1     -42.408 101.486   2.580  0.00  0.00    +0.000 C 
ATOM      6  C   UNL     1     -44.516 101.214   1.264  0.00  0.00    +0.000 C 
ATOM      7  C   UNL     1     -48.098  99.803   2.473  0.00  0.00    +0.000 C 
ATOM      8  C   UNL     1     -43.627 101.068   4.605  0.00  0.00    +0.000 C 
ATOM      9  C   UNL     1     -45.837 100.486   1.292  0.00  0.00    +0.000 C 
ATOM     10  C   UNL     1     -42.293 100.994   3.912  0.00  0.00    +0.000 C 
ATOM     11  C   UNL     1     -46.683 100.727   4.860  0.00  0.00    +0.000 C 
ATOM     12  C   UNL     1     -43.909 103.492   2.171  0.00  0.00    +0.000 C 
ATOM     13  C   UNL     1     -48.672  99.479   3.987  0.00  0.00    +0.000 C 
ATOM     14  C   UNL     1     -48.153  98.484   1.778  0.00  0.00    +0.000 C 
ATOM     15  C   UNL     1     -47.996 100.011   4.960  0.00  0.00    +0.000 C 
ATOM     16  C   UNL     1     -49.053 100.852   1.834  0.00  0.00    +0.000 C 
ATOM     17  C   UNL     1     -49.188  98.144   4.181  0.00  0.00    +0.000 C 
ATOM     18  C   UNL     1     -48.692  97.093   2.155  0.00  0.00    +0.000 C 
ATOM     19  C   UNL     1     -49.274  96.919   3.445  0.00  0.00    +0.000 C 
ENDROOT
BRANCH  19  20
ATOM     20  O   UNL     1     -50.274  96.016   3.657  0.00  0.00    +0.000 OA
ATOM     21  H   UNL     1     -50.070  95.156   3.251  0.00  0.00    +0.000 HD
ENDBRANCH  19  20
BRANCH   5  22
ATOM     22  C   UNL     1     -41.364 101.489   1.604  0.00  0.00    +0.000 C 
ATOM     23  C   UNL     1     -41.486 100.763   0.288  0.00  0.00    +0.000 C 
BRANCH  22  24
ATOM     24  C   UNL     1     -40.146 102.194   1.799  0.00  0.00    +0.000 C 
ATOM     25  C   UNL     1     -38.817 102.933   2.020  0.00  0.00    +0.000 C 
BRANCH  25  26
ATOM     26  C   UNL     1     -37.580 103.610   2.243  0.00  0.00    +0.000 C 
ATOM     27  C   UNL     1     -37.025 103.712   3.575  0.00  0.00    +0.000 C 
ATOM     28  C   UNL     1     -37.704 103.100   4.787  0.00  0.00    +0.000 C 
ATOM     29  C   UNL     1     -35.746 104.453   3.895  0.00  0.00    +0.000 C 
BRANCH  26  30
ATOM     30  C   UNL     1     -36.879 104.184   1.149  0.00  0.00    +0.000 C 
ATOM     31  C   UNL     1     -36.084 104.820   0.003  0.00  0.00    +0.000 C 
ENDBRANCH  26  30
ENDBRANCH  25  26
ENDBRANCH  22  24
ENDBRANCH   5  22
TORSDOF 5
ENDMDL
MODEL 3
REMARK VINA RESULT:      -6.8      3.372     10.008
REMARK  Name = 222284_BetaSitosterol.pdbqt.pdb
REMARK  5 active torsions:
REMARK  status: ('A' for Active; 'I' for Inactive)
REMARK    1  A    between atoms: C_5  and  C_22
REMARK    2  A    between atoms: C_19  and  O_20
REMARK    3  A    between atoms: C_22  and  C_24
REMARK    4  A    between atoms: C_25  and  C_26
REMARK    5  A    between atoms: C_26  and  C_30
REMARK                            x       y       z     vdW  Elec       q    Type
REMARK                         _______ _______ _______ _____ _____    ______ ____
ROOT
ATOM      1  C   UNL     1     -22.684 102.558   3.734  0.00  0.00    +0.000 C 
ATOM      2  C   UNL     1     -22.706 101.109   4.441  0.00  0.00    +0.000 C 
ATOM      3  C   UNL     1     -21.865 100.797   5.616  0.00  0.00    +0.000 C 
ATOM      4  C   UNL     1     -21.130 101.799   6.469  0.00  0.00    +0.000 C 
ATOM      5  C   UNL     1     -24.152 102.848   3.464  0.00  0.00    +0.000 C 
ATOM      6  C   UNL     1     -22.078 103.454   4.721  0.00  0.00    +0.000 C 
ATOM      7  C   UNL     1     -20.196 101.408   7.647  0.00  0.00    +0.000 C 
ATOM      8  C   UNL     1     -24.054 100.633   4.384  0.00  0.00    +0.000 C 
ATOM      9  C   UNL     1     -21.329 103.123   5.989  0.00  0.00    +0.000 C 
ATOM     10  C   UNL     1     -24.937 101.715   3.824  0.00  0.00    +0.000 C 
ATOM     11  C   UNL     1     -21.788  99.479   6.130  0.00  0.00    +0.000 C 
ATOM     12  C   UNL     1     -21.876 102.441   2.416  0.00  0.00    +0.000 C 
ATOM     13  C   UNL     1     -20.406  99.860   8.185  0.00  0.00    +0.000 C 
ATOM     14  C   UNL     1     -20.497 102.248   8.844  0.00  0.00    +0.000 C 
ATOM     15  C   UNL     1     -21.066  99.081   7.383  0.00  0.00    +0.000 C 
ATOM     16  C   UNL     1     -18.716 101.538   7.186  0.00  0.00    +0.000 C 
ATOM     17  C   UNL     1     -20.649  99.725   9.602  0.00  0.00    +0.000 C 
ATOM     18  C   UNL     1     -20.811 101.941  10.319  0.00  0.00    +0.000 C 
ATOM     19  C   UNL     1     -20.867 100.577  10.731  0.00  0.00    +0.000 C 
ENDROOT
BRANCH  19  20
ATOM     20  O   UNL     1     -20.526 100.204  11.998  0.00  0.00    +0.000 OA
ATOM     21  H   UNL     1     -19.724  99.655  12.004  0.00  0.00    +0.000 HD
ENDBRANCH  19  20
BRANCH   5  22
ATOM     22  C   UNL     1     -24.663 104.092   2.979  0.00  0.00    +0.000 C 
ATOM     23  C   UNL     1     -25.074 105.211   3.902  0.00  0.00    +0.000 C 
BRANCH  22  24
ATOM     24  C   UNL     1     -24.799 104.365   1.591  0.00  0.00    +0.000 C 
ATOM     25  C   UNL     1     -24.974 104.655   0.093  0.00  0.00    +0.000 C 
BRANCH  25  26
ATOM     26  C   UNL     1     -25.148 104.908  -1.302  0.00  0.00    +0.000 C 
ATOM     27  C   UNL     1     -24.362 104.194  -2.283  0.00  0.00    +0.000 C 
ATOM     28  C   UNL     1     -23.340 103.141  -1.897  0.00  0.00    +0.000 C 
ATOM     29  C   UNL     1     -24.457 104.442  -3.773  0.00  0.00    +0.000 C 
BRANCH  26  30
ATOM     30  C   UNL     1     -26.106 105.863  -1.734  0.00  0.00    +0.000 C 
ATOM     31  C   UNL     1     -27.176 106.874  -2.165  0.00  0.00    +0.000 C 
ENDBRANCH  26  30
ENDBRANCH  25  26
ENDBRANCH  22  24
ENDBRANCH   5  22
TORSDOF 5
ENDMDL
MODEL 4
REMARK VINA RESULT:      -6.5      4.546     10.860
REMARK  Name = 222284_BetaSitosterol.pdbqt.pdb
REMARK  5 active torsions:
REMARK  status: ('A' for Active; 'I' for Inactive)
REMARK    1  A    between atoms: C_5  and  C_22
REMARK    2  A    between atoms: C_19  and  O_20
REMARK    3  A    between atoms: C_22  and  C_24
REMARK    4  A    between atoms: C_25  and  C_26
REMARK    5  A    between atoms: C_26  and  C_30
REMARK                            x       y       z     vdW  Elec       q    Type
REMARK                         _______ _______ _______ _____ _____    ______ ____
ROOT
ATOM      1  C   UNL     1     -25.548 106.645  -0.596  0.00  0.00    +0.000 C 
ATOM      2  C   UNL     1     -24.624 105.342  -0.815  0.00  0.00    +0.000 C 
ATOM      3  C   UNL     1     -24.157 104.513   0.315  0.00  0.00    +0.000 C 
ATOM      4  C   UNL     1     -24.680 104.569   1.729  0.00  0.00    +0.000 C 
ATOM      5  C   UNL     1     -26.590 106.537  -1.699  0.00  0.00    +0.000 C 
ATOM      6  C   UNL     1     -26.098 106.499   0.752  0.00  0.00    +0.000 C 
ATOM      7  C   UNL     1     -24.098 103.728   2.897  0.00  0.00    +0.000 C 
ATOM      8  C   UNL     1     -25.060 104.716  -2.025  0.00  0.00    +0.000 C 
ATOM      9  C   UNL     1     -25.695 105.556   1.860  0.00  0.00    +0.000 C 
ATOM     10  C   UNL     1     -26.285 105.425  -2.536  0.00  0.00    +0.000 C 
ATOM     11  C   UNL     1     -23.228 103.462   0.117  0.00  0.00    +0.000 C 
ATOM     12  C   UNL     1     -24.660 107.903  -0.777  0.00  0.00    +0.000 C 
ATOM     13  C   UNL     1     -23.172 102.451   2.408  0.00  0.00    +0.000 C 
ATOM     14  C   UNL     1     -25.202 103.093   3.676  0.00  0.00    +0.000 C 
ATOM     15  C   UNL     1     -22.786 102.489   1.169  0.00  0.00    +0.000 C 
ATOM     16  C   UNL     1     -23.195 104.639   3.778  0.00  0.00    +0.000 C 
ATOM     17  C   UNL     1     -23.550 101.167   2.953  0.00  0.00    +0.000 C 
ATOM     18  C   UNL     1     -25.506 101.655   4.130  0.00  0.00    +0.000 C 
ATOM     19  C   UNL     1     -24.598 100.621   3.759  0.00  0.00    +0.000 C 
ENDROOT
BRANCH  19  20
ATOM     20  O   UNL     1     -24.408  99.526   4.551  0.00  0.00    +0.000 OA
ATOM     21  H   UNL     1     -23.464  99.313   4.643  0.00  0.00    +0.000 HD
ENDBRANCH  19  20
BRANCH   5  22
ATOM     22  C   UNL     1     -27.731 107.387  -1.831  0.00  0.00    +0.000 C 
ATOM     23  C   UNL     1     -27.627 108.810  -2.320  0.00  0.00    +0.000 C 
BRANCH  22  24
ATOM     24  C   UNL     1     -29.047 106.942  -1.528  0.00  0.00    +0.000 C 
ATOM     25  C   UNL     1     -30.478 106.488  -1.207  0.00  0.00    +0.000 C 
BRANCH  25  26
ATOM     26  C   UNL     1     -31.812 106.081  -0.898  0.00  0.00    +0.000 C 
ATOM     27  C   UNL     1     -32.774 105.852  -1.954  0.00  0.00    +0.000 C 
ATOM     28  C   UNL     1     -32.424 106.008  -3.422  0.00  0.00    +0.000 C 
ATOM     29  C   UNL     1     -34.215 105.466  -1.703  0.00  0.00    +0.000 C 
BRANCH  26  30
ATOM     30  C   UNL     1     -32.200 105.891   0.454  0.00  0.00    +0.000 C 
ATOM     31  C   UNL     1     -32.592 105.732   1.928  0.00  0.00    +0.000 C 
ENDBRANCH  26  30
ENDBRANCH  25  26
ENDBRANCH  22  24
ENDBRANCH   5  22
TORSDOF 5
ENDMDL
MODEL 5
REMARK VINA RESULT:      -6.4     16.799     20.215
REMARK  Name = 222284_BetaSitosterol.pdbqt.pdb
REMARK  5 active torsions:
REMARK  status: ('A' for Active; 'I' for Inactive)
REMARK    1  A    between atoms: C_5  and  C_22
REMARK    2  A    between atoms: C_19  and  O_20
REMARK    3  A    between atoms: C_22  and  C_24
REMARK    4  A    between atoms: C_25  and  C_26
REMARK    5  A    between atoms: C_26  and  C_30
REMARK                            x       y       z     vdW  Elec       q    Type
REMARK                         _______ _______ _______ _____ _____    ______ ____
ROOT
ATOM      1  C   UNL     1     -41.193 102.373   1.549  0.00  0.00    +0.000 C 
ATOM      2  C   UNL     1     -39.935 101.963   2.469  0.00  0.00    +0.000 C 
ATOM      3  C   UNL     1     -38.651 102.693   2.413  0.00  0.00    +0.000 C 
ATOM      4  C   UNL     1     -38.422 104.030   1.755  0.00  0.00    +0.000 C 
ATOM      5  C   UNL     1     -42.378 102.280   2.498  0.00  0.00    +0.000 C 
ATOM      6  C   UNL     1     -40.906 103.735   1.095  0.00  0.00    +0.000 C 
ATOM      7  C   UNL     1     -37.032 104.716   1.657  0.00  0.00    +0.000 C 
ATOM      8  C   UNL     1     -40.458 101.539   3.732  0.00  0.00    +0.000 C 
ATOM      9  C   UNL     1     -39.617 104.518   1.159  0.00  0.00    +0.000 C 
ATOM     10  C   UNL     1     -41.944 101.775   3.757  0.00  0.00    +0.000 C 
ATOM     11  C   UNL     1     -37.514 102.228   3.118  0.00  0.00    +0.000 C 
ATOM     12  C   UNL     1     -41.306 101.341   0.397  0.00  0.00    +0.000 C 
ATOM     13  C   UNL     1     -35.907 104.104   2.700  0.00  0.00    +0.000 C 
ATOM     14  C   UNL     1     -37.137 106.153   2.046  0.00  0.00    +0.000 C 
ATOM     15  C   UNL     1     -36.207 102.955   3.226  0.00  0.00    +0.000 C 
ATOM     16  C   UNL     1     -36.474 104.529   0.217  0.00  0.00    +0.000 C 
ATOM     17  C   UNL     1     -35.251 105.076   3.544  0.00  0.00    +0.000 C 
ATOM     18  C   UNL     1     -36.387 107.053   3.043  0.00  0.00    +0.000 C 
ATOM     19  C   UNL     1     -35.351 106.474   3.832  0.00  0.00    +0.000 C 
ENDROOT
BRANCH  19  20
ATOM     20  O   UNL     1     -34.276 107.207   4.243  0.00  0.00    +0.000 OA
ATOM     21  H   UNL     1     -34.438 107.624   5.106  0.00  0.00    +0.000 HD
ENDBRANCH  19  20
BRANCH   5  22
ATOM     22  C   UNL     1     -43.710 102.697   2.185  0.00  0.00    +0.000 C 
ATOM     23  C   UNL     1     -43.999 103.891   1.311  0.00  0.00    +0.000 C 
BRANCH  22  24
ATOM     24  C   UNL     1     -44.853 102.000   2.661  0.00  0.00    +0.000 C 
ATOM     25  C   UNL     1     -46.094 101.270   3.194  0.00  0.00    +0.000 C 
BRANCH  25  26
ATOM     26  C   UNL     1     -47.244 100.595   3.707  0.00  0.00    +0.000 C 
ATOM     27  C   UNL     1     -47.861  99.520   2.961  0.00  0.00    +0.000 C 
ATOM     28  C   UNL     1     -47.321  99.043   1.626  0.00  0.00    +0.000 C 
ATOM     29  C   UNL     1     -49.106  98.792   3.417  0.00  0.00    +0.000 C 
BRANCH  26  30
ATOM     30  C   UNL     1     -47.786 100.975   4.963  0.00  0.00    +0.000 C 
ATOM     31  C   UNL     1     -48.408 101.415   6.294  0.00  0.00    +0.000 C 
ENDBRANCH  26  30
ENDBRANCH  25  26
ENDBRANCH  22  24
ENDBRANCH   5  22
TORSDOF 5
ENDMDL
MODEL 6
REMARK VINA RESULT:      -6.3     14.268     17.952
REMARK  Name = 222284_BetaSitosterol.pdbqt.pdb
REMARK  5 active torsions:
REMARK  status: ('A' for Active; 'I' for Inactive)
REMARK    1  A    between atoms: C_5  and  C_22
REMARK    2  A    between atoms: C_19  and  O_20
REMARK    3  A    between atoms: C_22  and  C_24
REMARK    4  A    between atoms: C_25  and  C_26
REMARK    5  A    between atoms: C_26  and  C_30
REMARK                            x       y       z     vdW  Elec       q    Type
REMARK                         _______ _______ _______ _____ _____    ______ ____
ROOT
ATOM      1  C   UNL     1     -34.470 101.306  14.036  0.00  0.00    +0.000 C 
ATOM      2  C   UNL     1     -33.916  99.889  14.571  0.00  0.00    +0.000 C 
ATOM      3  C   UNL     1     -32.577  99.750  15.179  0.00  0.00    +0.000 C 
ATOM      4  C   UNL     1     -31.694 100.881  15.644  0.00  0.00    +0.000 C 
ATOM      5  C   UNL     1     -35.912 101.333  14.518  0.00  0.00    +0.000 C 
ATOM      6  C   UNL     1     -33.617 102.312  14.672  0.00  0.00    +0.000 C 
ATOM      7  C   UNL     1     -30.261 100.680  16.206  0.00  0.00    +0.000 C 
ATOM      8  C   UNL     1     -35.030  99.187  15.131  0.00  0.00    +0.000 C 
ATOM      9  C   UNL     1     -32.309 102.141  15.405  0.00  0.00    +0.000 C 
ATOM     10  C   UNL     1     -36.234 100.090  15.133  0.00  0.00    +0.000 C 
ATOM     11  C   UNL     1     -32.052  98.476  15.507  0.00  0.00    +0.000 C 
ATOM     12  C   UNL     1     -34.388 101.304  12.488  0.00  0.00    +0.000 C 
ATOM     13  C   UNL     1     -29.934  99.130  16.674  0.00  0.00    +0.000 C 
ATOM     14  C   UNL     1     -30.079 101.478  17.454  0.00  0.00    +0.000 C 
ATOM     15  C   UNL     1     -30.764  98.233  16.235  0.00  0.00    +0.000 C 
ATOM     16  C   UNL     1     -29.227 101.054  15.105  0.00  0.00    +0.000 C 
ATOM     17  C   UNL     1     -29.440  98.982  18.024  0.00  0.00    +0.000 C 
ATOM     18  C   UNL     1     -29.592 101.152  18.876  0.00  0.00    +0.000 C 
ATOM     19  C   UNL     1     -29.223  99.807  19.174  0.00  0.00    +0.000 C 
ENDROOT
BRANCH  19  20
ATOM     20  O   UNL     1     -28.260  99.522  20.097  0.00  0.00    +0.000 OA
ATOM     21  H   UNL     1     -28.649  99.226  20.938  0.00  0.00    +0.000 HD
ENDBRANCH  19  20
BRANCH   5  22
ATOM     22  C   UNL     1     -36.786 102.461  14.418  0.00  0.00    +0.000 C 
ATOM     23  C   UNL     1     -38.184 102.452  14.981  0.00  0.00    +0.000 C 
BRANCH  22  24
ATOM     24  C   UNL     1     -36.386 103.676  13.797  0.00  0.00    +0.000 C 
ATOM     25  C   UNL     1     -35.947 104.998  13.152  0.00  0.00    +0.000 C 
BRANCH  25  26
ATOM     26  C   UNL     1     -35.548 106.238  12.567  0.00  0.00    +0.000 C 
ATOM     27  C   UNL     1     -34.631 107.118  13.259  0.00  0.00    +0.000 C 
ATOM     28  C   UNL     1     -34.038 106.773  14.612  0.00  0.00    +0.000 C 
ATOM     29  C   UNL     1     -34.200 108.466  12.724  0.00  0.00    +0.000 C 
BRANCH  26  30
ATOM     30  C   UNL     1     -36.045 106.612  11.290  0.00  0.00    +0.000 C 
ATOM     31  C   UNL     1     -36.561 107.065   9.919  0.00  0.00    +0.000 C 
ENDBRANCH  26  30
ENDBRANCH  25  26
ENDBRANCH  22  24
ENDBRANCH   5  22
TORSDOF 5
ENDMDL
MODEL 7
REMARK VINA RESULT:      -6.3     13.477     17.160
REMARK  Name = 222284_BetaSitosterol.pdbqt.pdb
REMARK  5 active torsions:
REMARK  status: ('A' for Active; 'I' for Inactive)
REMARK    1  A    between atoms: C_5  and  C_22
REMARK    2  A    between atoms: C_19  and  O_20
REMARK    3  A    between atoms: C_22  and  C_24
REMARK    4  A    between atoms: C_25  and  C_26
REMARK    5  A    between atoms: C_26  and  C_30
REMARK                            x       y       z     vdW  Elec       q    Type
REMARK                         _______ _______ _______ _____ _____    ______ ____
ROOT
ATOM      1  C   UNL     1     -37.924 104.777   3.866  0.00  0.00    +0.000 C 
ATOM      2  C   UNL     1     -38.628 103.326   3.828  0.00  0.00    +0.000 C 
ATOM      3  C   UNL     1     -39.864 103.075   3.060  0.00  0.00    +0.000 C 
ATOM      4  C   UNL     1     -40.458 103.987   2.016  0.00  0.00    +0.000 C 
ATOM      5  C   UNL     1     -36.443 104.461   3.724  0.00  0.00    +0.000 C 
ATOM      6  C   UNL     1     -38.485 105.501   2.724  0.00  0.00    +0.000 C 
ATOM      7  C   UNL     1     -41.804 103.708   1.293  0.00  0.00    +0.000 C 
ATOM      8  C   UNL     1     -37.582 102.351   3.834  0.00  0.00    +0.000 C 
ATOM      9  C   UNL     1     -39.678 105.165   1.863  0.00  0.00    +0.000 C 
ATOM     10  C   UNL     1     -36.253 103.050   3.728  0.00  0.00    +0.000 C 
ATOM     11  C   UNL     1     -40.547 101.837   3.157  0.00  0.00    +0.000 C 
ATOM     12  C   UNL     1     -38.237 105.430   5.237  0.00  0.00    +0.000 C 
ATOM     13  C   UNL     1     -42.320 102.143   1.414  0.00  0.00    +0.000 C 
ATOM     14  C   UNL     1     -41.656 103.924  -0.176  0.00  0.00    +0.000 C 
ATOM     15  C   UNL     1     -41.733 101.437   2.333  0.00  0.00    +0.000 C 
ATOM     16  C   UNL     1     -42.911 104.606   1.917  0.00  0.00    +0.000 C 
ATOM     17  C   UNL     1     -42.623 101.493   0.160  0.00  0.00    +0.000 C 
ATOM     18  C   UNL     1     -41.972 103.081  -1.423  0.00  0.00    +0.000 C 
ATOM     19  C   UNL     1     -42.520 101.777  -1.239  0.00  0.00    +0.000 C 
ENDROOT
BRANCH  19  20
ATOM     20  O   UNL     1     -43.367 101.226  -2.155  0.00  0.00    +0.000 OA
ATOM     21  H   UNL     1     -43.205 101.578  -3.046  0.00  0.00    +0.000 HD
ENDBRANCH  19  20
BRANCH   5  22
ATOM     22  C   UNL     1     -35.413 105.438   3.552  0.00  0.00    +0.000 C 
ATOM     23  C   UNL     1     -35.008 106.388   4.651  0.00  0.00    +0.000 C 
BRANCH  22  24
ATOM     24  C   UNL     1     -34.686 105.565   2.338  0.00  0.00    +0.000 C 
ATOM     25  C   UNL     1     -33.886 105.726   1.037  0.00  0.00    +0.000 C 
BRANCH  25  26
ATOM     26  C   UNL     1     -33.145 105.894  -0.173  0.00  0.00    +0.000 C 
ATOM     27  C   UNL     1     -33.677 105.425  -1.433  0.00  0.00    +0.000 C 
ATOM     28  C   UNL     1     -35.035 104.756  -1.545  0.00  0.00    +0.000 C 
ATOM     29  C   UNL     1     -32.931 105.525  -2.745  0.00  0.00    +0.000 C 
BRANCH  26  30
ATOM     30  C   UNL     1     -31.878 106.535  -0.144  0.00  0.00    +0.000 C 
ATOM     31  C   UNL     1     -30.510 107.221  -0.059  0.00  0.00    +0.000 C 
ENDBRANCH  26  30
ENDBRANCH  25  26
ENDBRANCH  22  24
ENDBRANCH   5  22
TORSDOF 5
ENDMDL
MODEL 8
REMARK VINA RESULT:      -6.2     14.527     17.956
REMARK  Name = 222284_BetaSitosterol.pdbqt.pdb
REMARK  5 active torsions:
REMARK  status: ('A' for Active; 'I' for Inactive)
REMARK    1  A    between atoms: C_5  and  C_22
REMARK    2  A    between atoms: C_19  and  O_20
REMARK    3  A    between atoms: C_22  and  C_24
REMARK    4  A    between atoms: C_25  and  C_26
REMARK    5  A    between atoms: C_26  and  C_30
REMARK                            x       y       z     vdW  Elec       q    Type
REMARK                         _______ _______ _______ _____ _____    ______ ____
ROOT
ATOM      1  C   UNL     1     -38.166 103.368   2.770  0.00  0.00    +0.000 C 
ATOM      2  C   UNL     1     -39.226 102.781   1.706  0.00  0.00    +0.000 C 
ATOM      3  C   UNL     1     -40.459 102.085   2.130  0.00  0.00    +0.000 C 
ATOM      4  C   UNL     1     -41.037 102.079   3.523  0.00  0.00    +0.000 C 
ATOM      5  C   UNL     1     -37.798 104.728   2.196  0.00  0.00    +0.000 C 
ATOM      6  C   UNL     1     -38.898 103.441   4.036  0.00  0.00    +0.000 C 
ATOM      7  C   UNL     1     -42.295 101.266   3.930  0.00  0.00    +0.000 C 
ATOM      8  C   UNL     1     -39.266 103.692   0.604  0.00  0.00    +0.000 C 
ATOM      9  C   UNL     1     -40.224 102.829   4.417  0.00  0.00    +0.000 C 
ATOM     10  C   UNL     1     -38.425 104.898   0.928  0.00  0.00    +0.000 C 
ATOM     11  C   UNL     1     -41.301 101.448   1.186  0.00  0.00    +0.000 C 
ATOM     12  C   UNL     1     -36.942 102.418   2.808  0.00  0.00    +0.000 C 
ATOM     13  C   UNL     1     -43.214 100.764   2.652  0.00  0.00    +0.000 C 
ATOM     14  C   UNL     1     -43.226 102.119   4.727  0.00  0.00    +0.000 C 
ATOM     15  C   UNL     1     -42.629 100.824   1.494  0.00  0.00    +0.000 C 
ATOM     16  C   UNL     1     -41.848  99.991   4.703  0.00  0.00    +0.000 C 
ATOM     17  C   UNL     1     -44.612 101.121   2.716  0.00  0.00    +0.000 C 
ATOM     18  C   UNL     1     -44.722 102.461   4.625  0.00  0.00    +0.000 C 
ATOM     19  C   UNL     1     -45.474 101.900   3.552  0.00  0.00    +0.000 C 
ENDROOT
BRANCH  19  20
ATOM     20  O   UNL     1     -46.802 101.616   3.687  0.00  0.00    +0.000 OA
ATOM     21  H   UNL     1     -47.064 101.574   4.622  0.00  0.00    +0.000 HD
ENDBRANCH  19  20
BRANCH   5  22
ATOM     22  C   UNL     1     -36.995 105.705   2.863  0.00  0.00    +0.000 C 
ATOM     23  C   UNL     1     -37.527 106.560   3.985  0.00  0.00    +0.000 C 
BRANCH  22  24
ATOM     24  C   UNL     1     -35.632 105.923   2.525  0.00  0.00    +0.000 C 
ATOM     25  C   UNL     1     -34.167 106.178   2.141  0.00  0.00    +0.000 C 
BRANCH  25  26
ATOM     26  C   UNL     1     -32.809 106.416   1.766  0.00  0.00    +0.000 C 
ATOM     27  C   UNL     1     -31.935 107.192   2.618  0.00  0.00    +0.000 C 
ATOM     28  C   UNL     1     -32.395 107.770   3.944  0.00  0.00    +0.000 C 
ATOM     29  C   UNL     1     -30.502 107.524   2.266  0.00  0.00    +0.000 C 
BRANCH  26  30
ATOM     30  C   UNL     1     -32.306 105.882   0.550  0.00  0.00    +0.000 C 
ATOM     31  C   UNL     1     -31.760 105.357  -0.783  0.00  0.00    +0.000 C 
ENDBRANCH  26  30
ENDBRANCH  25  26
ENDBRANCH  22  24
ENDBRANCH   5  22
TORSDOF 5
ENDMDL
MODEL 9
REMARK VINA RESULT:      -6.2     18.973     21.805
REMARK  Name = 222284_BetaSitosterol.pdbqt.pdb
REMARK  5 active torsions:
REMARK  status: ('A' for Active; 'I' for Inactive)
REMARK    1  A    between atoms: C_5  and  C_22
REMARK    2  A    between atoms: C_19  and  O_20
REMARK    3  A    between atoms: C_22  and  C_24
REMARK    4  A    between atoms: C_25  and  C_26
REMARK    5  A    between atoms: C_26  and  C_30
REMARK                            x       y       z     vdW  Elec       q    Type
REMARK                         _______ _______ _______ _____ _____    ______ ____
ROOT
ATOM      1  C   UNL     1     -45.000 102.644   3.253  0.00  0.00    +0.000 C 
ATOM      2  C   UNL     1     -43.936 102.503   2.050  0.00  0.00    +0.000 C 
ATOM      3  C   UNL     1     -42.545 102.984   2.174  0.00  0.00    +0.000 C 
ATOM      4  C   UNL     1     -41.856 103.380   3.456  0.00  0.00    +0.000 C 
ATOM      5  C   UNL     1     -45.717 101.303   3.258  0.00  0.00    +0.000 C 
ATOM      6  C   UNL     1     -44.192 102.884   4.450  0.00  0.00    +0.000 C 
ATOM      7  C   UNL     1     -40.414 103.953   3.518  0.00  0.00    +0.000 C 
ATOM      8  C   UNL     1     -44.205 101.260   1.395  0.00  0.00    +0.000 C 
ATOM      9  C   UNL     1     -42.732 103.252   4.568  0.00  0.00    +0.000 C 
ATOM     10  C   UNL     1     -45.264 100.515   2.161  0.00  0.00    +0.000 C 
ATOM     11  C   UNL     1     -41.670 102.986   1.060  0.00  0.00    +0.000 C 
ATOM     12  C   UNL     1     -45.969 103.805   2.909  0.00  0.00    +0.000 C 
ATOM     13  C   UNL     1     -39.527 103.689   2.150  0.00  0.00    +0.000 C 
ATOM     14  C   UNL     1     -39.633 103.271   4.590  0.00  0.00    +0.000 C 
ATOM     15  C   UNL     1     -40.213 103.336   1.105  0.00  0.00    +0.000 C 
ATOM     16  C   UNL     1     -40.489 105.494   3.726  0.00  0.00    +0.000 C 
ATOM     17  C   UNL     1     -38.245 103.054   2.356  0.00  0.00    +0.000 C 
ATOM     18  C   UNL     1     -38.269 102.561   4.639  0.00  0.00    +0.000 C 
ATOM     19  C   UNL     1     -37.510 102.468   3.435  0.00  0.00    +0.000 C 
ENDROOT
BRANCH  19  20
ATOM     20  O   UNL     1     -36.146 102.448   3.455  0.00  0.00    +0.000 OA
ATOM     21  H   UNL     1     -35.784 102.020   2.662  0.00  0.00    +0.000 HD
ENDBRANCH  19  20
BRANCH   5  22
ATOM     22  C   UNL     1     -46.657 100.883   4.250  0.00  0.00    +0.000 C 
ATOM     23  C   UNL     1     -47.731  99.864   3.965  0.00  0.00    +0.000 C 
BRANCH  22  24
ATOM     24  C   UNL     1     -46.629 101.383   5.579  0.00  0.00    +0.000 C 
ATOM     25  C   UNL     1     -46.600 101.897   7.026  0.00  0.00    +0.000 C 
BRANCH  25  26
ATOM     26  C   UNL     1     -46.587 102.363   8.377  0.00  0.00    +0.000 C 
ATOM     27  C   UNL     1     -47.593 101.920   9.318  0.00  0.00    +0.000 C 
ATOM     28  C   UNL     1     -48.687 100.941   8.937  0.00  0.00    +0.000 C 
ATOM     29  C   UNL     1     -47.671 102.405  10.748  0.00  0.00    +0.000 C 
BRANCH  26  30
ATOM     30  C   UNL     1     -45.575 103.262   8.806  0.00  0.00    +0.000 C 
ATOM     31  C   UNL     1     -44.471 104.242   9.218  0.00  0.00    +0.000 C 
ENDBRANCH  26  30
ENDBRANCH  25  26
ENDBRANCH  22  24
ENDBRANCH   5  22
TORSDOF 5
ENDMDL
