MODEL 1
REMARK VINA RESULT:      -6.1      0.000      0.000
REMARK  Name = 25023738_BI-D-1870.pdbqt.pdb
REMARK  4 active torsions:
REMARK  status: ('A' for Active; 'I' for Inactive)
REMARK    1  A    between atoms: N_2  and  C_26
REMARK    2  A    between atoms: N_14  and  C_16
REMARK    3  A    between atoms: C_20  and  O_24
REMARK    4  A    between atoms: C_27  and  C_28
REMARK                            x       y       z     vdW  Elec       q    Type
REMARK                         _______ _______ _______ _____ _____    ______ ____
ROOT
ATOM      1  O   UNL     1     -45.645 101.972  -0.595  0.00  0.00    +0.000 OA
ATOM      2  N   UNL     1     -42.361 102.993   0.530  0.00  0.00    +0.000 N 
ATOM      3  N   UNL     1     -44.563 101.467   1.405  0.00  0.00    +0.000 N 
ATOM      4  N   UNL     1     -41.212 102.504   2.562  0.00  0.00    +0.000 NA
ATOM      5  N   UNL     1     -42.170 101.172   4.237  0.00  0.00    +0.000 NA
ATOM      6  C   UNL     1     -43.458 102.886  -0.298  0.00  0.00    +0.000 C 
ATOM      7  C   UNL     1     -42.315 102.364   1.791  0.00  0.00    +0.000 A 
ATOM      8  C   UNL     1     -44.656 102.077   0.136  0.00  0.00    +0.000 C 
ATOM      9  C   UNL     1     -43.398 101.622   2.206  0.00  0.00    +0.000 A 
ATOM     10  C   UNL     1     -43.461 103.585  -1.653  0.00  0.00    +0.000 C 
ATOM     11  C   UNL     1     -45.617 100.648   1.993  0.00  0.00    +0.000 C 
ATOM     12  C   UNL     1     -43.255 101.049   3.451  0.00  0.00    +0.000 A 
ATOM     13  C   UNL     1     -41.166 101.907   3.763  0.00  0.00    +0.000 A 
ATOM     14  N   UNL     1     -40.052 102.026   4.583  0.00  0.00    +0.000 N 
ATOM     15  H   UNL     1     -40.183 101.516   5.448  0.00  0.00    +0.000 HD
ENDROOT
BRANCH  14  16
ATOM     16  C   UNL     1     -38.840 102.704   4.409  0.00  0.00    +0.000 A 
ATOM     17  C   UNL     1     -37.929 102.239   3.452  0.00  0.00    +0.000 A 
ATOM     18  C   UNL     1     -36.712 102.888   3.250  0.00  0.00    +0.000 A 
ATOM     19  F   UNL     1     -35.867 102.412   2.324  0.00  0.00    +0.000 F 
ATOM     20  C   UNL     1     -36.380 104.010   3.998  0.00  0.00    +0.000 A 
ATOM     21  C   UNL     1     -37.277 104.475   4.949  0.00  0.00    +0.000 A 
ATOM     22  F   UNL     1     -36.968 105.559   5.677  0.00  0.00    +0.000 F 
ATOM     23  C   UNL     1     -38.494 103.833   5.155  0.00  0.00    +0.000 A 
BRANCH  20  24
ATOM     24  O   UNL     1     -35.185 104.641   3.796  0.00  0.00    +0.000 OA
ATOM     25  H   UNL     1     -34.596 104.418   4.542  0.00  0.00    +0.000 HD
ENDBRANCH  20  24
ENDBRANCH  14  16
BRANCH   2  26
ATOM     26  C   UNL     1     -41.201 103.776   0.114  0.00  0.00    +0.000 C 
ATOM     27  C   UNL     1     -39.983 104.603  -0.318  0.00  0.00    +0.000 C 
BRANCH  27  28
ATOM     28  C   UNL     1     -38.860 105.360  -0.720  0.00  0.00    +0.000 C 
ATOM     29  C   UNL     1     -37.510 105.051  -0.149  0.00  0.00    +0.000 C 
ATOM     30  C   UNL     1     -39.032 106.501  -1.675  0.00  0.00    +0.000 C 
ENDBRANCH  27  28
ENDBRANCH   2  26
TORSDOF 4
ENDMDL
MODEL 2
REMARK VINA RESULT:      -5.3      2.324      3.320
REMARK  Name = 25023738_BI-D-1870.pdbqt.pdb
REMARK  4 active torsions:
REMARK  status: ('A' for Active; 'I' for Inactive)
REMARK    1  A    between atoms: N_2  and  C_26
REMARK    2  A    between atoms: N_14  and  C_16
REMARK    3  A    between atoms: C_20  and  O_24
REMARK    4  A    between atoms: C_27  and  C_28
REMARK                            x       y       z     vdW  Elec       q    Type
REMARK                         _______ _______ _______ _____ _____    ______ ____
ROOT
ATOM      1  O   UNL     1     -42.971 101.627   1.391  0.00  0.00    +0.000 OA
ATOM      2  N   UNL     1     -39.861 103.456   1.662  0.00  0.00    +0.000 N 
ATOM      3  N   UNL     1     -41.796 102.237   3.308  0.00  0.00    +0.000 N 
ATOM      4  N   UNL     1     -38.622 104.104   3.595  0.00  0.00    +0.000 NA
ATOM      5  N   UNL     1     -39.345 103.580   5.762  0.00  0.00    +0.000 NA
ATOM      6  C   UNL     1     -40.941 102.843   1.064  0.00  0.00    +0.000 C 
ATOM      7  C   UNL     1     -39.703 103.488   3.062  0.00  0.00    +0.000 A 
ATOM      8  C   UNL     1     -41.998 102.180   1.913  0.00  0.00    +0.000 C 
ATOM      9  C   UNL     1     -40.656 102.888   3.855  0.00  0.00    +0.000 A 
ATOM     10  C   UNL     1     -41.069 102.836  -0.455  0.00  0.00    +0.000 C 
ATOM     11  C   UNL     1     -42.707 101.653   4.287  0.00  0.00    +0.000 C 
ATOM     12  C   UNL     1     -40.410 102.973   5.208  0.00  0.00    +0.000 A 
ATOM     13  C   UNL     1     -38.469 104.135   4.927  0.00  0.00    +0.000 A 
ATOM     14  N   UNL     1     -37.374 104.757   5.511  0.00  0.00    +0.000 N 
ATOM     15  H   UNL     1     -37.414 104.689   6.521  0.00  0.00    +0.000 HD
ENDROOT
BRANCH  14  16
ATOM     16  C   UNL     1     -36.280 105.427   4.952  0.00  0.00    +0.000 A 
ATOM     17  C   UNL     1     -35.790 105.013   3.706  0.00  0.00    +0.000 A 
ATOM     18  C   UNL     1     -34.702 105.656   3.118  0.00  0.00    +0.000 A 
ATOM     19  F   UNL     1     -34.263 105.230   1.924  0.00  0.00    +0.000 F 
ATOM     20  C   UNL     1     -34.082 106.720   3.758  0.00  0.00    +0.000 A 
ATOM     21  C   UNL     1     -34.561 107.135   4.993  0.00  0.00    +0.000 A 
ATOM     22  F   UNL     1     -33.972 108.164   5.621  0.00  0.00    +0.000 F 
ATOM     23  C   UNL     1     -35.648 106.499   5.586  0.00  0.00    +0.000 A 
BRANCH  20  24
ATOM     24  O   UNL     1     -33.016 107.346   3.175  0.00  0.00    +0.000 OA
ATOM     25  H   UNL     1     -32.208 107.065   3.646  0.00  0.00    +0.000 HD
ENDBRANCH  20  24
ENDBRANCH  14  16
BRANCH   2  26
ATOM     26  C   UNL     1     -38.837 104.101   0.844  0.00  0.00    +0.000 C 
ATOM     27  C   UNL     1     -37.762 104.783  -0.012  0.00  0.00    +0.000 C 
BRANCH  27  28
ATOM     28  C   UNL     1     -36.771 105.407  -0.802  0.00  0.00    +0.000 C 
ATOM     29  C   UNL     1     -35.491 104.687  -1.097  0.00  0.00    +0.000 C 
ATOM     30  C   UNL     1     -36.982 106.804  -1.298  0.00  0.00    +0.000 C 
ENDBRANCH  27  28
ENDBRANCH   2  26
TORSDOF 4
ENDMDL
MODEL 3
REMARK VINA RESULT:      -5.1     17.458     21.447
REMARK  Name = 25023738_BI-D-1870.pdbqt.pdb
REMARK  4 active torsions:
REMARK  status: ('A' for Active; 'I' for Inactive)
REMARK    1  A    between atoms: N_2  and  C_26
REMARK    2  A    between atoms: N_14  and  C_16
REMARK    3  A    between atoms: C_20  and  O_24
REMARK    4  A    between atoms: C_27  and  C_28
REMARK                            x       y       z     vdW  Elec       q    Type
REMARK                         _______ _______ _______ _____ _____    ______ ____
ROOT
ATOM      1  O   UNL     1     -27.061 102.708  24.242  0.00  0.00    +0.000 OA
ATOM      2  N   UNL     1     -28.355 102.239  20.897  0.00  0.00    +0.000 N 
ATOM      3  N   UNL     1     -27.783 100.745  23.217  0.00  0.00    +0.000 N 
ATOM      4  N   UNL     1     -29.106 100.255  19.804  0.00  0.00    +0.000 NA
ATOM      5  N   UNL     1     -29.091  98.170  20.874  0.00  0.00    +0.000 NA
ATOM      6  C   UNL     1     -27.841 102.898  21.992  0.00  0.00    +0.000 C 
ATOM      7  C   UNL     1     -28.599 100.850  20.909  0.00  0.00    +0.000 A 
ATOM      8  C   UNL     1     -27.522 102.131  23.253  0.00  0.00    +0.000 C 
ATOM      9  C   UNL     1     -28.315 100.133  22.049  0.00  0.00    +0.000 A 
ATOM     10  C   UNL     1     -27.593 104.401  21.931  0.00  0.00    +0.000 C 
ATOM     11  C   UNL     1     -27.540  99.842  24.337  0.00  0.00    +0.000 C 
ATOM     12  C   UNL     1     -28.588  98.785  21.960  0.00  0.00    +0.000 A 
ATOM     13  C   UNL     1     -29.339  98.934  19.812  0.00  0.00    +0.000 A 
ATOM     14  N   UNL     1     -29.858  98.288  18.699  0.00  0.00    +0.000 N 
ATOM     15  H   UNL     1     -29.972  97.297  18.875  0.00  0.00    +0.000 HD
ENDROOT
BRANCH  14  16
ATOM     16  C   UNL     1     -30.231  98.767  17.438  0.00  0.00    +0.000 A 
ATOM     17  C   UNL     1     -29.328  99.554  16.712  0.00  0.00    +0.000 A 
ATOM     18  C   UNL     1     -29.664 100.049  15.452  0.00  0.00    +0.000 A 
ATOM     19  F   UNL     1     -28.772 100.799  14.789  0.00  0.00    +0.000 F 
ATOM     20  C   UNL     1     -30.905  99.771  14.895  0.00  0.00    +0.000 A 
ATOM     21  C   UNL     1     -31.806  98.993  15.609  0.00  0.00    +0.000 A 
ATOM     22  F   UNL     1     -33.007  98.716  15.080  0.00  0.00    +0.000 F 
ATOM     23  C   UNL     1     -31.476  98.494  16.866  0.00  0.00    +0.000 A 
BRANCH  20  24
ATOM     24  O   UNL     1     -31.229 100.260  13.661  0.00  0.00    +0.000 OA
ATOM     25  H   UNL     1     -31.450 101.205  13.760  0.00  0.00    +0.000 HD
ENDBRANCH  20  24
ENDBRANCH  14  16
BRANCH   2  26
ATOM     26  C   UNL     1     -28.664 102.976  19.674  0.00  0.00    +0.000 C 
ATOM     27  C   UNL     1     -28.983 103.753  18.391  0.00  0.00    +0.000 C 
BRANCH  27  28
ATOM     28  C   UNL     1     -29.281 104.465  17.208  0.00  0.00    +0.000 C 
ATOM     29  C   UNL     1     -29.035 103.831  15.874  0.00  0.00    +0.000 C 
ATOM     30  C   UNL     1     -29.793 105.870  17.292  0.00  0.00    +0.000 C 
ENDBRANCH  27  28
ENDBRANCH   2  26
TORSDOF 4
ENDMDL
MODEL 4
REMARK VINA RESULT:      -4.9     21.188     24.047
REMARK  Name = 25023738_BI-D-1870.pdbqt.pdb
REMARK  4 active torsions:
REMARK  status: ('A' for Active; 'I' for Inactive)
REMARK    1  A    between atoms: N_2  and  C_26
REMARK    2  A    between atoms: N_14  and  C_16
REMARK    3  A    between atoms: C_20  and  O_24
REMARK    4  A    between atoms: C_27  and  C_28
REMARK                            x       y       z     vdW  Elec       q    Type
REMARK                         _______ _______ _______ _____ _____    ______ ____
ROOT
ATOM      1  O   UNL     1     -51.993  77.005   8.680  0.00  0.00    +0.000 OA
ATOM      2  N   UNL     1     -50.109  79.720   7.209  0.00  0.00    +0.000 N 
ATOM      3  N   UNL     1     -49.810  77.680   9.130  0.00  0.00    +0.000 N 
ATOM      4  N   UNL     1     -47.878  80.449   7.634  0.00  0.00    +0.000 NA
ATOM      5  N   UNL     1     -46.507  79.388   9.212  0.00  0.00    +0.000 NA
ATOM      6  C   UNL     1     -51.172  78.875   7.441  0.00  0.00    +0.000 C 
ATOM      7  C   UNL     1     -48.888  79.591   7.903  0.00  0.00    +0.000 A 
ATOM      8  C   UNL     1     -51.050  77.770   8.462  0.00  0.00    +0.000 C 
ATOM      9  C   UNL     1     -48.756  78.589   8.839  0.00  0.00    +0.000 A 
ATOM     10  C   UNL     1     -52.473  79.055   6.666  0.00  0.00    +0.000 C 
ATOM     11  C   UNL     1     -49.504  76.679  10.147  0.00  0.00    +0.000 C 
ATOM     12  C   UNL     1     -47.527  78.546   9.460  0.00  0.00    +0.000 A 
ATOM     13  C   UNL     1     -46.715  80.329   8.293  0.00  0.00    +0.000 A 
ATOM     14  N   UNL     1     -45.655  81.190   8.046  0.00  0.00    +0.000 N 
ATOM     15  H   UNL     1     -44.858  80.959   8.626  0.00  0.00    +0.000 HD
ENDROOT
BRANCH  14  16
ATOM     16  C   UNL     1     -45.523  82.269   7.164  0.00  0.00    +0.000 A 
ATOM     17  C   UNL     1     -45.026  82.040   5.874  0.00  0.00    +0.000 A 
ATOM     18  C   UNL     1     -44.880  83.090   4.969  0.00  0.00    +0.000 A 
ATOM     19  F   UNL     1     -44.401  82.830   3.744  0.00  0.00    +0.000 F 
ATOM     20  C   UNL     1     -45.225  84.385   5.331  0.00  0.00    +0.000 A 
ATOM     21  C   UNL     1     -45.717  84.620   6.607  0.00  0.00    +0.000 A 
ATOM     22  F   UNL     1     -46.055  85.867   6.969  0.00  0.00    +0.000 F 
ATOM     23  C   UNL     1     -45.866  83.577   7.516  0.00  0.00    +0.000 A 
BRANCH  20  24
ATOM     24  O   UNL     1     -45.079  85.410   4.439  0.00  0.00    +0.000 OA
ATOM     25  H   UNL     1     -45.354  85.085   3.559  0.00  0.00    +0.000 HD
ENDBRANCH  20  24
ENDBRANCH  14  16
BRANCH   2  26
ATOM     26  C   UNL     1     -50.224  80.792   6.223  0.00  0.00    +0.000 C 
ATOM     27  C   UNL     1     -50.350  81.917   5.188  0.00  0.00    +0.000 C 
BRANCH  27  28
ATOM     28  C   UNL     1     -50.461  82.954   4.235  0.00  0.00    +0.000 C 
ATOM     29  C   UNL     1     -51.700  83.794   4.188  0.00  0.00    +0.000 C 
ATOM     30  C   UNL     1     -49.362  83.175   3.243  0.00  0.00    +0.000 C 
ENDBRANCH  27  28
ENDBRANCH   2  26
TORSDOF 4
ENDMDL
MODEL 5
REMARK VINA RESULT:      -4.9     28.796     31.457
REMARK  Name = 25023738_BI-D-1870.pdbqt.pdb
REMARK  4 active torsions:
REMARK  status: ('A' for Active; 'I' for Inactive)
REMARK    1  A    between atoms: N_2  and  C_26
REMARK    2  A    between atoms: N_14  and  C_16
REMARK    3  A    between atoms: C_20  and  O_24
REMARK    4  A    between atoms: C_27  and  C_28
REMARK                            x       y       z     vdW  Elec       q    Type
REMARK                         _______ _______ _______ _____ _____    ______ ____
ROOT
ATOM      1  O   UNL     1     -23.203  85.106  25.244  0.00  0.00    +0.000 OA
ATOM      2  N   UNL     1     -21.601  88.119  24.042  0.00  0.00    +0.000 N 
ATOM      3  N   UNL     1     -23.459  86.178  23.192  0.00  0.00    +0.000 N 
ATOM      4  N   UNL     1     -21.828  89.253  21.955  0.00  0.00    +0.000 NA
ATOM      5  N   UNL     1     -23.258  88.471  20.270  0.00  0.00    +0.000 NA
ATOM      6  C   UNL     1     -21.918  87.091  24.903  0.00  0.00    +0.000 C 
ATOM      7  C   UNL     1     -22.177  88.221  22.759  0.00  0.00    +0.000 A 
ATOM      8  C   UNL     1     -22.909  86.033  24.483  0.00  0.00    +0.000 C 
ATOM      9  C   UNL     1     -23.083  87.266  22.357  0.00  0.00    +0.000 A 
ATOM     10  C   UNL     1     -21.268  87.022  26.281  0.00  0.00    +0.000 C 
ATOM     11  C   UNL     1     -24.431  85.257  22.613  0.00  0.00    +0.000 C 
ATOM     12  C   UNL     1     -23.588  87.455  21.089  0.00  0.00    +0.000 A 
ATOM     13  C   UNL     1     -22.375  89.353  20.734  0.00  0.00    +0.000 A 
ATOM     14  N   UNL     1     -22.043  90.396  19.880  0.00  0.00    +0.000 N 
ATOM     15  H   UNL     1     -22.544  90.320  19.004  0.00  0.00    +0.000 HD
ENDROOT
BRANCH  14  16
ATOM     16  C   UNL     1     -21.172  91.480  20.035  0.00  0.00    +0.000 A 
ATOM     17  C   UNL     1     -21.647  92.660  20.623  0.00  0.00    +0.000 A 
ATOM     18  C   UNL     1     -20.808  93.760  20.794  0.00  0.00    +0.000 A 
ATOM     19  F   UNL     1     -21.301  94.871  21.361  0.00  0.00    +0.000 F 
ATOM     20  C   UNL     1     -19.483  93.706  20.383  0.00  0.00    +0.000 A 
ATOM     21  C   UNL     1     -19.006  92.542  19.799  0.00  0.00    +0.000 A 
ATOM     22  F   UNL     1     -17.727  92.477  19.398  0.00  0.00    +0.000 F 
ATOM     23  C   UNL     1     -19.836  91.438  19.626  0.00  0.00    +0.000 A 
BRANCH  20  24
ATOM     24  O   UNL     1     -18.667  94.789  20.553  0.00  0.00    +0.000 OA
ATOM     25  H   UNL     1     -19.232  95.575  20.681  0.00  0.00    +0.000 HD
ENDBRANCH  20  24
ENDBRANCH  14  16
BRANCH   2  26
ATOM     26  C   UNL     1     -20.641  89.144  24.444  0.00  0.00    +0.000 C 
ATOM     27  C   UNL     1     -19.632  90.217  24.869  0.00  0.00    +0.000 C 
BRANCH  27  28
ATOM     28  C   UNL     1     -18.703  91.209  25.257  0.00  0.00    +0.000 C 
ATOM     29  C   UNL     1     -18.483  91.497  26.710  0.00  0.00    +0.000 C 
ATOM     30  C   UNL     1     -17.981  92.003  24.213  0.00  0.00    +0.000 C 
ENDBRANCH  27  28
ENDBRANCH   2  26
TORSDOF 4
ENDMDL
MODEL 6
REMARK VINA RESULT:      -4.8     18.140     20.120
REMARK  Name = 25023738_BI-D-1870.pdbqt.pdb
REMARK  4 active torsions:
REMARK  status: ('A' for Active; 'I' for Inactive)
REMARK    1  A    between atoms: N_2  and  C_26
REMARK    2  A    between atoms: N_14  and  C_16
REMARK    3  A    between atoms: C_20  and  O_24
REMARK    4  A    between atoms: C_27  and  C_28
REMARK                            x       y       z     vdW  Elec       q    Type
REMARK                         _______ _______ _______ _____ _____    ______ ____
ROOT
ATOM      1  O   UNL     1     -27.817 103.330 -14.775  0.00  0.00    +0.000 OA
ATOM      2  N   UNL     1     -25.543 102.327 -12.147  0.00  0.00    +0.000 N 
ATOM      3  N   UNL     1     -27.913 103.809 -12.498  0.00  0.00    +0.000 N 
ATOM      4  N   UNL     1     -25.597 102.791  -9.807  0.00  0.00    +0.000 NA
ATOM      5  N   UNL     1     -27.299 104.080  -8.839  0.00  0.00    +0.000 NA
ATOM      6  C   UNL     1     -26.067 102.437 -13.417  0.00  0.00    +0.000 C 
ATOM      7  C   UNL     1     -26.157 102.933 -11.031  0.00  0.00    +0.000 A 
ATOM      8  C   UNL     1     -27.335 103.223 -13.644  0.00  0.00    +0.000 C 
ATOM      9  C   UNL     1     -27.315 103.654 -11.218  0.00  0.00    +0.000 A 
ATOM     10  C   UNL     1     -25.366 101.765 -14.592  0.00  0.00    +0.000 C 
ATOM     11  C   UNL     1     -29.137 104.604 -12.520  0.00  0.00    +0.000 C 
ATOM     12  C   UNL     1     -27.836 104.205 -10.067  0.00  0.00    +0.000 A 
ATOM     13  C   UNL     1     -26.179 103.366  -8.744  0.00  0.00    +0.000 A 
ATOM     14  N   UNL     1     -25.636 103.244  -7.473  0.00  0.00    +0.000 N 
ATOM     15  H   UNL     1     -26.198 103.736  -6.790  0.00  0.00    +0.000 HD
ENDROOT
BRANCH  14  16
ATOM     16  C   UNL     1     -24.494 102.580  -7.012  0.00  0.00    +0.000 A 
ATOM     17  C   UNL     1     -23.681 103.202  -6.055  0.00  0.00    +0.000 A 
ATOM     18  C   UNL     1     -22.536 102.571  -5.572  0.00  0.00    +0.000 A 
ATOM     19  F   UNL     1     -21.784 103.200  -4.656  0.00  0.00    +0.000 F 
ATOM     20  C   UNL     1     -22.178 101.311  -6.033  0.00  0.00    +0.000 A 
ATOM     21  C   UNL     1     -22.977 100.689  -6.982  0.00  0.00    +0.000 A 
ATOM     22  F   UNL     1     -22.643  99.472  -7.434  0.00  0.00    +0.000 F 
ATOM     23  C   UNL     1     -24.123 101.312  -7.468  0.00  0.00    +0.000 A 
BRANCH  20  24
ATOM     24  O   UNL     1     -21.054 100.699  -5.556  0.00  0.00    +0.000 OA
ATOM     25  H   UNL     1     -21.327  99.883  -5.095  0.00  0.00    +0.000 HD
ENDBRANCH  20  24
ENDBRANCH  14  16
BRANCH   2  26
ATOM     26  C   UNL     1     -24.314 101.569 -11.923  0.00  0.00    +0.000 C 
ATOM     27  C   UNL     1     -23.027 100.770 -11.684  0.00  0.00    +0.000 C 
BRANCH  27  28
ATOM     28  C   UNL     1     -21.839 100.037 -11.468  0.00  0.00    +0.000 C 
ATOM     29  C   UNL     1     -21.089 100.195 -10.181  0.00  0.00    +0.000 C 
ATOM     30  C   UNL     1     -21.306  99.144 -12.546  0.00  0.00    +0.000 C 
ENDBRANCH  27  28
ENDBRANCH   2  26
TORSDOF 4
ENDMDL
MODEL 7
REMARK VINA RESULT:      -4.8     17.905     21.876
REMARK  Name = 25023738_BI-D-1870.pdbqt.pdb
REMARK  4 active torsions:
REMARK  status: ('A' for Active; 'I' for Inactive)
REMARK    1  A    between atoms: N_2  and  C_26
REMARK    2  A    between atoms: N_14  and  C_16
REMARK    3  A    between atoms: C_20  and  O_24
REMARK    4  A    between atoms: C_27  and  C_28
REMARK                            x       y       z     vdW  Elec       q    Type
REMARK                         _______ _______ _______ _____ _____    ______ ____
ROOT
ATOM      1  O   UNL     1     -27.187 104.096  24.845  0.00  0.00    +0.000 OA
ATOM      2  N   UNL     1     -28.120 103.737  21.368  0.00  0.00    +0.000 N 
ATOM      3  N   UNL     1     -27.421 102.149  23.588  0.00  0.00    +0.000 N 
ATOM      4  N   UNL     1     -28.373 101.772  20.040  0.00  0.00    +0.000 NA
ATOM      5  N   UNL     1     -28.009  99.629  20.917  0.00  0.00    +0.000 NA
ATOM      6  C   UNL     1     -27.829 104.365  22.560  0.00  0.00    +0.000 C 
ATOM      7  C   UNL     1     -28.077 102.334  21.234  0.00  0.00    +0.000 A 
ATOM      8  C   UNL     1     -27.450 103.548  23.771  0.00  0.00    +0.000 C 
ATOM      9  C   UNL     1     -27.733 101.570  22.328  0.00  0.00    +0.000 A 
ATOM     10  C   UNL     1     -27.889 105.886  22.656  0.00  0.00    +0.000 C 
ATOM     11  C   UNL     1     -27.078 101.198  24.641  0.00  0.00    +0.000 C 
ATOM     12  C   UNL     1     -27.720 100.212  22.094  0.00  0.00    +0.000 A 
ATOM     13  C   UNL     1     -28.332 100.437  19.910  0.00  0.00    +0.000 A 
ATOM     14  N   UNL     1     -28.629  99.823  18.701  0.00  0.00    +0.000 N 
ATOM     15  H   UNL     1     -28.551  98.816  18.777  0.00  0.00    +0.000 HD
ENDROOT
BRANCH  14  16
ATOM     16  C   UNL     1     -29.003 100.350  17.459  0.00  0.00    +0.000 A 
ATOM     17  C   UNL     1     -29.789  99.574  16.597  0.00  0.00    +0.000 A 
ATOM     18  C   UNL     1     -30.181 100.066  15.353  0.00  0.00    +0.000 A 
ATOM     19  F   UNL     1     -30.933  99.293  14.556  0.00  0.00    +0.000 F 
ATOM     20  C   UNL     1     -29.796 101.336  14.944  0.00  0.00    +0.000 A 
ATOM     21  C   UNL     1     -29.016 102.109  15.793  0.00  0.00    +0.000 A 
ATOM     22  F   UNL     1     -28.639 103.339  15.410  0.00  0.00    +0.000 F 
ATOM     23  C   UNL     1     -28.623 101.626  17.037  0.00  0.00    +0.000 A 
BRANCH  20  24
ATOM     24  O   UNL     1     -30.183 101.811  13.723  0.00  0.00    +0.000 OA
ATOM     25  H   UNL     1     -30.944 101.279  13.420  0.00  0.00    +0.000 HD
ENDBRANCH  20  24
ENDBRANCH  14  16
BRANCH   2  26
ATOM     26  C   UNL     1     -28.485 104.525  20.193  0.00  0.00    +0.000 C 
ATOM     27  C   UNL     1     -28.871 105.347  18.958  0.00  0.00    +0.000 C 
BRANCH  27  28
ATOM     28  C   UNL     1     -29.224 106.109  17.822  0.00  0.00    +0.000 C 
ATOM     29  C   UNL     1     -30.394 105.696  16.981  0.00  0.00    +0.000 C 
ATOM     30  C   UNL     1     -28.398 107.295  17.433  0.00  0.00    +0.000 C 
ENDBRANCH  27  28
ENDBRANCH   2  26
TORSDOF 4
ENDMDL
MODEL 8
REMARK VINA RESULT:      -4.7     14.539     17.756
REMARK  Name = 25023738_BI-D-1870.pdbqt.pdb
REMARK  4 active torsions:
REMARK  status: ('A' for Active; 'I' for Inactive)
REMARK    1  A    between atoms: N_2  and  C_26
REMARK    2  A    between atoms: N_14  and  C_16
REMARK    3  A    between atoms: C_20  and  O_24
REMARK    4  A    between atoms: C_27  and  C_28
REMARK                            x       y       z     vdW  Elec       q    Type
REMARK                         _______ _______ _______ _____ _____    ______ ____
ROOT
ATOM      1  O   UNL     1     -33.287 108.960  16.672  0.00  0.00    +0.000 OA
ATOM      2  N   UNL     1     -32.821 105.401  16.214  0.00  0.00    +0.000 N 
ATOM      3  N   UNL     1     -31.423 107.654  17.169  0.00  0.00    +0.000 N 
ATOM      4  N   UNL     1     -30.937 104.023  16.704  0.00  0.00    +0.000 NA
ATOM      5  N   UNL     1     -28.970 104.897  17.633  0.00  0.00    +0.000 NA
ATOM      6  C   UNL     1     -33.452 106.626  16.187  0.00  0.00    +0.000 C 
ATOM      7  C   UNL     1     -31.507 105.250  16.701  0.00  0.00    +0.000 A 
ATOM      8  C   UNL     1     -32.735 107.856  16.690  0.00  0.00    +0.000 C 
ATOM      9  C   UNL     1     -30.835 106.359  17.165  0.00  0.00    +0.000 A 
ATOM     10  C   UNL     1     -34.874 106.740  15.648  0.00  0.00    +0.000 C 
ATOM     11  C   UNL     1     -30.576 108.720  17.694  0.00  0.00    +0.000 C 
ATOM     12  C   UNL     1     -29.560 106.106  17.620  0.00  0.00    +0.000 A 
ATOM     13  C   UNL     1     -29.687 103.875  17.168  0.00  0.00    +0.000 A 
ATOM     14  N   UNL     1     -29.068 102.633  17.187  0.00  0.00    +0.000 N 
ATOM     15  H   UNL     1     -28.132 102.700  17.567  0.00  0.00    +0.000 HD
ENDROOT
BRANCH  14  16
ATOM     16  C   UNL     1     -29.514 101.368  16.787  0.00  0.00    +0.000 A 
ATOM     17  C   UNL     1     -30.107 101.220  15.526  0.00  0.00    +0.000 A 
ATOM     18  C   UNL     1     -30.562  99.976  15.093  0.00  0.00    +0.000 A 
ATOM     19  F   UNL     1     -31.124  99.876  13.879  0.00  0.00    +0.000 F 
ATOM     20  C   UNL     1     -30.437  98.858  15.907  0.00  0.00    +0.000 A 
ATOM     21  C   UNL     1     -29.852  98.997  17.157  0.00  0.00    +0.000 A 
ATOM     22  F   UNL     1     -29.725  97.924  17.952  0.00  0.00    +0.000 F 
ATOM     23  C   UNL     1     -29.393 100.235  17.596  0.00  0.00    +0.000 A 
BRANCH  20  24
ATOM     24  O   UNL     1     -30.887  97.642  15.476  0.00  0.00    +0.000 OA
ATOM     25  H   UNL     1     -30.487  97.465  14.603  0.00  0.00    +0.000 HD
ENDBRANCH  20  24
ENDBRANCH  14  16
BRANCH   2  26
ATOM     26  C   UNL     1     -33.510 104.209  15.726  0.00  0.00    +0.000 C 
ATOM     27  C   UNL     1     -34.230 102.957  15.210  0.00  0.00    +0.000 C 
BRANCH  27  28
ATOM     28  C   UNL     1     -34.897 101.804  14.739  0.00  0.00    +0.000 C 
ATOM     29  C   UNL     1     -34.273 100.455  14.924  0.00  0.00    +0.000 C 
ATOM     30  C   UNL     1     -36.198 101.940  14.010  0.00  0.00    +0.000 C 
ENDBRANCH  27  28
ENDBRANCH   2  26
TORSDOF 4
ENDMDL
MODEL 9
REMARK VINA RESULT:      -4.3     21.041     23.707
REMARK  Name = 25023738_BI-D-1870.pdbqt.pdb
REMARK  4 active torsions:
REMARK  status: ('A' for Active; 'I' for Inactive)
REMARK    1  A    between atoms: N_2  and  C_26
REMARK    2  A    between atoms: N_14  and  C_16
REMARK    3  A    between atoms: C_20  and  O_24
REMARK    4  A    between atoms: C_27  and  C_28
REMARK                            x       y       z     vdW  Elec       q    Type
REMARK                         _______ _______ _______ _____ _____    ______ ____
ROOT
ATOM      1  O   UNL     1     -18.700  96.619 -15.089  0.00  0.00    +0.000 OA
ATOM      2  N   UNL     1     -21.037  98.578 -13.144  0.00  0.00    +0.000 N 
ATOM      3  N   UNL     1     -18.690  97.057 -12.802  0.00  0.00    +0.000 N 
ATOM      4  N   UNL     1     -21.070  99.055 -10.807  0.00  0.00    +0.000 NA
ATOM      5  N   UNL     1     -19.430  98.229  -9.350  0.00  0.00    +0.000 NA
ATOM      6  C   UNL     1     -20.474  97.981 -14.251  0.00  0.00    +0.000 C 
ATOM      7  C   UNL     1     -20.474  98.447 -11.858  0.00  0.00    +0.000 A 
ATOM      8  C   UNL     1     -19.216  97.159 -14.107  0.00  0.00    +0.000 C 
ATOM      9  C   UNL     1     -19.327  97.701 -11.705  0.00  0.00    +0.000 A 
ATOM     10  C   UNL     1     -21.120  98.151 -15.621  0.00  0.00    +0.000 C 
ATOM     11  C   UNL     1     -17.484  96.307 -12.467  0.00  0.00    +0.000 C 
ATOM     12  C   UNL     1     -18.856  97.634 -10.412  0.00  0.00    +0.000 A 
ATOM     13  C   UNL     1     -20.537  98.932  -9.582  0.00  0.00    +0.000 A 
ATOM     14  N   UNL     1     -21.119  99.542  -8.479  0.00  0.00    +0.000 N 
ATOM     15  H   UNL     1     -20.590  99.348  -7.637  0.00  0.00    +0.000 HD
ENDROOT
BRANCH  14  16
ATOM     16  C   UNL     1     -22.260 100.341  -8.355  0.00  0.00    +0.000 A 
ATOM     17  C   UNL     1     -23.086 100.185  -7.233  0.00  0.00    +0.000 A 
ATOM     18  C   UNL     1     -24.231 100.964  -7.076  0.00  0.00    +0.000 A 
ATOM     19  F   UNL     1     -24.995 100.784  -5.988  0.00  0.00    +0.000 F 
ATOM     20  C   UNL     1     -24.576 101.910  -8.032  0.00  0.00    +0.000 A 
ATOM     21  C   UNL     1     -23.765 102.069  -9.146  0.00  0.00    +0.000 A 
ATOM     22  F   UNL     1     -24.087 102.981 -10.076  0.00  0.00    +0.000 F 
ATOM     23  C   UNL     1     -22.619 101.297  -9.310  0.00  0.00    +0.000 A 
BRANCH  20  24
ATOM     24  O   UNL     1     -25.701 102.669  -7.871  0.00  0.00    +0.000 OA
ATOM     25  H   UNL     1     -25.457 103.465  -7.361  0.00  0.00    +0.000 HD
ENDBRANCH  20  24
ENDBRANCH  14  16
BRANCH   2  26
ATOM     26  C   UNL     1     -22.256  99.373 -13.278  0.00  0.00    +0.000 C 
ATOM     27  C   UNL     1     -23.536 100.204 -13.422  0.00  0.00    +0.000 C 
BRANCH  27  28
ATOM     28  C   UNL     1     -24.715 100.973 -13.551  0.00  0.00    +0.000 C 
ATOM     29  C   UNL     1     -25.662 101.086 -12.396  0.00  0.00    +0.000 C 
ATOM     30  C   UNL     1     -25.038 101.629 -14.857  0.00  0.00    +0.000 C 
ENDBRANCH  27  28
ENDBRANCH   2  26
TORSDOF 4
ENDMDL
