MODEL 1
REMARK VINA RESULT:      -4.4      0.000      0.000
REMARK  Name = 26879_Levamisole.pdbqt.pdb
REMARK  1 active torsions:
REMARK  status: ('A' for Active; 'I' for Inactive)
REMARK    1  A    between atoms: C_5  and  C_9
REMARK                            x       y       z     vdW  Elec       q    Type
REMARK                         _______ _______ _______ _____ _____    ______ ____
ROOT
ATOM      1  S   UNL     1     -34.360  96.920  19.449  0.00  0.00    +0.000 S 
ATOM      2  N   UNL     1     -32.115  96.998  17.753  0.00  0.00    +0.000 NA
ATOM      3  N   UNL     1     -34.228  97.908  16.946  0.00  0.00    +0.000 NA
ATOM      4  C   UNL     1     -32.003  98.062  16.805  0.00  0.00    +0.000 C 
ATOM      5  C   UNL     1     -33.219  98.501  16.258  0.00  0.00    +0.000 C 
ATOM      6  C   UNL     1     -31.781  97.316  19.118  0.00  0.00    +0.000 C 
ATOM      7  C   UNL     1     -33.613  97.078  17.842  0.00  0.00    +0.000 C 
ATOM      8  C   UNL     1     -32.863  97.246  20.150  0.00  0.00    +0.000 C 
ENDROOT
BRANCH   5   9
ATOM      9  C   UNL     1     -33.427  99.469  15.191  0.00  0.00    +0.000 A 
ATOM     10  C   UNL     1     -32.380 100.258  14.707  0.00  0.00    +0.000 A 
ATOM     11  C   UNL     1     -34.697  99.630  14.630  0.00  0.00    +0.000 A 
ATOM     12  C   UNL     1     -32.594 101.184  13.686  0.00  0.00    +0.000 A 
ATOM     13  C   UNL     1     -34.917 100.553  13.609  0.00  0.00    +0.000 A 
ATOM     14  C   UNL     1     -33.864 101.330  13.138  0.00  0.00    +0.000 A 
ENDBRANCH   5   9
TORSDOF 1
ENDMDL
MODEL 2
REMARK VINA RESULT:      -4.2      2.370      3.103
REMARK  Name = 26879_Levamisole.pdbqt.pdb
REMARK  1 active torsions:
REMARK  status: ('A' for Active; 'I' for Inactive)
REMARK    1  A    between atoms: C_5  and  C_9
REMARK                            x       y       z     vdW  Elec       q    Type
REMARK                         _______ _______ _______ _____ _____    ______ ____
ROOT
ATOM      1  S   UNL     1     -34.400  97.898  17.730  0.00  0.00    +0.000 S 
ATOM      2  N   UNL     1     -31.676  97.190  17.687  0.00  0.00    +0.000 NA
ATOM      3  N   UNL     1     -32.454  98.954  16.195  0.00  0.00    +0.000 NA
ATOM      4  C   UNL     1     -30.707  98.191  17.363  0.00  0.00    +0.000 C 
ATOM      5  C   UNL     1     -31.126  99.137  16.412  0.00  0.00    +0.000 C 
ATOM      6  C   UNL     1     -32.211  97.224  19.024  0.00  0.00    +0.000 C 
ATOM      7  C   UNL     1     -32.798  97.872  16.956  0.00  0.00    +0.000 C 
ATOM      8  C   UNL     1     -33.669  97.517  19.200  0.00  0.00    +0.000 C 
ENDROOT
BRANCH   5   9
ATOM      9  C   UNL     1     -30.342 100.192  15.789  0.00  0.00    +0.000 A 
ATOM     10  C   UNL     1     -29.015 100.432  16.159  0.00  0.00    +0.000 A 
ATOM     11  C   UNL     1     -30.913 100.998  14.800  0.00  0.00    +0.000 A 
ATOM     12  C   UNL     1     -28.276 101.448  15.556  0.00  0.00    +0.000 A 
ATOM     13  C   UNL     1     -30.178 102.015  14.193  0.00  0.00    +0.000 A 
ATOM     14  C   UNL     1     -28.859 102.239  14.572  0.00  0.00    +0.000 A 
ENDBRANCH   5   9
TORSDOF 1
ENDMDL
MODEL 3
REMARK VINA RESULT:      -4.1     22.550     23.369
REMARK  Name = 26879_Levamisole.pdbqt.pdb
REMARK  1 active torsions:
REMARK  status: ('A' for Active; 'I' for Inactive)
REMARK    1  A    between atoms: C_5  and  C_9
REMARK                            x       y       z     vdW  Elec       q    Type
REMARK                         _______ _______ _______ _____ _____    ______ ____
ROOT
ATOM      1  S   UNL     1     -41.930  79.471   3.496  0.00  0.00    +0.000 S 
ATOM      2  N   UNL     1     -43.435  79.122   5.849  0.00  0.00    +0.000 NA
ATOM      3  N   UNL     1     -42.952  81.387   5.090  0.00  0.00    +0.000 NA
ATOM      4  C   UNL     1     -44.411  80.107   6.197  0.00  0.00    +0.000 C 
ATOM      5  C   UNL     1     -44.070  81.426   5.859  0.00  0.00    +0.000 C 
ATOM      6  C   UNL     1     -43.805  78.186   4.819  0.00  0.00    +0.000 C 
ATOM      7  C   UNL     1     -42.600  80.068   5.032  0.00  0.00    +0.000 C 
ATOM      8  C   UNL     1     -43.041  78.204   3.531  0.00  0.00    +0.000 C 
ENDROOT
BRANCH   5   9
ATOM      9  C   UNL     1     -44.785  82.651   6.185  0.00  0.00    +0.000 A 
ATOM     10  C   UNL     1     -44.801  83.743   5.312  0.00  0.00    +0.000 A 
ATOM     11  C   UNL     1     -45.473  82.757   7.397  0.00  0.00    +0.000 A 
ATOM     12  C   UNL     1     -45.487  84.911   5.639  0.00  0.00    +0.000 A 
ATOM     13  C   UNL     1     -46.162  83.923   7.729  0.00  0.00    +0.000 A 
ATOM     14  C   UNL     1     -46.168  85.000   6.849  0.00  0.00    +0.000 A 
ENDBRANCH   5   9
TORSDOF 1
ENDMDL
MODEL 4
REMARK VINA RESULT:      -4.1      2.949      3.841
REMARK  Name = 26879_Levamisole.pdbqt.pdb
REMARK  1 active torsions:
REMARK  status: ('A' for Active; 'I' for Inactive)
REMARK    1  A    between atoms: C_5  and  C_9
REMARK                            x       y       z     vdW  Elec       q    Type
REMARK                         _______ _______ _______ _____ _____    ______ ____
ROOT
ATOM      1  S   UNL     1     -31.588 101.609  16.959  0.00  0.00    +0.000 S 
ATOM      2  N   UNL     1     -32.252  99.030  16.048  0.00  0.00    +0.000 NA
ATOM      3  N   UNL     1     -34.016 100.704  16.219  0.00  0.00    +0.000 NA
ATOM      4  C   UNL     1     -33.332  98.881  15.122  0.00  0.00    +0.000 C 
ATOM      5  C   UNL     1     -34.398  99.778  15.304  0.00  0.00    +0.000 C 
ATOM      6  C   UNL     1     -31.001  99.496  15.507  0.00  0.00    +0.000 C 
ATOM      7  C   UNL     1     -32.767 100.320  16.622  0.00  0.00    +0.000 C 
ATOM      8  C   UNL     1     -30.482 100.826  15.957  0.00  0.00    +0.000 C 
ENDROOT
BRANCH   5   9
ATOM      9  C   UNL     1     -35.678  99.802  14.614  0.00  0.00    +0.000 A 
ATOM     10  C   UNL     1     -35.778 100.179  13.271  0.00  0.00    +0.000 A 
ATOM     11  C   UNL     1     -36.847  99.449  15.294  0.00  0.00    +0.000 A 
ATOM     12  C   UNL     1     -37.012 100.200  12.623  0.00  0.00    +0.000 A 
ATOM     13  C   UNL     1     -38.083  99.468  14.652  0.00  0.00    +0.000 A 
ATOM     14  C   UNL     1     -38.165  99.844  13.315  0.00  0.00    +0.000 A 
ENDBRANCH   5   9
TORSDOF 1
ENDMDL
MODEL 5
REMARK VINA RESULT:      -4.1     14.546     15.977
REMARK  Name = 26879_Levamisole.pdbqt.pdb
REMARK  1 active torsions:
REMARK  status: ('A' for Active; 'I' for Inactive)
REMARK    1  A    between atoms: C_5  and  C_9
REMARK                            x       y       z     vdW  Elec       q    Type
REMARK                         _______ _______ _______ _____ _____    ______ ____
ROOT
ATOM      1  S   UNL     1     -19.352  87.310  17.777  0.00  0.00    +0.000 S 
ATOM      2  N   UNL     1     -20.549  89.507  16.487  0.00  0.00    +0.000 NA
ATOM      3  N   UNL     1     -20.418  89.504  18.921  0.00  0.00    +0.000 NA
ATOM      4  C   UNL     1     -20.464  90.797  17.099  0.00  0.00    +0.000 C 
ATOM      5  C   UNL     1     -20.507  90.792  18.503  0.00  0.00    +0.000 C 
ATOM      6  C   UNL     1     -19.370  89.044  15.800  0.00  0.00    +0.000 C 
ATOM      7  C   UNL     1     -20.391  88.755  17.778  0.00  0.00    +0.000 C 
ATOM      8  C   UNL     1     -18.665  87.835  16.330  0.00  0.00    +0.000 C 
ENDROOT
BRANCH   5   9
ATOM      9  C   UNL     1     -20.566  91.934  19.403  0.00  0.00    +0.000 A 
ATOM     10  C   UNL     1     -21.714  92.216  20.150  0.00  0.00    +0.000 A 
ATOM     11  C   UNL     1     -19.462  92.780  19.534  0.00  0.00    +0.000 A 
ATOM     12  C   UNL     1     -21.759  93.315  21.006  0.00  0.00    +0.000 A 
ATOM     13  C   UNL     1     -19.501  93.880  20.389  0.00  0.00    +0.000 A 
ATOM     14  C   UNL     1     -20.650  94.146  21.126  0.00  0.00    +0.000 A 
ENDBRANCH   5   9
TORSDOF 1
ENDMDL
MODEL 6
REMARK VINA RESULT:      -4.0     11.577     13.361
REMARK  Name = 26879_Levamisole.pdbqt.pdb
REMARK  1 active torsions:
REMARK  status: ('A' for Active; 'I' for Inactive)
REMARK    1  A    between atoms: C_5  and  C_9
REMARK                            x       y       z     vdW  Elec       q    Type
REMARK                         _______ _______ _______ _____ _____    ______ ____
ROOT
ATOM      1  S   UNL     1     -37.515  84.275  17.741  0.00  0.00    +0.000 S 
ATOM      2  N   UNL     1     -35.639  84.287  15.642  0.00  0.00    +0.000 NA
ATOM      3  N   UNL     1     -35.612  86.119  17.250  0.00  0.00    +0.000 NA
ATOM      4  C   UNL     1     -34.363  84.895  15.860  0.00  0.00    +0.000 C 
ATOM      5  C   UNL     1     -34.377  86.022  16.697  0.00  0.00    +0.000 C 
ATOM      6  C   UNL     1     -35.828  82.972  16.199  0.00  0.00    +0.000 C 
ATOM      7  C   UNL     1     -36.337  85.102  16.694  0.00  0.00    +0.000 C 
ATOM      8  C   UNL     1     -36.849  82.797  17.280  0.00  0.00    +0.000 C 
ENDROOT
BRANCH   5   9
ATOM      9  C   UNL     1     -33.277  86.923  17.010  0.00  0.00    +0.000 A 
ATOM     10  C   UNL     1     -33.445  88.311  17.000  0.00  0.00    +0.000 A 
ATOM     11  C   UNL     1     -32.017  86.406  17.324  0.00  0.00    +0.000 A 
ATOM     12  C   UNL     1     -32.382  89.162  17.298  0.00  0.00    +0.000 A 
ATOM     13  C   UNL     1     -30.951  87.253  17.623  0.00  0.00    +0.000 A 
ATOM     14  C   UNL     1     -31.135  88.631  17.610  0.00  0.00    +0.000 A 
ENDBRANCH   5   9
TORSDOF 1
ENDMDL
MODEL 7
REMARK VINA RESULT:      -4.0     22.510     23.316
REMARK  Name = 26879_Levamisole.pdbqt.pdb
REMARK  1 active torsions:
REMARK  status: ('A' for Active; 'I' for Inactive)
REMARK    1  A    between atoms: C_5  and  C_9
REMARK                            x       y       z     vdW  Elec       q    Type
REMARK                         _______ _______ _______ _____ _____    ______ ____
ROOT
ATOM      1  S   UNL     1     -43.117  78.148   3.804  0.00  0.00    +0.000 S 
ATOM      2  N   UNL     1     -41.757  80.599   4.069  0.00  0.00    +0.000 NA
ATOM      3  N   UNL     1     -44.181  80.568   4.325  0.00  0.00    +0.000 NA
ATOM      4  C   UNL     1     -42.294  81.596   4.941  0.00  0.00    +0.000 C 
ATOM      5  C   UNL     1     -43.697  81.647   4.992  0.00  0.00    +0.000 C 
ATOM      6  C   UNL     1     -41.050  79.511   4.696  0.00  0.00    +0.000 C 
ATOM      7  C   UNL     1     -43.080  79.927   3.830  0.00  0.00    +0.000 C 
ATOM      8  C   UNL     1     -41.618  78.131   4.576  0.00  0.00    +0.000 C 
ENDROOT
BRANCH   5   9
ATOM      9  C   UNL     1     -44.536  82.617   5.679  0.00  0.00    +0.000 A 
ATOM     10  C   UNL     1     -45.105  82.338   6.926  0.00  0.00    +0.000 A 
ATOM     11  C   UNL     1     -44.795  83.859   5.092  0.00  0.00    +0.000 A 
ATOM     12  C   UNL     1     -45.909  83.275   7.572  0.00  0.00    +0.000 A 
ATOM     13  C   UNL     1     -45.599  84.800   5.733  0.00  0.00    +0.000 A 
ATOM     14  C   UNL     1     -46.155  84.507   6.974  0.00  0.00    +0.000 A 
ENDBRANCH   5   9
TORSDOF 1
ENDMDL
MODEL 8
REMARK VINA RESULT:      -3.9     12.633     13.750
REMARK  Name = 26879_Levamisole.pdbqt.pdb
REMARK  1 active torsions:
REMARK  status: ('A' for Active; 'I' for Inactive)
REMARK    1  A    between atoms: C_5  and  C_9
REMARK                            x       y       z     vdW  Elec       q    Type
REMARK                         _______ _______ _______ _____ _____    ______ ____
ROOT
ATOM      1  S   UNL     1     -34.965 107.724   7.949  0.00  0.00    +0.000 S 
ATOM      2  N   UNL     1     -37.503 107.636   6.734  0.00  0.00    +0.000 NA
ATOM      3  N   UNL     1     -35.703 106.290   5.790  0.00  0.00    +0.000 NA
ATOM      4  C   UNL     1     -37.914 106.432   6.081  0.00  0.00    +0.000 C 
ATOM      5  C   UNL     1     -36.885 105.724   5.439  0.00  0.00    +0.000 C 
ATOM      6  C   UNL     1     -37.585 107.645   8.173  0.00  0.00    +0.000 C 
ATOM      7  C   UNL     1     -36.034 107.360   6.574  0.00  0.00    +0.000 C 
ATOM      8  C   UNL     1     -36.315 107.762   8.957  0.00  0.00    +0.000 C 
ENDROOT
BRANCH   5   9
ATOM      9  C   UNL     1     -36.998 104.545   4.594  0.00  0.00    +0.000 A 
ATOM     10  C   UNL     1     -36.114 104.319   3.533  0.00  0.00    +0.000 A 
ATOM     11  C   UNL     1     -38.009 103.609   4.829  0.00  0.00    +0.000 A 
ATOM     12  C   UNL     1     -36.236 103.187   2.730  0.00  0.00    +0.000 A 
ATOM     13  C   UNL     1     -38.134 102.475   4.029  0.00  0.00    +0.000 A 
ATOM     14  C   UNL     1     -37.247 102.265   2.979  0.00  0.00    +0.000 A 
ENDBRANCH   5   9
TORSDOF 1
ENDMDL
MODEL 9
REMARK VINA RESULT:      -3.9      9.757     11.206
REMARK  Name = 26879_Levamisole.pdbqt.pdb
REMARK  1 active torsions:
REMARK  status: ('A' for Active; 'I' for Inactive)
REMARK    1  A    between atoms: C_5  and  C_9
REMARK                            x       y       z     vdW  Elec       q    Type
REMARK                         _______ _______ _______ _____ _____    ______ ____
ROOT
ATOM      1  S   UNL     1     -35.131  86.311  20.233  0.00  0.00    +0.000 S 
ATOM      2  N   UNL     1     -35.416  88.226  18.189  0.00  0.00    +0.000 NA
ATOM      3  N   UNL     1     -33.220  87.905  19.199  0.00  0.00    +0.000 NA
ATOM      4  C   UNL     1     -34.302  88.494  17.334  0.00  0.00    +0.000 C 
ATOM      5  C   UNL     1     -33.045  88.420  17.955  0.00  0.00    +0.000 C 
ATOM      6  C   UNL     1     -36.159  87.022  17.918  0.00  0.00    +0.000 C 
ATOM      7  C   UNL     1     -34.571  87.741  19.333  0.00  0.00    +0.000 C 
ATOM      8  C   UNL     1     -36.160  85.938  18.951  0.00  0.00    +0.000 C 
ENDROOT
BRANCH   5   9
ATOM      9  C   UNL     1     -31.745  88.756  17.395  0.00  0.00    +0.000 A 
ATOM     10  C   UNL     1     -30.895  87.771  16.880  0.00  0.00    +0.000 A 
ATOM     11  C   UNL     1     -31.317  90.086  17.365  0.00  0.00    +0.000 A 
ATOM     12  C   UNL     1     -29.651  88.106  16.348  0.00  0.00    +0.000 A 
ATOM     13  C   UNL     1     -30.074  90.426  16.835  0.00  0.00    +0.000 A 
ATOM     14  C   UNL     1     -29.241  89.435  16.326  0.00  0.00    +0.000 A 
ENDBRANCH   5   9
TORSDOF 1
ENDMDL
