MODEL 1
REMARK VINA RESULT:      -4.6      0.000      0.000
REMARK  Name = 27924_Phorbol.pdbqt.pdb
REMARK  26 active torsions:
REMARK  status: ('A' for Active; 'I' for Inactive)
REMARK    1  A    between atoms: O_1  and  C_10
REMARK    2  A    between atoms: O_1  and  C_26
REMARK    3  A    between atoms: O_2  and  C_13
REMARK    4  A    between atoms: O_2  and  C_28
REMARK    5  A    between atoms: O_3  and  C_14
REMARK    6  A    between atoms: O_4  and  C_20
REMARK    7  A    between atoms: O_7  and  C_29
REMARK    8  A    between atoms: C_11  and  C_16
REMARK    9  A    between atoms: C_11  and  C_17
REMARK   10  A    between atoms: C_15  and  C_21
REMARK   11  A    between atoms: C_22  and  C_29
REMARK   12  A    between atoms: C_26  and  C_30
REMARK   13  A    between atoms: C_27  and  C_31
REMARK   14  A    between atoms: C_28  and  C_32
REMARK   15  A    between atoms: C_32  and  C_33
REMARK   16  A    between atoms: C_33  and  C_34
REMARK   17  A    between atoms: C_34  and  C_35
REMARK   18  A    between atoms: C_35  and  C_36
REMARK   19  A    between atoms: C_36  and  C_37
REMARK   20  A    between atoms: C_37  and  C_38
REMARK   21  A    between atoms: C_38  and  C_39
REMARK   22  A    between atoms: C_39  and  C_40
REMARK   23  A    between atoms: C_40  and  C_41
REMARK   24  A    between atoms: C_41  and  C_42
REMARK   25  A    between atoms: C_42  and  C_43
REMARK   26  A    between atoms: C_43  and  C_44
REMARK                            x       y       z     vdW  Elec       q    Type
REMARK                         _______ _______ _______ _____ _____    ______ ____
ROOT
ATOM      1  O   UNL     1     -29.614 108.020   2.825  0.00  0.00    +0.000 OA
ATOM      2  C   UNL     1     -33.239 106.520  -3.089  0.00  0.00    +0.000 C 
ATOM      3  C   UNL     1     -34.738 106.302  -3.020  0.00  0.00    +0.000 C 
ATOM      4  C   UNL     1     -33.768 105.109  -3.255  0.00  0.00    +0.000 C 
ATOM      5  C   UNL     1     -32.503 107.166  -1.953  0.00  0.00    +0.000 C 
ATOM      6  C   UNL     1     -35.430 106.600  -1.677  0.00  0.00    +0.000 C 
ATOM      7  C   UNL     1     -33.233 107.254  -0.535  0.00  0.00    +0.000 C 
ATOM      8  C   UNL     1     -34.693 107.740  -0.891  0.00  0.00    +0.000 C 
ATOM      9  C   UNL     1     -33.597 104.539  -4.653  0.00  0.00    +0.000 C 
ATOM     10  C   UNL     1     -33.522 104.057  -2.201  0.00  0.00    +0.000 C 
ATOM     11  C   UNL     1     -32.334 108.157   0.453  0.00  0.00    +0.000 C 
ATOM     12  C   UNL     1     -31.050 106.739  -1.854  0.00  0.00    +0.000 C 
ATOM     13  C   UNL     1     -30.915 107.538   0.827  0.00  0.00    +0.000 C 
ATOM     14  C   UNL     1     -35.547 108.209   0.288  0.00  0.00    +0.000 C 
ATOM     15  C   UNL     1     -30.159 107.716  -1.581  0.00  0.00    +0.000 C 
ATOM     16  C   UNL     1     -29.746 107.867  -0.128  0.00  0.00    +0.000 C 
ATOM     17  C   UNL     1     -32.850 108.493   1.847  0.00  0.00    +0.000 C 
ATOM     18  C   UNL     1     -30.676 108.074   2.222  0.00  0.00    +0.000 C 
ATOM     19  C   UNL     1     -31.935 108.524   2.825  0.00  0.00    +0.000 C 
ATOM     20  C   UNL     1     -32.061 108.891   4.251  0.00  0.00    +0.000 C 
ENDROOT
BRANCH   7  21
ATOM     21  O   UNL     1     -33.380 105.966   0.078  0.00  0.00    +0.000 OA
ATOM     22  H   UNL     1     -33.866 106.088   0.924  0.00  0.00    +0.000 HD
ENDBRANCH   7  21
BRANCH  13  23
ATOM     23  O   UNL     1     -30.998 106.106   1.028  0.00  0.00    +0.000 OA
ATOM     24  H   UNL     1     -30.164 105.846   1.472  0.00  0.00    +0.000 HD
ENDBRANCH  13  23
BRANCH   3  25
ATOM     25  O   UNL     1     -35.374 106.920  -4.170  0.00  0.00    +0.000 OA
BRANCH  25  27
ATOM     26  O   UNL     1     -34.362 107.985  -5.868  0.00  0.00    +0.000 OA
ATOM     27  C   UNL     1     -34.939 108.049  -4.784  0.00  0.00    +0.000 C 
ATOM     28  C   UNL     1     -35.248 109.376  -4.159  0.00  0.00    +0.000 C 
ENDBRANCH  25  27
ENDBRANCH   3  25
BRANCH  15  29
ATOM     29  C   UNL     1     -30.004 108.957  -2.421  0.00  0.00    +0.000 C 
BRANCH  29  30
ATOM     30  O   UNL     1     -30.117 110.085  -1.570  0.00  0.00    +0.000 OA
ATOM     31  H   UNL     1     -30.304 110.850  -2.143  0.00  0.00    +0.000 HD
ENDBRANCH  29  30
ENDBRANCH  15  29
BRANCH   6  32
ATOM     32  O   UNL     1     -36.800 106.998  -1.959  0.00  0.00    +0.000 OA
BRANCH  32  34
ATOM     33  O   UNL     1     -39.020 106.728  -1.908  0.00  0.00    +0.000 OA
ATOM     34  C   UNL     1     -37.904 106.268  -1.678  0.00  0.00    +0.000 C 
BRANCH  34  35
ATOM     35  C   UNL     1     -37.748 104.890  -1.084  0.00  0.00    +0.000 C 
BRANCH  35  36
ATOM     36  C   UNL     1     -38.418 104.786   0.281  0.00  0.00    +0.000 C 
BRANCH  36  37
ATOM     37  C   UNL     1     -37.510 105.167   1.456  0.00  0.00    +0.000 C 
BRANCH  37  38
ATOM     38  C   UNL     1     -36.231 104.326   1.567  0.00  0.00    +0.000 C 
BRANCH  38  39
ATOM     39  C   UNL     1     -36.200 103.470   2.837  0.00  0.00    +0.000 C 
BRANCH  39  40
ATOM     40  C   UNL     1     -37.215 102.324   2.826  0.00  0.00    +0.000 C 
BRANCH  40  41
ATOM     41  C   UNL     1     -38.118 102.310   4.063  0.00  0.00    +0.000 C 
BRANCH  41  42
ATOM     42  C   UNL     1     -39.540 101.825   3.769  0.00  0.00    +0.000 C 
BRANCH  42  43
ATOM     43  C   UNL     1     -40.024 102.014   2.329  0.00  0.00    +0.000 C 
BRANCH  43  44
ATOM     44  C   UNL     1     -41.530 102.239   2.161  0.00  0.00    +0.000 C 
BRANCH  44  45
ATOM     45  C   UNL     1     -42.266 101.193   1.319  0.00  0.00    +0.000 C 
BRANCH  45  46
ATOM     46  C   UNL     1     -41.592 100.805   0.001  0.00  0.00    +0.000 C 
ATOM     47  C   UNL     1     -41.847 101.796  -1.124  0.00  0.00    +0.000 C 
ENDBRANCH  45  46
ENDBRANCH  44  45
ENDBRANCH  43  44
ENDBRANCH  42  43
ENDBRANCH  41  42
ENDBRANCH  40  41
ENDBRANCH  39  40
ENDBRANCH  38  39
ENDBRANCH  37  38
ENDBRANCH  36  37
ENDBRANCH  35  36
ENDBRANCH  34  35
ENDBRANCH  32  34
ENDBRANCH   6  32
TORSDOF 20
ENDMDL
MODEL 2
REMARK VINA RESULT:      -4.6      3.527      9.142
REMARK  Name = 27924_Phorbol.pdbqt.pdb
REMARK  26 active torsions:
REMARK  status: ('A' for Active; 'I' for Inactive)
REMARK    1  A    between atoms: O_1  and  C_10
REMARK    2  A    between atoms: O_1  and  C_26
REMARK    3  A    between atoms: O_2  and  C_13
REMARK    4  A    between atoms: O_2  and  C_28
REMARK    5  A    between atoms: O_3  and  C_14
REMARK    6  A    between atoms: O_4  and  C_20
REMARK    7  A    between atoms: O_7  and  C_29
REMARK    8  A    between atoms: C_11  and  C_16
REMARK    9  A    between atoms: C_11  and  C_17
REMARK   10  A    between atoms: C_15  and  C_21
REMARK   11  A    between atoms: C_22  and  C_29
REMARK   12  A    between atoms: C_26  and  C_30
REMARK   13  A    between atoms: C_27  and  C_31
REMARK   14  A    between atoms: C_28  and  C_32
REMARK   15  A    between atoms: C_32  and  C_33
REMARK   16  A    between atoms: C_33  and  C_34
REMARK   17  A    between atoms: C_34  and  C_35
REMARK   18  A    between atoms: C_35  and  C_36
REMARK   19  A    between atoms: C_36  and  C_37
REMARK   20  A    between atoms: C_37  and  C_38
REMARK   21  A    between atoms: C_38  and  C_39
REMARK   22  A    between atoms: C_39  and  C_40
REMARK   23  A    between atoms: C_40  and  C_41
REMARK   24  A    between atoms: C_41  and  C_42
REMARK   25  A    between atoms: C_42  and  C_43
REMARK   26  A    between atoms: C_43  and  C_44
REMARK                            x       y       z     vdW  Elec       q    Type
REMARK                         _______ _______ _______ _____ _____    ______ ____
ROOT
ATOM      1  O   UNL     1     -38.493 102.853   5.327  0.00  0.00    +0.000 OA
ATOM      2  C   UNL     1     -34.421 107.481   1.811  0.00  0.00    +0.000 C 
ATOM      3  C   UNL     1     -34.110 107.251   0.344  0.00  0.00    +0.000 C 
ATOM      4  C   UNL     1     -33.019 107.044   1.434  0.00  0.00    +0.000 C 
ATOM      5  C   UNL     1     -35.533 106.736   2.487  0.00  0.00    +0.000 C 
ATOM      6  C   UNL     1     -34.855 106.101  -0.359  0.00  0.00    +0.000 C 
ATOM      7  C   UNL     1     -36.113 105.432   1.770  0.00  0.00    +0.000 C 
ATOM      8  C   UNL     1     -36.278 105.873   0.262  0.00  0.00    +0.000 C 
ATOM      9  C   UNL     1     -31.956 108.108   1.647  0.00  0.00    +0.000 C 
ATOM     10  C   UNL     1     -32.505 105.674   1.803  0.00  0.00    +0.000 C 
ATOM     11  C   UNL     1     -37.416 104.934   2.579  0.00  0.00    +0.000 C 
ATOM     12  C   UNL     1     -35.318 106.554   3.979  0.00  0.00    +0.000 C 
ATOM     13  C   UNL     1     -37.132 104.422   4.061  0.00  0.00    +0.000 C 
ATOM     14  C   UNL     1     -37.098 104.933  -0.623  0.00  0.00    +0.000 C 
ATOM     15  C   UNL     1     -36.401 106.740   4.764  0.00  0.00    +0.000 C 
ATOM     16  C   UNL     1     -37.159 105.491   5.176  0.00  0.00    +0.000 C 
ATOM     17  C   UNL     1     -38.232 103.763   2.048  0.00  0.00    +0.000 C 
ATOM     18  C   UNL     1     -38.202 103.370   4.259  0.00  0.00    +0.000 C 
ATOM     19  C   UNL     1     -38.737 102.928   2.966  0.00  0.00    +0.000 C 
ATOM     20  C   UNL     1     -39.631 101.760   2.820  0.00  0.00    +0.000 C 
ENDROOT
BRANCH   7  21
ATOM     21  O   UNL     1     -35.171 104.352   1.768  0.00  0.00    +0.000 OA
ATOM     22  H   UNL     1     -34.428 104.598   2.363  0.00  0.00    +0.000 HD
ENDBRANCH   7  21
BRANCH  13  23
ATOM     23  O   UNL     1     -35.900 103.665   4.134  0.00  0.00    +0.000 OA
ATOM     24  H   UNL     1     -35.218 104.288   4.460  0.00  0.00    +0.000 HD
ENDBRANCH  13  23
BRANCH   3  25
ATOM     25  O   UNL     1     -34.154 108.515  -0.368  0.00  0.00    +0.000 OA
BRANCH  25  27
ATOM     26  O   UNL     1     -34.581 110.538   0.508  0.00  0.00    +0.000 OA
ATOM     27  C   UNL     1     -34.995 109.540  -0.079  0.00  0.00    +0.000 C 
ATOM     28  C   UNL     1     -36.413 109.468  -0.562  0.00  0.00    +0.000 C 
ENDBRANCH  25  27
ENDBRANCH   3  25
BRANCH  15  29
ATOM     29  C   UNL     1     -37.210 108.011   4.775  0.00  0.00    +0.000 C 
BRANCH  29  30
ATOM     30  O   UNL     1     -38.516 107.701   5.234  0.00  0.00    +0.000 OA
ATOM     31  H   UNL     1     -38.933 107.158   4.542  0.00  0.00    +0.000 HD
ENDBRANCH  29  30
ENDBRANCH  15  29
BRANCH   6  32
ATOM     32  O   UNL     1     -34.978 106.443  -1.767  0.00  0.00    +0.000 OA
BRANCH  32  34
ATOM     33  O   UNL     1     -34.432 104.653  -2.992  0.00  0.00    +0.000 OA
ATOM     34  C   UNL     1     -34.300 105.856  -2.780  0.00  0.00    +0.000 C 
BRANCH  34  35
ATOM     35  C   UNL     1     -33.387 106.692  -3.641  0.00  0.00    +0.000 C 
BRANCH  35  36
ATOM     36  C   UNL     1     -31.920 106.464  -3.294  0.00  0.00    +0.000 C 
BRANCH  36  37
ATOM     37  C   UNL     1     -31.424 107.281  -2.096  0.00  0.00    +0.000 C 
BRANCH  37  38
ATOM     38  C   UNL     1     -30.156 106.728  -1.432  0.00  0.00    +0.000 C 
BRANCH  38  39
ATOM     39  C   UNL     1     -28.889 107.455  -1.893  0.00  0.00    +0.000 C 
BRANCH  39  40
ATOM     40  C   UNL     1     -27.636 106.575  -1.866  0.00  0.00    +0.000 C 
BRANCH  40  41
ATOM     41  C   UNL     1     -26.520 107.147  -0.986  0.00  0.00    +0.000 C 
BRANCH  41  42
ATOM     42  C   UNL     1     -26.690 106.816   0.499  0.00  0.00    +0.000 C 
BRANCH  42  43
ATOM     43  C   UNL     1     -25.804 105.689   1.037  0.00  0.00    +0.000 C 
BRANCH  43  44
ATOM     44  C   UNL     1     -24.736 105.169   0.070  0.00  0.00    +0.000 C 
BRANCH  44  45
ATOM     45  C   UNL     1     -24.310 103.712   0.275  0.00  0.00    +0.000 C 
BRANCH  45  46
ATOM     46  C   UNL     1     -23.658 103.033  -0.932  0.00  0.00    +0.000 C 
ATOM     47  C   UNL     1     -24.114 103.603  -2.266  0.00  0.00    +0.000 C 
ENDBRANCH  45  46
ENDBRANCH  44  45
ENDBRANCH  43  44
ENDBRANCH  42  43
ENDBRANCH  41  42
ENDBRANCH  40  41
ENDBRANCH  39  40
ENDBRANCH  38  39
ENDBRANCH  37  38
ENDBRANCH  36  37
ENDBRANCH  35  36
ENDBRANCH  34  35
ENDBRANCH  32  34
ENDBRANCH   6  32
TORSDOF 20
ENDMDL
MODEL 3
REMARK VINA RESULT:      -4.5     20.005     23.870
REMARK  Name = 27924_Phorbol.pdbqt.pdb
REMARK  26 active torsions:
REMARK  status: ('A' for Active; 'I' for Inactive)
REMARK    1  A    between atoms: O_1  and  C_10
REMARK    2  A    between atoms: O_1  and  C_26
REMARK    3  A    between atoms: O_2  and  C_13
REMARK    4  A    between atoms: O_2  and  C_28
REMARK    5  A    between atoms: O_3  and  C_14
REMARK    6  A    between atoms: O_4  and  C_20
REMARK    7  A    between atoms: O_7  and  C_29
REMARK    8  A    between atoms: C_11  and  C_16
REMARK    9  A    between atoms: C_11  and  C_17
REMARK   10  A    between atoms: C_15  and  C_21
REMARK   11  A    between atoms: C_22  and  C_29
REMARK   12  A    between atoms: C_26  and  C_30
REMARK   13  A    between atoms: C_27  and  C_31
REMARK   14  A    between atoms: C_28  and  C_32
REMARK   15  A    between atoms: C_32  and  C_33
REMARK   16  A    between atoms: C_33  and  C_34
REMARK   17  A    between atoms: C_34  and  C_35
REMARK   18  A    between atoms: C_35  and  C_36
REMARK   19  A    between atoms: C_36  and  C_37
REMARK   20  A    between atoms: C_37  and  C_38
REMARK   21  A    between atoms: C_38  and  C_39
REMARK   22  A    between atoms: C_39  and  C_40
REMARK   23  A    between atoms: C_40  and  C_41
REMARK   24  A    between atoms: C_41  and  C_42
REMARK   25  A    between atoms: C_42  and  C_43
REMARK   26  A    between atoms: C_43  and  C_44
REMARK                            x       y       z     vdW  Elec       q    Type
REMARK                         _______ _______ _______ _____ _____    ______ ____
ROOT
ATOM      1  O   UNL     1     -27.063  86.017 -12.849  0.00  0.00    +0.000 OA
ATOM      2  C   UNL     1     -26.670  86.942  -5.824  0.00  0.00    +0.000 C 
ATOM      3  C   UNL     1     -25.343  86.759  -5.112  0.00  0.00    +0.000 C 
ATOM      4  C   UNL     1     -26.483  85.711  -4.959  0.00  0.00    +0.000 C 
ATOM      5  C   UNL     1     -26.728  87.095  -7.315  0.00  0.00    +0.000 C 
ATOM      6  C   UNL     1     -24.096  86.555  -5.992  0.00  0.00    +0.000 C 
ATOM      7  C   UNL     1     -25.445  86.669  -8.167  0.00  0.00    +0.000 C 
ATOM      8  C   UNL     1     -24.235  87.296  -7.368  0.00  0.00    +0.000 C 
ATOM      9  C   UNL     1     -27.333  85.700  -3.699  0.00  0.00    +0.000 C 
ATOM     10  C   UNL     1     -26.394  84.336  -5.572  0.00  0.00    +0.000 C 
ATOM     11  C   UNL     1     -25.674  87.111  -9.700  0.00  0.00    +0.000 C 
ATOM     12  C   UNL     1     -28.035  86.619  -7.921  0.00  0.00    +0.000 C 
ATOM     13  C   UNL     1     -26.859  86.355 -10.449  0.00  0.00    +0.000 C 
ATOM     14  C   UNL     1     -22.892  87.317  -8.097  0.00  0.00    +0.000 C 
ATOM     15  C   UNL     1     -28.560  87.397  -8.892  0.00  0.00    +0.000 C 
ATOM     16  C   UNL     1     -28.265  86.981 -10.323  0.00  0.00    +0.000 C 
ATOM     17  C   UNL     1     -24.555  86.918 -10.717  0.00  0.00    +0.000 C 
ATOM     18  C   UNL     1     -26.379  86.324 -11.884  0.00  0.00    +0.000 C 
ATOM     19  C   UNL     1     -24.932  86.554 -11.949  0.00  0.00    +0.000 C 
ATOM     20  C   UNL     1     -24.140  86.366 -13.183  0.00  0.00    +0.000 C 
ENDROOT
BRANCH   7  21
ATOM     21  O   UNL     1     -25.236  85.250  -8.156  0.00  0.00    +0.000 OA
ATOM     22  H   UNL     1     -24.659  85.025  -8.920  0.00  0.00    +0.000 HD
ENDBRANCH   7  21
BRANCH  13  23
ATOM     23  O   UNL     1     -26.910  84.954 -10.083  0.00  0.00    +0.000 OA
ATOM     24  H   UNL     1     -26.104  84.546 -10.462  0.00  0.00    +0.000 HD
ENDBRANCH  13  23
BRANCH   3  25
ATOM     25  O   UNL     1     -25.193  87.780  -4.091  0.00  0.00    +0.000 OA
BRANCH  25  27
ATOM     26  O   UNL     1     -26.661  89.274  -3.281  0.00  0.00    +0.000 OA
ATOM     27  C   UNL     1     -25.799  88.994  -4.112  0.00  0.00    +0.000 C 
ATOM     28  C   UNL     1     -25.340  90.013  -5.111  0.00  0.00    +0.000 C 
ENDBRANCH  25  27
ENDBRANCH   3  25
BRANCH  15  29
ATOM     29  C   UNL     1     -28.882  88.856  -8.704  0.00  0.00    +0.000 C 
BRANCH  29  30
ATOM     30  O   UNL     1     -29.876  88.965  -7.699  0.00  0.00    +0.000 OA
ATOM     31  H   UNL     1     -30.224  88.068  -7.552  0.00  0.00    +0.000 HD
ENDBRANCH  29  30
ENDBRANCH  15  29
BRANCH   6  32
ATOM     32  O   UNL     1     -22.947  87.069  -5.265  0.00  0.00    +0.000 OA
BRANCH  32  34
ATOM     33  O   UNL     1     -21.915  85.113  -4.936  0.00  0.00    +0.000 OA
ATOM     34  C   UNL     1     -21.886  86.338  -4.854  0.00  0.00    +0.000 C 
BRANCH  34  35
ATOM     35  C   UNL     1     -20.674  87.042  -4.295  0.00  0.00    +0.000 C 
BRANCH  35  36
ATOM     36  C   UNL     1     -19.743  87.525  -5.401  0.00  0.00    +0.000 C 
BRANCH  36  37
ATOM     37  C   UNL     1     -19.674  89.049  -5.542  0.00  0.00    +0.000 C 
BRANCH  37  38
ATOM     38  C   UNL     1     -20.709  89.644  -6.507  0.00  0.00    +0.000 C 
BRANCH  38  39
ATOM     39  C   UNL     1     -21.657  90.630  -5.815  0.00  0.00    +0.000 C 
BRANCH  39  40
ATOM     40  C   UNL     1     -20.943  91.840  -5.207  0.00  0.00    +0.000 C 
BRANCH  40  41
ATOM     41  C   UNL     1     -21.240  93.147  -5.947  0.00  0.00    +0.000 C 
BRANCH  41  42
ATOM     42  C   UNL     1     -20.661  93.185  -7.364  0.00  0.00    +0.000 C 
BRANCH  42  43
ATOM     43  C   UNL     1     -19.641  94.294  -7.638  0.00  0.00    +0.000 C 
BRANCH  43  44
ATOM     44  C   UNL     1     -18.213  94.010  -7.162  0.00  0.00    +0.000 C 
BRANCH  44  45
ATOM     45  C   UNL     1     -17.749  92.557  -7.291  0.00  0.00    +0.000 C 
BRANCH  45  46
ATOM     46  C   UNL     1     -17.294  91.886  -5.994  0.00  0.00    +0.000 C 
ATOM     47  C   UNL     1     -17.384  92.795  -4.778  0.00  0.00    +0.000 C 
ENDBRANCH  45  46
ENDBRANCH  44  45
ENDBRANCH  43  44
ENDBRANCH  42  43
ENDBRANCH  41  42
ENDBRANCH  40  41
ENDBRANCH  39  40
ENDBRANCH  38  39
ENDBRANCH  37  38
ENDBRANCH  36  37
ENDBRANCH  35  36
ENDBRANCH  34  35
ENDBRANCH  32  34
ENDBRANCH   6  32
TORSDOF 20
ENDMDL
MODEL 4
REMARK VINA RESULT:      -4.2     10.739     16.281
REMARK  Name = 27924_Phorbol.pdbqt.pdb
REMARK  26 active torsions:
REMARK  status: ('A' for Active; 'I' for Inactive)
REMARK    1  A    between atoms: O_1  and  C_10
REMARK    2  A    between atoms: O_1  and  C_26
REMARK    3  A    between atoms: O_2  and  C_13
REMARK    4  A    between atoms: O_2  and  C_28
REMARK    5  A    between atoms: O_3  and  C_14
REMARK    6  A    between atoms: O_4  and  C_20
REMARK    7  A    between atoms: O_7  and  C_29
REMARK    8  A    between atoms: C_11  and  C_16
REMARK    9  A    between atoms: C_11  and  C_17
REMARK   10  A    between atoms: C_15  and  C_21
REMARK   11  A    between atoms: C_22  and  C_29
REMARK   12  A    between atoms: C_26  and  C_30
REMARK   13  A    between atoms: C_27  and  C_31
REMARK   14  A    between atoms: C_28  and  C_32
REMARK   15  A    between atoms: C_32  and  C_33
REMARK   16  A    between atoms: C_33  and  C_34
REMARK   17  A    between atoms: C_34  and  C_35
REMARK   18  A    between atoms: C_35  and  C_36
REMARK   19  A    between atoms: C_36  and  C_37
REMARK   20  A    between atoms: C_37  and  C_38
REMARK   21  A    between atoms: C_38  and  C_39
REMARK   22  A    between atoms: C_39  and  C_40
REMARK   23  A    between atoms: C_40  and  C_41
REMARK   24  A    between atoms: C_41  and  C_42
REMARK   25  A    between atoms: C_42  and  C_43
REMARK   26  A    between atoms: C_43  and  C_44
REMARK                            x       y       z     vdW  Elec       q    Type
REMARK                         _______ _______ _______ _____ _____    ______ ____
ROOT
ATOM      1  O   UNL     1     -24.825 103.811   0.843  0.00  0.00    +0.000 OA
ATOM      2  C   UNL     1     -21.355 101.919   6.737  0.00  0.00    +0.000 C 
ATOM      3  C   UNL     1     -21.119 102.939   7.834  0.00  0.00    +0.000 C 
ATOM      4  C   UNL     1     -19.949 102.452   6.931  0.00  0.00    +0.000 C 
ATOM      5  C   UNL     1     -22.361 102.173   5.655  0.00  0.00    +0.000 C 
ATOM      6  C   UNL     1     -21.813 104.305   7.684  0.00  0.00    +0.000 C 
ATOM      7  C   UNL     1     -22.880 103.669   5.444  0.00  0.00    +0.000 C 
ATOM      8  C   UNL     1     -23.172 104.178   6.911  0.00  0.00    +0.000 C 
ATOM      9  C   UNL     1     -18.962 101.427   7.464  0.00  0.00    +0.000 C 
ATOM     10  C   UNL     1     -19.307 103.346   5.900  0.00  0.00    +0.000 C 
ATOM     11  C   UNL     1     -24.087 103.651   4.375  0.00  0.00    +0.000 C 
ATOM     12  C   UNL     1     -22.041 101.461   4.353  0.00  0.00    +0.000 C 
ATOM     13  C   UNL     1     -23.674 103.212   2.900  0.00  0.00    +0.000 C 
ATOM     14  C   UNL     1     -23.969 105.478   7.020  0.00  0.00    +0.000 C 
ATOM     15  C   UNL     1     -23.085 100.890   3.714  0.00  0.00    +0.000 C 
ATOM     16  C   UNL     1     -23.715 101.699   2.594  0.00  0.00    +0.000 C 
ATOM     17  C   UNL     1     -24.840 104.938   4.065  0.00  0.00    +0.000 C 
ATOM     18  C   UNL     1     -24.643 103.991   2.038  0.00  0.00    +0.000 C 
ATOM     19  C   UNL     1     -25.220 105.110   2.792  0.00  0.00    +0.000 C 
ATOM     20  C   UNL     1     -26.027 106.176   2.161  0.00  0.00    +0.000 C 
ENDROOT
BRANCH   7  21
ATOM     21  O   UNL     1     -21.858 104.527   4.921  0.00  0.00    +0.000 OA
ATOM     22  H   UNL     1     -21.247 104.752   5.658  0.00  0.00    +0.000 HD
ENDBRANCH   7  21
BRANCH  13  23
ATOM     23  O   UNL     1     -22.383 103.755   2.528  0.00  0.00    +0.000 OA
ATOM     24  H   UNL     1     -22.478 104.069   1.605  0.00  0.00    +0.000 HD
ENDBRANCH  13  23
BRANCH   3  25
ATOM     25  O   UNL     1     -21.306 102.314   9.131  0.00  0.00    +0.000 OA
BRANCH  25  27
ATOM     26  O   UNL     1     -23.318 101.317   9.088  0.00  0.00    +0.000 OA
ATOM     27  C   UNL     1     -22.123 101.258   9.373  0.00  0.00    +0.000 C 
ATOM     28  C   UNL     1     -21.527  99.993   9.915  0.00  0.00    +0.000 C 
ENDBRANCH  25  27
ENDBRANCH   3  25
BRANCH  15  29
ATOM     29  C   UNL     1     -23.989  99.867   4.350  0.00  0.00    +0.000 C 
BRANCH  29  30
ATOM     30  O   UNL     1     -25.298 100.053   3.838  0.00  0.00    +0.000 OA
ATOM     31  H   UNL     1     -25.656  99.165   3.656  0.00  0.00    +0.000 HD
ENDBRANCH  29  30
ENDBRANCH  15  29
BRANCH   6  32
ATOM     32  O   UNL     1     -22.049 104.836   9.016  0.00  0.00    +0.000 OA
BRANCH  32  34
ATOM     33  O   UNL     1     -20.224 105.750   9.930  0.00  0.00    +0.000 OA
ATOM     34  C   UNL     1     -21.392 105.879   9.575  0.00  0.00    +0.000 C 
BRANCH  34  35
ATOM     35  C   UNL     1     -22.109 107.194   9.754  0.00  0.00    +0.000 C 
BRANCH  35  36
ATOM     36  C   UNL     1     -21.933 108.101   8.541  0.00  0.00    +0.000 C 
BRANCH  36  37
ATOM     37  C   UNL     1     -22.905 109.286   8.497  0.00  0.00    +0.000 C 
BRANCH  37  38
ATOM     38  C   UNL     1     -24.078 109.108   7.525  0.00  0.00    +0.000 C 
BRANCH  38  39
ATOM     39  C   UNL     1     -23.772 109.662   6.129  0.00  0.00    +0.000 C 
BRANCH  39  40
ATOM     40  C   UNL     1     -23.925 108.625   5.013  0.00  0.00    +0.000 C 
BRANCH  40  41
ATOM     41  C   UNL     1     -22.617 107.902   4.683  0.00  0.00    +0.000 C 
BRANCH  41  42
ATOM     42  C   UNL     1     -22.436 107.629   3.187  0.00  0.00    +0.000 C 
BRANCH  42  43
ATOM     43  C   UNL     1     -21.007 107.763   2.653  0.00  0.00    +0.000 C 
BRANCH  43  44
ATOM     44  C   UNL     1     -20.134 106.510   2.777  0.00  0.00    +0.000 C 
BRANCH  44  45
ATOM     45  C   UNL     1     -18.851 106.675   3.596  0.00  0.00    +0.000 C 
BRANCH  45  46
ATOM     46  C   UNL     1     -18.921 107.680   4.748  0.00  0.00    +0.000 C 
ATOM     47  C   UNL     1     -19.324 107.054   6.074  0.00  0.00    +0.000 C 
ENDBRANCH  45  46
ENDBRANCH  44  45
ENDBRANCH  43  44
ENDBRANCH  42  43
ENDBRANCH  41  42
ENDBRANCH  40  41
ENDBRANCH  39  40
ENDBRANCH  38  39
ENDBRANCH  37  38
ENDBRANCH  36  37
ENDBRANCH  35  36
ENDBRANCH  34  35
ENDBRANCH  32  34
ENDBRANCH   6  32
TORSDOF 20
ENDMDL
MODEL 5
REMARK VINA RESULT:      -4.2     10.688     14.453
REMARK  Name = 27924_Phorbol.pdbqt.pdb
REMARK  26 active torsions:
REMARK  status: ('A' for Active; 'I' for Inactive)
REMARK    1  A    between atoms: O_1  and  C_10
REMARK    2  A    between atoms: O_1  and  C_26
REMARK    3  A    between atoms: O_2  and  C_13
REMARK    4  A    between atoms: O_2  and  C_28
REMARK    5  A    between atoms: O_3  and  C_14
REMARK    6  A    between atoms: O_4  and  C_20
REMARK    7  A    between atoms: O_7  and  C_29
REMARK    8  A    between atoms: C_11  and  C_16
REMARK    9  A    between atoms: C_11  and  C_17
REMARK   10  A    between atoms: C_15  and  C_21
REMARK   11  A    between atoms: C_22  and  C_29
REMARK   12  A    between atoms: C_26  and  C_30
REMARK   13  A    between atoms: C_27  and  C_31
REMARK   14  A    between atoms: C_28  and  C_32
REMARK   15  A    between atoms: C_32  and  C_33
REMARK   16  A    between atoms: C_33  and  C_34
REMARK   17  A    between atoms: C_34  and  C_35
REMARK   18  A    between atoms: C_35  and  C_36
REMARK   19  A    between atoms: C_36  and  C_37
REMARK   20  A    between atoms: C_37  and  C_38
REMARK   21  A    between atoms: C_38  and  C_39
REMARK   22  A    between atoms: C_39  and  C_40
REMARK   23  A    between atoms: C_40  and  C_41
REMARK   24  A    between atoms: C_41  and  C_42
REMARK   25  A    between atoms: C_42  and  C_43
REMARK   26  A    between atoms: C_43  and  C_44
REMARK                            x       y       z     vdW  Elec       q    Type
REMARK                         _______ _______ _______ _____ _____    ______ ____
ROOT
ATOM      1  O   UNL     1     -28.804 104.506 -14.246  0.00  0.00    +0.000 OA
ATOM      2  C   UNL     1     -23.862 102.877  -9.421  0.00  0.00    +0.000 C 
ATOM      3  C   UNL     1     -23.903 103.525  -8.049  0.00  0.00    +0.000 C 
ATOM      4  C   UNL     1     -22.822 103.930  -9.092  0.00  0.00    +0.000 C 
ATOM      5  C   UNL     1     -25.054 102.925 -10.329  0.00  0.00    +0.000 C 
ATOM      6  C   UNL     1     -25.140 104.379  -7.714  0.00  0.00    +0.000 C 
ATOM      7  C   UNL     1     -26.203 103.987 -10.011  0.00  0.00    +0.000 C 
ATOM      8  C   UNL     1     -26.421 103.853  -8.452  0.00  0.00    +0.000 C 
ATOM      9  C   UNL     1     -21.408 103.389  -8.959  0.00  0.00    +0.000 C 
ATOM     10  C   UNL     1     -22.832 105.274  -9.776  0.00  0.00    +0.000 C 
ATOM     11  C   UNL     1     -27.451 103.709 -10.994  0.00  0.00    +0.000 C 
ATOM     12  C   UNL     1     -24.694 102.855 -11.802  0.00  0.00    +0.000 C 
ATOM     13  C   UNL     1     -27.158 103.961 -12.539  0.00  0.00    +0.000 C 
ATOM     14  C   UNL     1     -27.672 104.530  -7.891  0.00  0.00    +0.000 C 
ATOM     15  C   UNL     1     -25.478 102.069 -12.571  0.00  0.00    +0.000 C 
ATOM     16  C   UNL     1     -26.587 102.767 -13.337  0.00  0.00    +0.000 C 
ATOM     17  C   UNL     1     -28.733 104.515 -10.834  0.00  0.00    +0.000 C 
ATOM     18  C   UNL     1     -28.508 104.400 -13.065  0.00  0.00    +0.000 C 
ATOM     19  C   UNL     1     -29.371 104.844 -11.965  0.00  0.00    +0.000 C 
ATOM     20  C   UNL     1     -30.661 105.533 -12.179  0.00  0.00    +0.000 C 
ENDROOT
BRANCH   7  21
ATOM     21  O   UNL     1     -25.771 105.335 -10.238  0.00  0.00    +0.000 OA
ATOM     22  H   UNL     1     -26.239 105.672 -11.035  0.00  0.00    +0.000 HD
ENDBRANCH   7  21
BRANCH  13  23
ATOM     23  O   UNL     1     -26.325 105.129 -12.738  0.00  0.00    +0.000 OA
ATOM     24  H   UNL     1     -26.596 105.775 -12.053  0.00  0.00    +0.000 HD
ENDBRANCH  13  23
BRANCH   3  25
ATOM     25  O   UNL     1     -23.563 102.544  -7.036  0.00  0.00    +0.000 OA
BRANCH  25  27
ATOM     26  O   UNL     1     -25.080 100.891  -6.957  0.00  0.00    +0.000 OA
ATOM     27  C   UNL     1     -23.905 101.231  -7.079  0.00  0.00    +0.000 C 
ATOM     28  C   UNL     1     -22.839 100.216  -7.360  0.00  0.00    +0.000 C 
ENDBRANCH  25  27
ENDBRANCH   3  25
BRANCH  15  29
ATOM     29  C   UNL     1     -25.714 100.607 -12.296  0.00  0.00    +0.000 C 
BRANCH  29  30
ATOM     30  O   UNL     1     -27.059 100.445 -11.881  0.00  0.00    +0.000 OA
ATOM     31  H   UNL     1     -27.497 101.305 -12.011  0.00  0.00    +0.000 HD
ENDBRANCH  29  30
ENDBRANCH  15  29
BRANCH   6  32
ATOM     32  O   UNL     1     -25.341 104.329  -6.275  0.00  0.00    +0.000 OA
BRANCH  32  34
ATOM     33  O   UNL     1     -25.458 105.298  -4.263  0.00  0.00    +0.000 OA
ATOM     34  C   UNL     1     -24.986 105.295  -5.397  0.00  0.00    +0.000 C 
BRANCH  34  35
ATOM     35  C   UNL     1     -24.010 106.362  -5.826  0.00  0.00    +0.000 C 
BRANCH  35  36
ATOM     36  C   UNL     1     -22.571 105.864  -5.770  0.00  0.00    +0.000 C 
BRANCH  36  37
ATOM     37  C   UNL     1     -22.095 105.473  -4.366  0.00  0.00    +0.000 C 
BRANCH  37  38
ATOM     38  C   UNL     1     -21.840 103.971  -4.179  0.00  0.00    +0.000 C 
BRANCH  38  39
ATOM     39  C   UNL     1     -21.942 103.538  -2.713  0.00  0.00    +0.000 C 
BRANCH  39  40
ATOM     40  C   UNL     1     -23.267 103.928  -2.051  0.00  0.00    +0.000 C 
BRANCH  40  41
ATOM     41  C   UNL     1     -23.784 102.869  -1.073  0.00  0.00    +0.000 C 
BRANCH  41  42
ATOM     42  C   UNL     1     -23.966 103.399   0.352  0.00  0.00    +0.000 C 
BRANCH  42  43
ATOM     43  C   UNL     1     -25.018 104.498   0.525  0.00  0.00    +0.000 C 
BRANCH  43  44
ATOM     44  C   UNL     1     -25.096 105.126   1.920  0.00  0.00    +0.000 C 
BRANCH  44  45
ATOM     45  C   UNL     1     -23.978 104.727   2.888  0.00  0.00    +0.000 C 
BRANCH  45  46
ATOM     46  C   UNL     1     -24.406 103.875   4.085  0.00  0.00    +0.000 C 
ATOM     47  C   UNL     1     -24.729 102.435   3.718  0.00  0.00    +0.000 C 
ENDBRANCH  45  46
ENDBRANCH  44  45
ENDBRANCH  43  44
ENDBRANCH  42  43
ENDBRANCH  41  42
ENDBRANCH  40  41
ENDBRANCH  39  40
ENDBRANCH  38  39
ENDBRANCH  37  38
ENDBRANCH  36  37
ENDBRANCH  35  36
ENDBRANCH  34  35
ENDBRANCH  32  34
ENDBRANCH   6  32
TORSDOF 20
ENDMDL
MODEL 6
REMARK VINA RESULT:      -4.1     21.417     25.019
REMARK  Name = 27924_Phorbol.pdbqt.pdb
REMARK  26 active torsions:
REMARK  status: ('A' for Active; 'I' for Inactive)
REMARK    1  A    between atoms: O_1  and  C_10
REMARK    2  A    between atoms: O_1  and  C_26
REMARK    3  A    between atoms: O_2  and  C_13
REMARK    4  A    between atoms: O_2  and  C_28
REMARK    5  A    between atoms: O_3  and  C_14
REMARK    6  A    between atoms: O_4  and  C_20
REMARK    7  A    between atoms: O_7  and  C_29
REMARK    8  A    between atoms: C_11  and  C_16
REMARK    9  A    between atoms: C_11  and  C_17
REMARK   10  A    between atoms: C_15  and  C_21
REMARK   11  A    between atoms: C_22  and  C_29
REMARK   12  A    between atoms: C_26  and  C_30
REMARK   13  A    between atoms: C_27  and  C_31
REMARK   14  A    between atoms: C_28  and  C_32
REMARK   15  A    between atoms: C_32  and  C_33
REMARK   16  A    between atoms: C_33  and  C_34
REMARK   17  A    between atoms: C_34  and  C_35
REMARK   18  A    between atoms: C_35  and  C_36
REMARK   19  A    between atoms: C_36  and  C_37
REMARK   20  A    between atoms: C_37  and  C_38
REMARK   21  A    between atoms: C_38  and  C_39
REMARK   22  A    between atoms: C_39  and  C_40
REMARK   23  A    between atoms: C_40  and  C_41
REMARK   24  A    between atoms: C_41  and  C_42
REMARK   25  A    between atoms: C_42  and  C_43
REMARK   26  A    between atoms: C_43  and  C_44
REMARK                            x       y       z     vdW  Elec       q    Type
REMARK                         _______ _______ _______ _____ _____    ______ ____
ROOT
ATOM      1  O   UNL     1     -28.409  86.142 -12.606  0.00  0.00    +0.000 OA
ATOM      2  C   UNL     1     -27.016  86.894  -5.688  0.00  0.00    +0.000 C 
ATOM      3  C   UNL     1     -25.604  86.682  -5.175  0.00  0.00    +0.000 C 
ATOM      4  C   UNL     1     -26.723  85.641  -4.886  0.00  0.00    +0.000 C 
ATOM      5  C   UNL     1     -27.282  87.083  -7.152  0.00  0.00    +0.000 C 
ATOM      6  C   UNL     1     -24.497  86.488  -6.227  0.00  0.00    +0.000 C 
ATOM      7  C   UNL     1     -26.138  86.666  -8.186  0.00  0.00    +0.000 C 
ATOM      8  C   UNL     1     -24.820  87.264  -7.552  0.00  0.00    +0.000 C 
ATOM      9  C   UNL     1     -27.386  85.606  -3.520  0.00  0.00    +0.000 C 
ATOM     10  C   UNL     1     -26.739  84.280  -5.537  0.00  0.00    +0.000 C 
ATOM     11  C   UNL     1     -26.576  87.147  -9.662  0.00  0.00    +0.000 C 
ATOM     12  C   UNL     1     -28.667  86.633  -7.577  0.00  0.00    +0.000 C 
ATOM     13  C   UNL     1     -27.864  86.420 -10.252  0.00  0.00    +0.000 C 
ATOM     14  C   UNL     1     -23.593  87.290  -8.464  0.00  0.00    +0.000 C 
ATOM     15  C   UNL     1     -29.315  87.438  -8.446  0.00  0.00    +0.000 C 
ATOM     16  C   UNL     1     -29.230  87.055  -9.913  0.00  0.00    +0.000 C 
ATOM     17  C   UNL     1     -25.614  86.969 -10.830  0.00  0.00    +0.000 C 
ATOM     18  C   UNL     1     -27.592  86.420 -11.741  0.00  0.00    +0.000 C 
ATOM     19  C   UNL     1     -26.166  86.638 -12.005  0.00  0.00    +0.000 C 
ATOM     20  C   UNL     1     -25.559  86.473 -13.343  0.00  0.00    +0.000 C 
ENDROOT
BRANCH   7  21
ATOM     21  O   UNL     1     -25.947  85.247  -8.237  0.00  0.00    +0.000 OA
ATOM     22  H   UNL     1     -26.714  84.822  -7.793  0.00  0.00    +0.000 HD
ENDBRANCH   7  21
BRANCH  13  23
ATOM     23  O   UNL     1     -27.879  85.011  -9.914  0.00  0.00    +0.000 OA
ATOM     24  H   UNL     1     -28.390  84.568 -10.623  0.00  0.00    +0.000 HD
ENDBRANCH  13  23
BRANCH   3  25
ATOM     25  O   UNL     1     -25.299  87.677  -4.163  0.00  0.00    +0.000 OA
BRANCH  25  27
ATOM     26  O   UNL     1     -26.632  89.209  -3.206  0.00  0.00    +0.000 OA
ATOM     27  C   UNL     1     -25.845  88.918  -4.104  0.00  0.00    +0.000 C 
ATOM     28  C   UNL     1     -25.407  89.947  -5.102  0.00  0.00    +0.000 C 
ENDBRANCH  25  27
ENDBRANCH   3  25
BRANCH  15  29
ATOM     29  C   UNL     1     -29.590  88.895  -8.182  0.00  0.00    +0.000 C 
BRANCH  29  30
ATOM     30  O   UNL     1     -28.715  89.665  -8.988  0.00  0.00    +0.000 OA
ATOM     31  H   UNL     1     -27.905  89.137  -9.105  0.00  0.00    +0.000 HD
ENDBRANCH  29  30
ENDBRANCH  15  29
BRANCH   6  32
ATOM     32  O   UNL     1     -23.250  86.975  -5.659  0.00  0.00    +0.000 OA
BRANCH  32  34
ATOM     33  O   UNL     1     -22.584  85.593  -4.032  0.00  0.00    +0.000 OA
ATOM     34  C   UNL     1     -22.310  86.212  -5.058  0.00  0.00    +0.000 C 
BRANCH  34  35
ATOM     35  C   UNL     1     -20.928  86.130  -5.657  0.00  0.00    +0.000 C 
BRANCH  35  36
ATOM     36  C   UNL     1     -20.936  85.404  -6.997  0.00  0.00    +0.000 C 
BRANCH  36  37
ATOM     37  C   UNL     1     -21.499  83.980  -6.935  0.00  0.00    +0.000 C 
BRANCH  37  38
ATOM     38  C   UNL     1     -22.718  83.740  -7.837  0.00  0.00    +0.000 C 
BRANCH  38  39
ATOM     39  C   UNL     1     -22.573  82.479  -8.696  0.00  0.00    +0.000 C 
BRANCH  39  40
ATOM     40  C   UNL     1     -22.554  82.763 -10.200  0.00  0.00    +0.000 C 
BRANCH  40  41
ATOM     41  C   UNL     1     -23.362  84.004 -10.587  0.00  0.00    +0.000 C 
BRANCH  41  42
ATOM     42  C   UNL     1     -22.530  85.070 -11.305  0.00  0.00    +0.000 C 
BRANCH  42  43
ATOM     43  C   UNL     1     -21.041  84.752 -11.471  0.00  0.00    +0.000 C 
BRANCH  43  44
ATOM     44  C   UNL     1     -20.088  85.569 -10.592  0.00  0.00    +0.000 C 
BRANCH  44  45
ATOM     45  C   UNL     1     -18.925  84.789  -9.973  0.00  0.00    +0.000 C 
BRANCH  45  46
ATOM     46  C   UNL     1     -18.912  83.283 -10.249  0.00  0.00    +0.000 C 
ATOM     47  C   UNL     1     -18.811  82.438  -8.989  0.00  0.00    +0.000 C 
ENDBRANCH  45  46
ENDBRANCH  44  45
ENDBRANCH  43  44
ENDBRANCH  42  43
ENDBRANCH  41  42
ENDBRANCH  40  41
ENDBRANCH  39  40
ENDBRANCH  38  39
ENDBRANCH  37  38
ENDBRANCH  36  37
ENDBRANCH  35  36
ENDBRANCH  34  35
ENDBRANCH  32  34
ENDBRANCH   6  32
TORSDOF 20
ENDMDL
MODEL 7
REMARK VINA RESULT:      -3.9     15.828     21.405
REMARK  Name = 27924_Phorbol.pdbqt.pdb
REMARK  26 active torsions:
REMARK  status: ('A' for Active; 'I' for Inactive)
REMARK    1  A    between atoms: O_1  and  C_10
REMARK    2  A    between atoms: O_1  and  C_26
REMARK    3  A    between atoms: O_2  and  C_13
REMARK    4  A    between atoms: O_2  and  C_28
REMARK    5  A    between atoms: O_3  and  C_14
REMARK    6  A    between atoms: O_4  and  C_20
REMARK    7  A    between atoms: O_7  and  C_29
REMARK    8  A    between atoms: C_11  and  C_16
REMARK    9  A    between atoms: C_11  and  C_17
REMARK   10  A    between atoms: C_15  and  C_21
REMARK   11  A    between atoms: C_22  and  C_29
REMARK   12  A    between atoms: C_26  and  C_30
REMARK   13  A    between atoms: C_27  and  C_31
REMARK   14  A    between atoms: C_28  and  C_32
REMARK   15  A    between atoms: C_32  and  C_33
REMARK   16  A    between atoms: C_33  and  C_34
REMARK   17  A    between atoms: C_34  and  C_35
REMARK   18  A    between atoms: C_35  and  C_36
REMARK   19  A    between atoms: C_36  and  C_37
REMARK   20  A    between atoms: C_37  and  C_38
REMARK   21  A    between atoms: C_38  and  C_39
REMARK   22  A    between atoms: C_39  and  C_40
REMARK   23  A    between atoms: C_40  and  C_41
REMARK   24  A    between atoms: C_41  and  C_42
REMARK   25  A    between atoms: C_42  and  C_43
REMARK   26  A    between atoms: C_43  and  C_44
REMARK                            x       y       z     vdW  Elec       q    Type
REMARK                         _______ _______ _______ _____ _____    ______ ____
ROOT
ATOM      1  O   UNL     1     -46.082  96.103  19.880  0.00  0.00    +0.000 OA
ATOM      2  C   UNL     1     -41.487 101.483  19.341  0.00  0.00    +0.000 C 
ATOM      3  C   UNL     1     -41.303 102.188  18.010  0.00  0.00    +0.000 C 
ATOM      4  C   UNL     1     -40.203 101.242  18.572  0.00  0.00    +0.000 C 
ATOM      5  C   UNL     1     -42.669 100.594  19.582  0.00  0.00    +0.000 C 
ATOM      6  C   UNL     1     -42.271 101.808  16.875  0.00  0.00    +0.000 C 
ATOM      7  C   UNL     1     -43.502 100.086  18.317  0.00  0.00    +0.000 C 
ATOM      8  C   UNL     1     -43.675 101.384  17.433  0.00  0.00    +0.000 C 
ATOM      9  C   UNL     1     -38.964 101.830  19.226  0.00  0.00    +0.000 C 
ATOM     10  C   UNL     1     -39.910  99.898  17.951  0.00  0.00    +0.000 C 
ATOM     11  C   UNL     1     -44.823  99.324  18.840  0.00  0.00    +0.000 C 
ATOM     12  C   UNL     1     -42.406  99.502  20.603  0.00  0.00    +0.000 C 
ATOM     13  C   UNL     1     -44.548  97.976  19.642  0.00  0.00    +0.000 C 
ATOM     14  C   UNL     1     -44.691 101.287  16.294  0.00  0.00    +0.000 C 
ATOM     15  C   UNL     1     -43.396  99.264  21.490  0.00  0.00    +0.000 C 
ATOM     16  C   UNL     1     -44.330  98.112  21.165  0.00  0.00    +0.000 C 
ATOM     17  C   UNL     1     -45.855  98.826  17.836  0.00  0.00    +0.000 C 
ATOM     18  C   UNL     1     -45.769  97.141  19.317  0.00  0.00    +0.000 C 
ATOM     19  C   UNL     1     -46.442  97.657  18.120  0.00  0.00    +0.000 C 
ATOM     20  C   UNL     1     -47.529  96.930  17.430  0.00  0.00    +0.000 C 
ENDROOT
BRANCH   7  21
ATOM     21  O   UNL     1     -42.759  99.156  17.518  0.00  0.00    +0.000 OA
ATOM     22  H   UNL     1     -41.805  99.280  17.720  0.00  0.00    +0.000 HD
ENDBRANCH   7  21
BRANCH  13  23
ATOM     23  O   UNL     1     -43.460  97.221  19.055  0.00  0.00    +0.000 OA
ATOM     24  H   UNL     1     -43.771  96.293  19.004  0.00  0.00    +0.000 HD
ENDBRANCH  13  23
BRANCH   3  25
ATOM     25  O   UNL     1     -41.171 103.617  18.229  0.00  0.00    +0.000 OA
BRANCH  25  27
ATOM     26  O   UNL     1     -41.175 104.698  20.198  0.00  0.00    +0.000 OA
ATOM     27  C   UNL     1     -41.799 104.313  19.211  0.00  0.00    +0.000 C 
ATOM     28  C   UNL     1     -43.242 104.675  19.029  0.00  0.00    +0.000 C 
ENDBRANCH  25  27
ENDBRANCH   3  25
BRANCH  15  29
ATOM     29  C   UNL     1     -43.975 100.322  22.392  0.00  0.00    +0.000 C 
BRANCH  29  30
ATOM     30  O   UNL     1     -45.143  99.796  23.000  0.00  0.00    +0.000 OA
ATOM     31  H   UNL     1     -45.159 100.134  23.913  0.00  0.00    +0.000 HD
ENDBRANCH  29  30
ENDBRANCH  15  29
BRANCH   6  32
ATOM     32  O   UNL     1     -42.412 102.963  16.002  0.00  0.00    +0.000 OA
BRANCH  32  34
ATOM     33  O   UNL     1     -42.166 103.983  14.028  0.00  0.00    +0.000 OA
ATOM     34  C   UNL     1     -41.759 103.148  14.833  0.00  0.00    +0.000 C 
BRANCH  34  35
ATOM     35  C   UNL     1     -40.533 102.323  14.530  0.00  0.00    +0.000 C 
BRANCH  35  36
ATOM     36  C   UNL     1     -39.256 103.146  14.652  0.00  0.00    +0.000 C 
BRANCH  36  37
ATOM     37  C   UNL     1     -38.252 102.600  15.673  0.00  0.00    +0.000 C 
BRANCH  37  38
ATOM     38  C   UNL     1     -36.905 103.335  15.694  0.00  0.00    +0.000 C 
BRANCH  38  39
ATOM     39  C   UNL     1     -36.373 103.623  14.287  0.00  0.00    +0.000 C 
BRANCH  39  40
ATOM     40  C   UNL     1     -34.872 103.362  14.135  0.00  0.00    +0.000 C 
BRANCH  40  41
ATOM     41  C   UNL     1     -34.536 102.465  12.940  0.00  0.00    +0.000 C 
BRANCH  41  42
ATOM     42  C   UNL     1     -33.937 101.116  13.345  0.00  0.00    +0.000 C 
BRANCH  42  43
ATOM     43  C   UNL     1     -34.552 100.458  14.584  0.00  0.00    +0.000 C 
BRANCH  43  44
ATOM     44  C   UNL     1     -35.458  99.253  14.311  0.00  0.00    +0.000 C 
BRANCH  44  45
ATOM     45  C   UNL     1     -36.880  99.355  14.872  0.00  0.00    +0.000 C 
BRANCH  45  46
ATOM     46  C   UNL     1     -37.999  99.450  13.833  0.00  0.00    +0.000 C 
ATOM     47  C   UNL     1     -37.670 100.373  12.670  0.00  0.00    +0.000 C 
ENDBRANCH  45  46
ENDBRANCH  44  45
ENDBRANCH  43  44
ENDBRANCH  42  43
ENDBRANCH  41  42
ENDBRANCH  40  41
ENDBRANCH  39  40
ENDBRANCH  38  39
ENDBRANCH  37  38
ENDBRANCH  36  37
ENDBRANCH  35  36
ENDBRANCH  34  35
ENDBRANCH  32  34
ENDBRANCH   6  32
TORSDOF 20
ENDMDL
MODEL 8
REMARK VINA RESULT:      -3.9     22.505     25.244
REMARK  Name = 27924_Phorbol.pdbqt.pdb
REMARK  26 active torsions:
REMARK  status: ('A' for Active; 'I' for Inactive)
REMARK    1  A    between atoms: O_1  and  C_10
REMARK    2  A    between atoms: O_1  and  C_26
REMARK    3  A    between atoms: O_2  and  C_13
REMARK    4  A    between atoms: O_2  and  C_28
REMARK    5  A    between atoms: O_3  and  C_14
REMARK    6  A    between atoms: O_4  and  C_20
REMARK    7  A    between atoms: O_7  and  C_29
REMARK    8  A    between atoms: C_11  and  C_16
REMARK    9  A    between atoms: C_11  and  C_17
REMARK   10  A    between atoms: C_15  and  C_21
REMARK   11  A    between atoms: C_22  and  C_29
REMARK   12  A    between atoms: C_26  and  C_30
REMARK   13  A    between atoms: C_27  and  C_31
REMARK   14  A    between atoms: C_28  and  C_32
REMARK   15  A    between atoms: C_32  and  C_33
REMARK   16  A    between atoms: C_33  and  C_34
REMARK   17  A    between atoms: C_34  and  C_35
REMARK   18  A    between atoms: C_35  and  C_36
REMARK   19  A    between atoms: C_36  and  C_37
REMARK   20  A    between atoms: C_37  and  C_38
REMARK   21  A    between atoms: C_38  and  C_39
REMARK   22  A    between atoms: C_39  and  C_40
REMARK   23  A    between atoms: C_40  and  C_41
REMARK   24  A    between atoms: C_41  and  C_42
REMARK   25  A    between atoms: C_42  and  C_43
REMARK   26  A    between atoms: C_43  and  C_44
REMARK                            x       y       z     vdW  Elec       q    Type
REMARK                         _______ _______ _______ _____ _____    ______ ____
ROOT
ATOM      1  O   UNL     1     -27.589  88.890  -5.828  0.00  0.00    +0.000 OA
ATOM      2  C   UNL     1     -22.581  84.324  -3.725  0.00  0.00    +0.000 C 
ATOM      3  C   UNL     1     -22.978  83.039  -3.022  0.00  0.00    +0.000 C 
ATOM      4  C   UNL     1     -22.312  84.206  -2.238  0.00  0.00    +0.000 C 
ATOM      5  C   UNL     1     -23.594  85.132  -4.478  0.00  0.00    +0.000 C 
ATOM      6  C   UNL     1     -24.480  82.707  -2.963  0.00  0.00    +0.000 C 
ATOM      7  C   UNL     1     -25.142  84.848  -4.203  0.00  0.00    +0.000 C 
ATOM      8  C   UNL     1     -25.244  83.272  -4.212  0.00  0.00    +0.000 C 
ATOM      9  C   UNL     1     -20.839  84.126  -1.875  0.00  0.00    +0.000 C 
ATOM     10  C   UNL     1     -23.078  85.040  -1.240  0.00  0.00    +0.000 C 
ATOM     11  C   UNL     1     -26.018  85.688  -5.265  0.00  0.00    +0.000 C 
ATOM     12  C   UNL     1     -23.259  86.611  -4.545  0.00  0.00    +0.000 C 
ATOM     13  C   UNL     1     -25.920  87.271  -5.116  0.00  0.00    +0.000 C 
ATOM     14  C   UNL     1     -26.658  82.694  -4.274  0.00  0.00    +0.000 C 
ATOM     15  C   UNL     1     -23.467  87.217  -5.734  0.00  0.00    +0.000 C 
ATOM     16  C   UNL     1     -24.778  87.967  -5.888  0.00  0.00    +0.000 C 
ATOM     17  C   UNL     1     -27.532  85.520  -5.295  0.00  0.00    +0.000 C 
ATOM     18  C   UNL     1     -27.284  87.733  -5.582  0.00  0.00    +0.000 C 
ATOM     19  C   UNL     1     -28.246  86.626  -5.542  0.00  0.00    +0.000 C 
ATOM     20  C   UNL     1     -29.700  86.814  -5.727  0.00  0.00    +0.000 C 
ENDROOT
BRANCH   7  21
ATOM     21  O   UNL     1     -25.543  85.266  -2.891  0.00  0.00    +0.000 OA
ATOM     22  H   UNL     1     -26.433  84.888  -2.713  0.00  0.00    +0.000 HD
ENDBRANCH   7  21
BRANCH  13  23
ATOM     23  O   UNL     1     -25.888  87.671  -3.724  0.00  0.00    +0.000 OA
ATOM     24  H   UNL     1     -25.170  87.150  -3.308  0.00  0.00    +0.000 HD
ENDBRANCH  13  23
BRANCH   3  25
ATOM     25  O   UNL     1     -22.143  81.949  -3.492  0.00  0.00    +0.000 OA
BRANCH  25  27
ATOM     26  O   UNL     1     -20.423  81.946  -4.936  0.00  0.00    +0.000 OA
ATOM     27  C   UNL     1     -21.634  81.844  -4.745  0.00  0.00    +0.000 C 
ATOM     28  C   UNL     1     -22.562  81.521  -5.877  0.00  0.00    +0.000 C 
ENDBRANCH  25  27
ENDBRANCH   3  25
BRANCH  15  29
ATOM     29  C   UNL     1     -22.839  86.754  -7.022  0.00  0.00    +0.000 C 
BRANCH  29  30
ATOM     30  O   UNL     1     -23.843  86.736  -8.023  0.00  0.00    +0.000 OA
ATOM     31  H   UNL     1     -24.251  85.852  -7.994  0.00  0.00    +0.000 HD
ENDBRANCH  29  30
ENDBRANCH  15  29
BRANCH   6  32
ATOM     32  O   UNL     1     -24.616  81.260  -2.912  0.00  0.00    +0.000 OA
BRANCH  32  34
ATOM     33  O   UNL     1     -24.851  79.316  -1.832  0.00  0.00    +0.000 OA
ATOM     34  C   UNL     1     -24.949  80.540  -1.816  0.00  0.00    +0.000 C 
BRANCH  34  35
ATOM     35  C   UNL     1     -25.439  81.255  -0.582  0.00  0.00    +0.000 C 
BRANCH  35  36
ATOM     36  C   UNL     1     -24.540  80.987   0.619  0.00  0.00    +0.000 C 
BRANCH  36  37
ATOM     37  C   UNL     1     -23.666  82.178   1.028  0.00  0.00    +0.000 C 
BRANCH  37  38
ATOM     38  C   UNL     1     -22.157  81.933   0.894  0.00  0.00    +0.000 C 
BRANCH  38  39
ATOM     39  C   UNL     1     -21.372  82.426   2.114  0.00  0.00    +0.000 C 
BRANCH  39  40
ATOM     40  C   UNL     1     -22.165  83.391   3.001  0.00  0.00    +0.000 C 
BRANCH  40  41
ATOM     41  C   UNL     1     -21.270  84.334   3.811  0.00  0.00    +0.000 C 
BRANCH  41  42
ATOM     42  C   UNL     1     -20.547  85.371   2.948  0.00  0.00    +0.000 C 
BRANCH  42  43
ATOM     43  C   UNL     1     -21.361  85.964   1.795  0.00  0.00    +0.000 C 
BRANCH  43  44
ATOM     44  C   UNL     1     -20.844  87.293   1.235  0.00  0.00    +0.000 C 
BRANCH  44  45
ATOM     45  C   UNL     1     -21.156  88.533   2.078  0.00  0.00    +0.000 C 
BRANCH  45  46
ATOM     46  C   UNL     1     -19.944  89.269   2.653  0.00  0.00    +0.000 C 
ATOM     47  C   UNL     1     -19.731  89.018   4.137  0.00  0.00    +0.000 C 
ENDBRANCH  45  46
ENDBRANCH  44  45
ENDBRANCH  43  44
ENDBRANCH  42  43
ENDBRANCH  41  42
ENDBRANCH  40  41
ENDBRANCH  39  40
ENDBRANCH  38  39
ENDBRANCH  37  38
ENDBRANCH  36  37
ENDBRANCH  35  36
ENDBRANCH  34  35
ENDBRANCH  32  34
ENDBRANCH   6  32
TORSDOF 20
ENDMDL
MODEL 9
REMARK VINA RESULT:      -3.9     22.286     24.748
REMARK  Name = 27924_Phorbol.pdbqt.pdb
REMARK  26 active torsions:
REMARK  status: ('A' for Active; 'I' for Inactive)
REMARK    1  A    between atoms: O_1  and  C_10
REMARK    2  A    between atoms: O_1  and  C_26
REMARK    3  A    between atoms: O_2  and  C_13
REMARK    4  A    between atoms: O_2  and  C_28
REMARK    5  A    between atoms: O_3  and  C_14
REMARK    6  A    between atoms: O_4  and  C_20
REMARK    7  A    between atoms: O_7  and  C_29
REMARK    8  A    between atoms: C_11  and  C_16
REMARK    9  A    between atoms: C_11  and  C_17
REMARK   10  A    between atoms: C_15  and  C_21
REMARK   11  A    between atoms: C_22  and  C_29
REMARK   12  A    between atoms: C_26  and  C_30
REMARK   13  A    between atoms: C_27  and  C_31
REMARK   14  A    between atoms: C_28  and  C_32
REMARK   15  A    between atoms: C_32  and  C_33
REMARK   16  A    between atoms: C_33  and  C_34
REMARK   17  A    between atoms: C_34  and  C_35
REMARK   18  A    between atoms: C_35  and  C_36
REMARK   19  A    between atoms: C_36  and  C_37
REMARK   20  A    between atoms: C_37  and  C_38
REMARK   21  A    between atoms: C_38  and  C_39
REMARK   22  A    between atoms: C_39  and  C_40
REMARK   23  A    between atoms: C_40  and  C_41
REMARK   24  A    between atoms: C_41  and  C_42
REMARK   25  A    between atoms: C_42  and  C_43
REMARK   26  A    between atoms: C_43  and  C_44
REMARK                            x       y       z     vdW  Elec       q    Type
REMARK                         _______ _______ _______ _____ _____    ______ ____
ROOT
ATOM      1  O   UNL     1     -27.523  88.903  -5.766  0.00  0.00    +0.000 OA
ATOM      2  C   UNL     1     -22.428  84.414  -3.702  0.00  0.00    +0.000 C 
ATOM      3  C   UNL     1     -22.800  83.123  -2.998  0.00  0.00    +0.000 C 
ATOM      4  C   UNL     1     -22.147  84.299  -2.217  0.00  0.00    +0.000 C 
ATOM      5  C   UNL     1     -23.460  85.207  -4.448  0.00  0.00    +0.000 C 
ATOM      6  C   UNL     1     -24.296  82.767  -2.929  0.00  0.00    +0.000 C 
ATOM      7  C   UNL     1     -25.001  84.899  -4.162  0.00  0.00    +0.000 C 
ATOM      8  C   UNL     1     -25.078  83.321  -4.171  0.00  0.00    +0.000 C 
ATOM      9  C   UNL     1     -20.670  84.243  -1.865  0.00  0.00    +0.000 C 
ATOM     10  C   UNL     1     -22.918  85.121  -1.214  0.00  0.00    +0.000 C 
ATOM     11  C   UNL     1     -25.898  85.725  -5.217  0.00  0.00    +0.000 C 
ATOM     12  C   UNL     1     -23.148  86.691  -4.516  0.00  0.00    +0.000 C 
ATOM     13  C   UNL     1     -25.824  87.309  -5.067  0.00  0.00    +0.000 C 
ATOM     14  C   UNL     1     -26.483  82.721  -4.224  0.00  0.00    +0.000 C 
ATOM     15  C   UNL     1     -23.374  87.294  -5.703  0.00  0.00    +0.000 C 
ATOM     16  C   UNL     1     -24.698  88.024  -5.847  0.00  0.00    +0.000 C 
ATOM     17  C   UNL     1     -27.409  85.533  -5.236  0.00  0.00    +0.000 C 
ATOM     18  C   UNL     1     -27.198  87.750  -5.523  0.00  0.00    +0.000 C 
ATOM     19  C   UNL     1     -28.142  86.628  -5.477  0.00  0.00    +0.000 C 
ATOM     20  C   UNL     1     -29.600  86.793  -5.651  0.00  0.00    +0.000 C 
ENDROOT
BRANCH   7  21
ATOM     21  O   UNL     1     -25.399  85.309  -2.847  0.00  0.00    +0.000 OA
ATOM     22  H   UNL     1     -25.455  86.290  -2.841  0.00  0.00    +0.000 HD
ENDBRANCH   7  21
BRANCH  13  23
ATOM     23  O   UNL     1     -25.788  87.709  -3.675  0.00  0.00    +0.000 OA
ATOM     24  H   UNL     1     -26.586  88.259  -3.531  0.00  0.00    +0.000 HD
ENDBRANCH  13  23
BRANCH   3  25
ATOM     25  O   UNL     1     -21.951  82.046  -3.475  0.00  0.00    +0.000 OA
BRANCH  25  27
ATOM     26  O   UNL     1     -20.288  82.199  -4.976  0.00  0.00    +0.000 OA
ATOM     27  C   UNL     1     -21.466  81.940  -4.738  0.00  0.00    +0.000 C 
ATOM     28  C   UNL     1     -22.370  81.424  -5.817  0.00  0.00    +0.000 C 
ENDBRANCH  25  27
ENDBRANCH   3  25
BRANCH  15  29
ATOM     29  C   UNL     1     -22.749  86.843  -6.996  0.00  0.00    +0.000 C 
BRANCH  29  30
ATOM     30  O   UNL     1     -23.731  86.921  -8.015  0.00  0.00    +0.000 OA
ATOM     31  H   UNL     1     -23.360  87.483  -8.718  0.00  0.00    +0.000 HD
ENDBRANCH  29  30
ENDBRANCH  15  29
BRANCH   6  32
ATOM     32  O   UNL     1     -24.409  81.318  -2.878  0.00  0.00    +0.000 OA
BRANCH  32  34
ATOM     33  O   UNL     1     -23.882  80.264  -0.977  0.00  0.00    +0.000 OA
ATOM     34  C   UNL     1     -24.746  80.594  -1.786  0.00  0.00    +0.000 C 
BRANCH  34  35
ATOM     35  C   UNL     1     -26.187  80.200  -1.575  0.00  0.00    +0.000 C 
BRANCH  35  36
ATOM     36  C   UNL     1     -26.790  79.578  -2.828  0.00  0.00    +0.000 C 
BRANCH  36  37
ATOM     37  C   UNL     1     -28.288  79.274  -2.720  0.00  0.00    +0.000 C 
BRANCH  37  38
ATOM     38  C   UNL     1     -29.000  79.099  -4.068  0.00  0.00    +0.000 C 
BRANCH  38  39
ATOM     39  C   UNL     1     -30.464  79.548  -4.022  0.00  0.00    +0.000 C 
BRANCH  39  40
ATOM     40  C   UNL     1     -30.640  81.067  -4.105  0.00  0.00    +0.000 C 
BRANCH  40  41
ATOM     41  C   UNL     1     -29.676  81.730  -5.092  0.00  0.00    +0.000 C 
BRANCH  41  42
ATOM     42  C   UNL     1     -30.237  83.008  -5.721  0.00  0.00    +0.000 C 
BRANCH  42  43
ATOM     43  C   UNL     1     -31.754  83.036  -5.933  0.00  0.00    +0.000 C 
BRANCH  43  44
ATOM     44  C   UNL     1     -32.513  84.103  -5.139  0.00  0.00    +0.000 C 
BRANCH  44  45
ATOM     45  C   UNL     1     -31.865  84.532  -3.819  0.00  0.00    +0.000 C 
BRANCH  45  46
ATOM     46  C   UNL     1     -32.738  84.386  -2.571  0.00  0.00    +0.000 C 
ATOM     47  C   UNL     1     -33.293  82.984  -2.380  0.00  0.00    +0.000 C 
ENDBRANCH  45  46
ENDBRANCH  44  45
ENDBRANCH  43  44
ENDBRANCH  42  43
ENDBRANCH  41  42
ENDBRANCH  40  41
ENDBRANCH  39  40
ENDBRANCH  38  39
ENDBRANCH  37  38
ENDBRANCH  36  37
ENDBRANCH  35  36
ENDBRANCH  34  35
ENDBRANCH  32  34
ENDBRANCH   6  32
TORSDOF 20
ENDMDL
