MODEL 1
REMARK VINA RESULT:      -3.6      0.000      0.000
REMARK  Name = 2Methylcholine.pdbqt.pdb
REMARK  3 active torsions:
REMARK  status: ('A' for Active; 'I' for Inactive)
REMARK    1  A    between atoms: C_1  and  N_2
REMARK    2  A    between atoms: C_1  and  C_6
REMARK    3  A    between atoms: C_6  and  O_8
REMARK                            x       y       z     vdW  Elec       q    Type
REMARK                         _______ _______ _______ _____ _____    ______ ____
ROOT
ATOM      1  C   UNL     1     -34.190  98.308 -11.969  0.00  0.00    +0.000 C 
ENDROOT
BRANCH   1   2
ATOM      2  N   UNL     1     -33.626  97.884 -13.235  0.00  0.00    +0.000 N 
ATOM      3  C   UNL     1     -32.226  98.308 -13.325  0.00  0.00    +0.000 C 
ATOM      4  C   UNL     1     -33.695  96.425 -13.350  0.00  0.00    +0.000 C 
ATOM      5  C   UNL     1     -34.379  98.486 -14.339  0.00  0.00    +0.000 C 
ENDBRANCH   1   2
BRANCH   1   6
ATOM      6  C   UNL     1     -34.730  98.692 -10.734  0.00  0.00    +0.000 C 
ATOM      7  C   UNL     1     -35.893  99.607 -10.647  0.00  0.00    +0.000 C 
BRANCH   6   8
ATOM      8  O   UNL     1     -34.219  98.251  -9.552  0.00  0.00    +0.000 OA
ATOM      9  H   UNL     1     -34.573  98.810  -8.834  0.00  0.00    +0.000 HD
ENDBRANCH   6   8
ENDBRANCH   1   6
TORSDOF 3
ENDMDL
MODEL 2
REMARK VINA RESULT:      -3.1     22.264     22.778
REMARK  Name = 2Methylcholine.pdbqt.pdb
REMARK  3 active torsions:
REMARK  status: ('A' for Active; 'I' for Inactive)
REMARK    1  A    between atoms: C_1  and  N_2
REMARK    2  A    between atoms: C_1  and  C_6
REMARK    3  A    between atoms: C_6  and  O_8
REMARK                            x       y       z     vdW  Elec       q    Type
REMARK                         _______ _______ _______ _____ _____    ______ ____
ROOT
ATOM      1  C   UNL     1     -22.422  87.517   3.929  0.00  0.00    +0.000 C 
ENDROOT
BRANCH   1   2
ATOM      2  N   UNL     1     -21.105  87.995   3.555  0.00  0.00    +0.000 N 
ATOM      3  C   UNL     1     -20.172  86.868   3.469  0.00  0.00    +0.000 C 
ATOM      4  C   UNL     1     -21.169  88.667   2.255  0.00  0.00    +0.000 C 
ATOM      5  C   UNL     1     -20.619  88.943   4.560  0.00  0.00    +0.000 C 
ENDBRANCH   1   2
BRANCH   1   6
ATOM      6  C   UNL     1     -23.684  87.038   4.309  0.00  0.00    +0.000 C 
ATOM      7  C   UNL     1     -23.923  86.468   5.656  0.00  0.00    +0.000 C 
BRANCH   6   8
ATOM      8  O   UNL     1     -24.752  87.068   3.466  0.00  0.00    +0.000 OA
ATOM      9  H   UNL     1     -25.241  86.228   3.559  0.00  0.00    +0.000 HD
ENDBRANCH   6   8
ENDBRANCH   1   6
TORSDOF 3
ENDMDL
MODEL 3
REMARK VINA RESULT:      -3.0     20.276     21.239
REMARK  Name = 2Methylcholine.pdbqt.pdb
REMARK  3 active torsions:
REMARK  status: ('A' for Active; 'I' for Inactive)
REMARK    1  A    between atoms: C_1  and  N_2
REMARK    2  A    between atoms: C_1  and  C_6
REMARK    3  A    between atoms: C_6  and  O_8
REMARK                            x       y       z     vdW  Elec       q    Type
REMARK                         _______ _______ _______ _____ _____    ______ ____
ROOT
ATOM      1  C   UNL     1     -23.686 100.636   5.697  0.00  0.00    +0.000 C 
ENDROOT
BRANCH   1   2
ATOM      2  N   UNL     1     -22.684 100.816   6.729  0.00  0.00    +0.000 N 
ATOM      3  C   UNL     1     -21.973 102.080   6.519  0.00  0.00    +0.000 C 
ATOM      4  C   UNL     1     -23.323 100.836   8.047  0.00  0.00    +0.000 C 
ATOM      5  C   UNL     1     -21.722  99.712   6.681  0.00  0.00    +0.000 C 
ENDBRANCH   1   2
BRANCH   1   6
ATOM      6  C   UNL     1     -24.638 100.474   4.680  0.00  0.00    +0.000 C 
ATOM      7  C   UNL     1     -24.486 101.138   3.364  0.00  0.00    +0.000 C 
BRANCH   6   8
ATOM      8  O   UNL     1     -25.748  99.703   4.844  0.00  0.00    +0.000 OA
ATOM      9  H   UNL     1     -25.713  99.299   5.732  0.00  0.00    +0.000 HD
ENDBRANCH   6   8
ENDBRANCH   1   6
TORSDOF 3
ENDMDL
MODEL 4
REMARK VINA RESULT:      -3.0     27.777     28.663
REMARK  Name = 2Methylcholine.pdbqt.pdb
REMARK  3 active torsions:
REMARK  status: ('A' for Active; 'I' for Inactive)
REMARK    1  A    between atoms: C_1  and  N_2
REMARK    2  A    between atoms: C_1  and  C_6
REMARK    3  A    between atoms: C_6  and  O_8
REMARK                            x       y       z     vdW  Elec       q    Type
REMARK                         _______ _______ _______ _____ _____    ______ ____
ROOT
ATOM      1  C   UNL     1     -28.297  87.763  13.852  0.00  0.00    +0.000 C 
ENDROOT
BRANCH   1   2
ATOM      2  N   UNL     1     -28.353  86.521  13.106  0.00  0.00    +0.000 N 
ATOM      3  C   UNL     1     -27.008  86.147  12.658  0.00  0.00    +0.000 C 
ATOM      4  C   UNL     1     -28.893  85.454  13.951  0.00  0.00    +0.000 C 
ATOM      5  C   UNL     1     -29.218  86.687  11.935  0.00  0.00    +0.000 C 
ENDBRANCH   1   2
BRANCH   1   6
ATOM      6  C   UNL     1     -28.265  88.956  14.588  0.00  0.00    +0.000 C 
ATOM      7  C   UNL     1     -28.914  89.064  15.916  0.00  0.00    +0.000 C 
BRANCH   6   8
ATOM      8  O   UNL     1     -27.642  90.075  14.125  0.00  0.00    +0.000 OA
ATOM      9  H   UNL     1     -27.074  90.427  14.837  0.00  0.00    +0.000 HD
ENDBRANCH   6   8
ENDBRANCH   1   6
TORSDOF 3
ENDMDL
MODEL 5
REMARK VINA RESULT:      -3.0     26.455     27.407
REMARK  Name = 2Methylcholine.pdbqt.pdb
REMARK  3 active torsions:
REMARK  status: ('A' for Active; 'I' for Inactive)
REMARK    1  A    between atoms: C_1  and  N_2
REMARK    2  A    between atoms: C_1  and  C_6
REMARK    3  A    between atoms: C_6  and  O_8
REMARK                            x       y       z     vdW  Elec       q    Type
REMARK                         _______ _______ _______ _____ _____    ______ ____
ROOT
ATOM      1  C   UNL     1     -47.281  84.197   7.289  0.00  0.00    +0.000 C 
ENDROOT
BRANCH   1   2
ATOM      2  N   UNL     1     -46.636  83.053   6.674  0.00  0.00    +0.000 N 
ATOM      3  C   UNL     1     -47.463  81.856   6.856  0.00  0.00    +0.000 C 
ATOM      4  C   UNL     1     -46.449  83.295   5.241  0.00  0.00    +0.000 C 
ATOM      5  C   UNL     1     -45.328  82.829   7.296  0.00  0.00    +0.000 C 
ENDBRANCH   1   2
BRANCH   1   6
ATOM      6  C   UNL     1     -47.888  85.320   7.868  0.00  0.00    +0.000 C 
ATOM      7  C   UNL     1     -49.344  85.357   8.144  0.00  0.00    +0.000 C 
BRANCH   6   8
ATOM      8  O   UNL     1     -47.179  86.431   8.208  0.00  0.00    +0.000 OA
ATOM      9  H   UNL     1     -47.644  87.213   7.852  0.00  0.00    +0.000 HD
ENDBRANCH   6   8
ENDBRANCH   1   6
TORSDOF 3
ENDMDL
MODEL 6
REMARK VINA RESULT:      -2.9     34.152     35.167
REMARK  Name = 2Methylcholine.pdbqt.pdb
REMARK  3 active torsions:
REMARK  status: ('A' for Active; 'I' for Inactive)
REMARK    1  A    between atoms: C_1  and  N_2
REMARK    2  A    between atoms: C_1  and  C_6
REMARK    3  A    between atoms: C_6  and  O_8
REMARK                            x       y       z     vdW  Elec       q    Type
REMARK                         _______ _______ _______ _____ _____    ______ ____
ROOT
ATOM      1  C   UNL     1     -20.616  92.238  19.365  0.00  0.00    +0.000 C 
ENDROOT
BRANCH   1   2
ATOM      2  N   UNL     1     -20.691  92.883  20.662  0.00  0.00    +0.000 N 
ATOM      3  C   UNL     1     -22.083  93.226  20.968  0.00  0.00    +0.000 C 
ATOM      4  C   UNL     1     -20.179  91.983  21.698  0.00  0.00    +0.000 C 
ATOM      5  C   UNL     1     -19.888  94.108  20.652  0.00  0.00    +0.000 C 
ENDBRANCH   1   2
BRANCH   1   6
ATOM      6  C   UNL     1     -20.554  91.591  18.123  0.00  0.00    +0.000 C 
ATOM      7  C   UNL     1     -19.452  90.657  17.790  0.00  0.00    +0.000 C 
BRANCH   6   8
ATOM      8  O   UNL     1     -21.496  91.783  17.160  0.00  0.00    +0.000 OA
ATOM      9  H   UNL     1     -21.845  92.691  17.247  0.00  0.00    +0.000 HD
ENDBRANCH   6   8
ENDBRANCH   1   6
TORSDOF 3
ENDMDL
MODEL 7
REMARK VINA RESULT:      -2.9     25.532     26.336
REMARK  Name = 2Methylcholine.pdbqt.pdb
REMARK  3 active torsions:
REMARK  status: ('A' for Active; 'I' for Inactive)
REMARK    1  A    between atoms: C_1  and  N_2
REMARK    2  A    between atoms: C_1  and  C_6
REMARK    3  A    between atoms: C_6  and  O_8
REMARK                            x       y       z     vdW  Elec       q    Type
REMARK                         _______ _______ _______ _____ _____    ______ ____
ROOT
ATOM      1  C   UNL     1     -35.824 100.218  13.852  0.00  0.00    +0.000 C 
ENDROOT
BRANCH   1   2
ATOM      2  N   UNL     1     -34.531 100.684  14.312  0.00  0.00    +0.000 N 
ATOM      3  C   UNL     1     -33.766  99.563  14.867  0.00  0.00    +0.000 C 
ATOM      4  C   UNL     1     -33.785 101.270  13.196  0.00  0.00    +0.000 C 
ATOM      5  C   UNL     1     -34.713 101.700  15.352  0.00  0.00    +0.000 C 
ENDBRANCH   1   2
BRANCH   1   6
ATOM      6  C   UNL     1     -37.073  99.745  13.423  0.00  0.00    +0.000 C 
ATOM      7  C   UNL     1     -37.985 100.589  12.615  0.00  0.00    +0.000 C 
BRANCH   6   8
ATOM      8  O   UNL     1     -37.514  98.493  13.722  0.00  0.00    +0.000 OA
ATOM      9  H   UNL     1     -37.442  97.940  12.920  0.00  0.00    +0.000 HD
ENDBRANCH   6   8
ENDBRANCH   1   6
TORSDOF 3
ENDMDL
MODEL 8
REMARK VINA RESULT:      -2.9     25.216     25.985
REMARK  Name = 2Methylcholine.pdbqt.pdb
REMARK  3 active torsions:
REMARK  status: ('A' for Active; 'I' for Inactive)
REMARK    1  A    between atoms: C_1  and  N_2
REMARK    2  A    between atoms: C_1  and  C_6
REMARK    3  A    between atoms: C_6  and  O_8
REMARK                            x       y       z     vdW  Elec       q    Type
REMARK                         _______ _______ _______ _____ _____    ______ ____
ROOT
ATOM      1  C   UNL     1     -36.637 101.035  13.393  0.00  0.00    +0.000 C 
ENDROOT
BRANCH   1   2
ATOM      2  N   UNL     1     -35.251 101.114  13.811  0.00  0.00    +0.000 N 
ATOM      3  C   UNL     1     -35.089 102.178  14.806  0.00  0.00    +0.000 C 
ATOM      4  C   UNL     1     -34.833  99.838  14.399  0.00  0.00    +0.000 C 
ATOM      5  C   UNL     1     -34.401 101.408  12.655  0.00  0.00    +0.000 C 
ENDBRANCH   1   2
BRANCH   1   6
ATOM      6  C   UNL     1     -37.968 100.954  12.962  0.00  0.00    +0.000 C 
ATOM      7  C   UNL     1     -38.906  99.955  13.527  0.00  0.00    +0.000 C 
BRANCH   6   8
ATOM      8  O   UNL     1     -38.471 101.783  12.006  0.00  0.00    +0.000 OA
ATOM      9  H   UNL     1     -37.797 101.894  11.309  0.00  0.00    +0.000 HD
ENDBRANCH   6   8
ENDBRANCH   1   6
TORSDOF 3
ENDMDL
MODEL 9
REMARK VINA RESULT:      -2.9     25.077     25.977
REMARK  Name = 2Methylcholine.pdbqt.pdb
REMARK  3 active torsions:
REMARK  status: ('A' for Active; 'I' for Inactive)
REMARK    1  A    between atoms: C_1  and  N_2
REMARK    2  A    between atoms: C_1  and  C_6
REMARK    3  A    between atoms: C_6  and  O_8
REMARK                            x       y       z     vdW  Elec       q    Type
REMARK                         _______ _______ _______ _____ _____    ______ ____
ROOT
ATOM      1  C   UNL     1     -44.119  82.549   5.550  0.00  0.00    +0.000 C 
ENDROOT
BRANCH   1   2
ATOM      2  N   UNL     1     -45.340  83.225   5.941  0.00  0.00    +0.000 N 
ATOM      3  C   UNL     1     -46.499  82.528   5.376  0.00  0.00    +0.000 C 
ATOM      4  C   UNL     1     -45.455  83.244   7.402  0.00  0.00    +0.000 C 
ATOM      5  C   UNL     1     -45.323  84.603   5.445  0.00  0.00    +0.000 C 
ENDBRANCH   1   2
BRANCH   1   6
ATOM      6  C   UNL     1     -42.945  81.897   5.145  0.00  0.00    +0.000 C 
ATOM      7  C   UNL     1     -42.823  80.421   5.192  0.00  0.00    +0.000 C 
BRANCH   6   8
ATOM      8  O   UNL     1     -41.860  82.580   4.689  0.00  0.00    +0.000 OA
ATOM      9  H   UNL     1     -42.077  83.532   4.677  0.00  0.00    +0.000 HD
ENDBRANCH   6   8
ENDBRANCH   1   6
TORSDOF 3
ENDMDL
