MODEL 1
REMARK VINA RESULT:      -8.0      0.000      0.000
REMARK  Name = 3035817_K252a.pdbqt.pdb
REMARK  3 active torsions:
REMARK  status: ('A' for Active; 'I' for Inactive)
REMARK    1  A    between atoms: C_3  and  O_7
REMARK    2  A    between atoms: C_3  and  C_9
REMARK    3  A    between atoms: C_9  and  O_11
REMARK                            x       y       z     vdW  Elec       q    Type
REMARK                         _______ _______ _______ _____ _____    ______ ____
ROOT
ATOM      1  O   UNL     1     -34.482 102.117  15.648  0.00  0.00    +0.000 OA
ATOM      2  C   UNL     1     -35.327 100.912  15.668  0.00  0.00    +0.000 C 
ATOM      3  C   UNL     1     -35.223 100.343  14.188  0.00  0.00    +0.000 C 
ATOM      4  C   UNL     1     -33.400 101.766  14.822  0.00  0.00    +0.000 C 
ATOM      5  C   UNL     1     -33.927 100.910  13.825  0.00  0.00    +0.000 C 
ATOM      6  C   UNL     1     -36.751 101.416  16.073  0.00  0.00    +0.000 C 
ATOM      7  N   UNL     1     -34.747 100.008  16.683  0.00  0.00    +0.000 N 
ATOM      8  C   UNL     1     -33.456  99.856  17.118  0.00  0.00    +0.000 A 
ATOM      9  C   UNL     1     -32.313 100.464  16.596  0.00  0.00    +0.000 A 
ATOM     10  C   UNL     1     -33.183  98.939  18.139  0.00  0.00    +0.000 A 
ATOM     11  N   UNL     1     -32.300 101.301  15.523  0.00  0.00    +0.000 N 
ATOM     12  C   UNL     1     -31.102 100.061  17.168  0.00  0.00    +0.000 A 
ATOM     13  C   UNL     1     -30.915 101.436  15.325  0.00  0.00    +0.000 A 
ATOM     14  C   UNL     1     -30.169 100.711  16.331  0.00  0.00    +0.000 A 
ATOM     15  C   UNL     1     -30.253 102.167  14.326  0.00  0.00    +0.000 A 
ATOM     16  C   UNL     1     -28.762 100.755  16.266  0.00  0.00    +0.000 A 
ATOM     17  C   UNL     1     -28.123 101.489  15.267  0.00  0.00    +0.000 A 
ATOM     18  C   UNL     1     -28.858 102.179  14.314  0.00  0.00    +0.000 A 
ATOM     19  C   UNL     1     -30.814  99.154  18.208  0.00  0.00    +0.000 A 
ATOM     20  C   UNL     1     -31.983  98.537  18.741  0.00  0.00    +0.000 A 
ATOM     21  C   UNL     1     -29.631  98.643  18.858  0.00  0.00    +0.000 C 
ATOM     22  C   UNL     1     -31.521  97.580  19.784  0.00  0.00    +0.000 C 
ATOM     23  N   UNL     1     -30.178  97.726  19.765  0.00  0.00    +0.000 N 
ATOM     24  H   UNL     1     -29.571  97.197  20.376  0.00  0.00    +0.000 HD
ATOM     25  O   UNL     1     -28.435  98.866  18.741  0.00  0.00    +0.000 OA
ATOM     26  C   UNL     1     -34.451  98.378  18.373  0.00  0.00    +0.000 A 
ATOM     27  C   UNL     1     -35.382  99.010  17.465  0.00  0.00    +0.000 A 
ATOM     28  C   UNL     1     -34.931  97.366  19.230  0.00  0.00    +0.000 A 
ATOM     29  C   UNL     1     -36.725  98.597  17.441  0.00  0.00    +0.000 A 
ATOM     30  C   UNL     1     -37.151  97.593  18.311  0.00  0.00    +0.000 A 
ATOM     31  C   UNL     1     -36.272  96.990  19.196  0.00  0.00    +0.000 A 
ENDROOT
BRANCH   3  32
ATOM     32  O   UNL     1     -35.148  98.912  14.095  0.00  0.00    +0.000 OA
ATOM     33  H   UNL     1     -36.067  98.576  14.007  0.00  0.00    +0.000 HD
ENDBRANCH   3  32
BRANCH   3  34
ATOM     34  C   UNL     1     -36.342 100.876  13.296  0.00  0.00    +0.000 C 
ATOM     35  O   UNL     1     -36.286 102.021  12.840  0.00  0.00    +0.000 OA
BRANCH  34  36
ATOM     36  O   UNL     1     -37.352  99.966  13.152  0.00  0.00    +0.000 OA
ATOM     37  C   UNL     1     -38.652 100.458  12.974  0.00  0.00    +0.000 C 
ENDBRANCH  34  36
ENDBRANCH   3  34
TORSDOF 3
ENDMDL
MODEL 2
REMARK VINA RESULT:      -7.8      2.067      5.633
REMARK  Name = 3035817_K252a.pdbqt.pdb
REMARK  3 active torsions:
REMARK  status: ('A' for Active; 'I' for Inactive)
REMARK    1  A    between atoms: C_3  and  O_7
REMARK    2  A    between atoms: C_3  and  C_9
REMARK    3  A    between atoms: C_9  and  O_11
REMARK                            x       y       z     vdW  Elec       q    Type
REMARK                         _______ _______ _______ _____ _____    ______ ____
ROOT
ATOM      1  O   UNL     1     -36.937  99.052  15.026  0.00  0.00    +0.000 OA
ATOM      2  C   UNL     1     -35.842 100.011  14.808  0.00  0.00    +0.000 C 
ATOM      3  C   UNL     1     -36.351 101.344  15.508  0.00  0.00    +0.000 C 
ATOM      4  C   UNL     1     -37.401  99.346  16.321  0.00  0.00    +0.000 C 
ATOM      5  C   UNL     1     -37.265 100.747  16.478  0.00  0.00    +0.000 C 
ATOM      6  C   UNL     1     -35.688 100.110  13.254  0.00  0.00    +0.000 C 
ATOM      7  N   UNL     1     -34.643  99.435  15.450  0.00  0.00    +0.000 N 
ATOM      8  C   UNL     1     -34.516  98.599  16.530  0.00  0.00    +0.000 A 
ATOM      9  C   UNL     1     -35.530  98.170  17.388  0.00  0.00    +0.000 A 
ATOM     10  C   UNL     1     -33.242  98.164  16.910  0.00  0.00    +0.000 A 
ATOM     11  N   UNL     1     -36.833  98.553  17.303  0.00  0.00    +0.000 N 
ATOM     12  C   UNL     1     -35.112  97.392  18.472  0.00  0.00    +0.000 A 
ATOM     13  C   UNL     1     -37.335  98.005  18.497  0.00  0.00    +0.000 A 
ATOM     14  C   UNL     1     -36.311  97.272  19.209  0.00  0.00    +0.000 A 
ATOM     15  C   UNL     1     -38.642  98.090  19.002  0.00  0.00    +0.000 A 
ATOM     16  C   UNL     1     -36.666  96.660  20.427  0.00  0.00    +0.000 A 
ATOM     17  C   UNL     1     -37.970  96.754  20.912  0.00  0.00    +0.000 A 
ATOM     18  C   UNL     1     -38.938  97.459  20.210  0.00  0.00    +0.000 A 
ATOM     19  C   UNL     1     -33.836  96.931  18.857  0.00  0.00    +0.000 A 
ATOM     20  C   UNL     1     -32.803  97.367  17.976  0.00  0.00    +0.000 A 
ATOM     21  C   UNL     1     -33.281  96.160  19.944  0.00  0.00    +0.000 C 
ATOM     22  C   UNL     1     -31.523  96.851  18.534  0.00  0.00    +0.000 C 
ATOM     23  N   UNL     1     -31.914  96.183  19.641  0.00  0.00    +0.000 N 
ATOM     24  H   UNL     1     -31.255  95.711  20.246  0.00  0.00    +0.000 HD
ATOM     25  O   UNL     1     -33.763  95.595  20.915  0.00  0.00    +0.000 OA
ATOM     26  C   UNL     1     -32.417  98.841  15.994  0.00  0.00    +0.000 A 
ATOM     27  C   UNL     1     -33.274  99.629  15.137  0.00  0.00    +0.000 A 
ATOM     28  C   UNL     1     -31.023  98.916  15.802  0.00  0.00    +0.000 A 
ATOM     29  C   UNL     1     -32.707 100.460  14.155  0.00  0.00    +0.000 A 
ATOM     30  C   UNL     1     -31.321 100.498  14.003  0.00  0.00    +0.000 A 
ATOM     31  C   UNL     1     -30.490  99.735  14.808  0.00  0.00    +0.000 A 
ENDROOT
BRANCH   3  32
ATOM     32  O   UNL     1     -35.339 102.079  16.212  0.00  0.00    +0.000 OA
ATOM     33  H   UNL     1     -34.600 102.235  15.583  0.00  0.00    +0.000 HD
ENDBRANCH   3  32
BRANCH   3  34
ATOM     34  C   UNL     1     -37.085 102.254  14.526  0.00  0.00    +0.000 C 
ATOM     35  O   UNL     1     -36.473 103.123  13.900  0.00  0.00    +0.000 OA
BRANCH  34  36
ATOM     36  O   UNL     1     -38.429 101.999  14.509  0.00  0.00    +0.000 OA
ATOM     37  C   UNL     1     -39.019 101.702  13.273  0.00  0.00    +0.000 C 
ENDBRANCH  34  36
ENDBRANCH   3  34
TORSDOF 3
ENDMDL
MODEL 3
REMARK VINA RESULT:      -7.4      2.817      6.112
REMARK  Name = 3035817_K252a.pdbqt.pdb
REMARK  3 active torsions:
REMARK  status: ('A' for Active; 'I' for Inactive)
REMARK    1  A    between atoms: C_3  and  O_7
REMARK    2  A    between atoms: C_3  and  C_9
REMARK    3  A    between atoms: C_9  and  O_11
REMARK                            x       y       z     vdW  Elec       q    Type
REMARK                         _______ _______ _______ _____ _____    ______ ____
ROOT
ATOM      1  O   UNL     1     -34.553  96.678  17.884  0.00  0.00    +0.000 OA
ATOM      2  C   UNL     1     -35.564  97.319  18.741  0.00  0.00    +0.000 C 
ATOM      3  C   UNL     1     -34.708  98.090  19.836  0.00  0.00    +0.000 C 
ATOM      4  C   UNL     1     -33.514  97.623  17.808  0.00  0.00    +0.000 C 
ATOM      5  C   UNL     1     -33.479  98.268  19.068  0.00  0.00    +0.000 C 
ATOM      6  C   UNL     1     -36.431  96.144  19.301  0.00  0.00    +0.000 C 
ATOM      7  N   UNL     1     -36.344  98.221  17.869  0.00  0.00    +0.000 N 
ATOM      8  C   UNL     1     -35.991  98.898  16.730  0.00  0.00    +0.000 A 
ATOM      9  C   UNL     1     -34.718  98.993  16.166  0.00  0.00    +0.000 A 
ATOM     10  C   UNL     1     -36.954  99.665  16.066  0.00  0.00    +0.000 A 
ATOM     11  N   UNL     1     -33.592  98.439  16.693  0.00  0.00    +0.000 N 
ATOM     12  C   UNL     1     -34.615  99.829  15.050  0.00  0.00    +0.000 A 
ATOM     13  C   UNL     1     -32.616  99.010  15.858  0.00  0.00    +0.000 A 
ATOM     14  C   UNL     1     -33.219  99.837  14.835  0.00  0.00    +0.000 A 
ATOM     15  C   UNL     1     -31.222  98.844  15.920  0.00  0.00    +0.000 A 
ATOM     16  C   UNL     1     -32.363 100.476  13.916  0.00  0.00    +0.000 A 
ATOM     17  C   UNL     1     -30.982 100.297  13.993  0.00  0.00    +0.000 A 
ATOM     18  C   UNL     1     -30.426  99.496  14.980  0.00  0.00    +0.000 A 
ATOM     19  C   UNL     1     -35.579 100.591  14.358  0.00  0.00    +0.000 A 
ATOM     20  C   UNL     1     -36.879 100.489  14.934  0.00  0.00    +0.000 A 
ATOM     21  C   UNL     1     -35.593 101.495  13.233  0.00  0.00    +0.000 C 
ATOM     22  C   UNL     1     -37.768 101.378  14.137  0.00  0.00    +0.000 C 
ATOM     23  N   UNL     1     -36.937 101.891  13.203  0.00  0.00    +0.000 N 
ATOM     24  H   UNL     1     -37.255 102.543  12.499  0.00  0.00    +0.000 HD
ATOM     25  O   UNL     1     -34.742 101.886  12.449  0.00  0.00    +0.000 OA
ATOM     26  C   UNL     1     -38.075  99.514  16.902  0.00  0.00    +0.000 A 
ATOM     27  C   UNL     1     -37.684  98.664  18.004  0.00  0.00    +0.000 A 
ATOM     28  C   UNL     1     -39.386 100.031  16.884  0.00  0.00    +0.000 A 
ATOM     29  C   UNL     1     -38.601  98.389  19.034  0.00  0.00    +0.000 A 
ATOM     30  C   UNL     1     -39.888  98.923  18.969  0.00  0.00    +0.000 A 
ATOM     31  C   UNL     1     -40.279  99.726  17.910  0.00  0.00    +0.000 A 
ENDROOT
BRANCH   3  32
ATOM     32  O   UNL     1     -35.220  99.379  20.203  0.00  0.00    +0.000 OA
ATOM     33  H   UNL     1     -36.162  99.259  20.456  0.00  0.00    +0.000 HD
ENDBRANCH   3  32
BRANCH   3  34
ATOM     34  C   UNL     1     -34.477  97.234  21.079  0.00  0.00    +0.000 C 
ATOM     35  O   UNL     1     -33.617  96.350  21.080  0.00  0.00    +0.000 OA
BRANCH  34  36
ATOM     36  O   UNL     1     -35.351  97.552  22.082  0.00  0.00    +0.000 OA
ATOM     37  C   UNL     1     -35.719  96.535  22.973  0.00  0.00    +0.000 C 
ENDBRANCH  34  36
ENDBRANCH   3  34
TORSDOF 3
ENDMDL
MODEL 4
REMARK VINA RESULT:      -7.4      2.581      5.162
REMARK  Name = 3035817_K252a.pdbqt.pdb
REMARK  3 active torsions:
REMARK  status: ('A' for Active; 'I' for Inactive)
REMARK    1  A    between atoms: C_3  and  O_7
REMARK    2  A    between atoms: C_3  and  C_9
REMARK    3  A    between atoms: C_9  and  O_11
REMARK                            x       y       z     vdW  Elec       q    Type
REMARK                         _______ _______ _______ _____ _____    ______ ____
ROOT
ATOM      1  O   UNL     1     -33.833  96.863  18.639  0.00  0.00    +0.000 OA
ATOM      2  C   UNL     1     -35.008  97.574  18.110  0.00  0.00    +0.000 C 
ATOM      3  C   UNL     1     -35.489  98.482  19.322  0.00  0.00    +0.000 C 
ATOM      4  C   UNL     1     -33.188  97.817  19.446  0.00  0.00    +0.000 C 
ATOM      5  C   UNL     1     -34.214  98.601  20.025  0.00  0.00    +0.000 C 
ATOM      6  C   UNL     1     -36.016  96.451  17.699  0.00  0.00    +0.000 C 
ATOM      7  N   UNL     1     -34.540  98.354  16.946  0.00  0.00    +0.000 N 
ATOM      8  C   UNL     1     -33.316  98.906  16.668  0.00  0.00    +0.000 A 
ATOM      9  C   UNL     1     -32.207  98.966  17.512  0.00  0.00    +0.000 A 
ATOM     10  C   UNL     1     -33.128  99.571  15.451  0.00  0.00    +0.000 A 
ATOM     11  N   UNL     1     -32.178  98.500  18.790  0.00  0.00    +0.000 N 
ATOM     12  C   UNL     1     -31.108  99.673  17.013  0.00  0.00    +0.000 A 
ATOM     13  C   UNL     1     -30.931  98.996  19.211  0.00  0.00    +0.000 A 
ATOM     14  C   UNL     1     -30.252  99.688  18.137  0.00  0.00    +0.000 A 
ATOM     15  C   UNL     1     -30.334  98.870  20.476  0.00  0.00    +0.000 A 
ATOM     16  C   UNL     1     -28.984 100.239  18.407  0.00  0.00    +0.000 A 
ATOM     17  C   UNL     1     -28.407 100.101  19.669  0.00  0.00    +0.000 A 
ATOM     18  C   UNL     1     -29.074  99.430  20.683  0.00  0.00    +0.000 A 
ATOM     19  C   UNL     1     -30.897 100.330  15.784  0.00  0.00    +0.000 A 
ATOM     20  C   UNL     1     -32.031 100.264  14.922  0.00  0.00    +0.000 A 
ATOM     21  C   UNL     1     -29.841 101.101  15.172  0.00  0.00    +0.000 C 
ATOM     22  C   UNL     1     -31.680 101.037  13.699  0.00  0.00    +0.000 C 
ATOM     23  N   UNL     1     -30.422 101.460  13.949  0.00  0.00    +0.000 N 
ATOM     24  H   UNL     1     -29.901 102.021  13.289  0.00  0.00    +0.000 HD
ATOM     25  O   UNL     1     -28.714 101.421  15.520  0.00  0.00    +0.000 OA
ATOM     26  C   UNL     1     -34.408  99.490  14.874  0.00  0.00    +0.000 A 
ATOM     27  C   UNL     1     -35.260  98.779  15.800  0.00  0.00    +0.000 A 
ATOM     28  C   UNL     1     -34.973  99.972  13.675  0.00  0.00    +0.000 A 
ATOM     29  C   UNL     1     -36.622  98.601  15.502  0.00  0.00    +0.000 A 
ATOM     30  C   UNL     1     -37.133  99.095  14.302  0.00  0.00    +0.000 A 
ATOM     31  C   UNL     1     -36.323  99.765  13.399  0.00  0.00    +0.000 A 
ENDROOT
BRANCH   3  32
ATOM     32  O   UNL     1     -35.941  99.793  18.951  0.00  0.00    +0.000 OA
ATOM     33  H   UNL     1     -36.901  99.727  18.754  0.00  0.00    +0.000 HD
ENDBRANCH   3  32
BRANCH   3  34
ATOM     34  C   UNL     1     -36.541  97.778  20.175  0.00  0.00    +0.000 C 
ATOM     35  O   UNL     1     -36.215  96.875  20.950  0.00  0.00    +0.000 OA
BRANCH  34  36
ATOM     36  O   UNL     1     -37.800  98.241  19.912  0.00  0.00    +0.000 OA
ATOM     37  C   UNL     1     -38.861  97.330  19.996  0.00  0.00    +0.000 C 
ENDBRANCH  34  36
ENDBRANCH   3  34
TORSDOF 3
ENDMDL
MODEL 5
REMARK VINA RESULT:      -7.2     13.247     16.166
REMARK  Name = 3035817_K252a.pdbqt.pdb
REMARK  3 active torsions:
REMARK  status: ('A' for Active; 'I' for Inactive)
REMARK    1  A    between atoms: C_3  and  O_7
REMARK    2  A    between atoms: C_3  and  C_9
REMARK    3  A    between atoms: C_9  and  O_11
REMARK                            x       y       z     vdW  Elec       q    Type
REMARK                         _______ _______ _______ _____ _____    ______ ____
ROOT
ATOM      1  O   UNL     1     -38.646  86.778  19.731  0.00  0.00    +0.000 OA
ATOM      2  C   UNL     1     -39.995  86.898  19.157  0.00  0.00    +0.000 C 
ATOM      3  C   UNL     1     -39.898  88.164  18.202  0.00  0.00    +0.000 C 
ATOM      4  C   UNL     1     -37.788  87.125  18.673  0.00  0.00    +0.000 C 
ATOM      5  C   UNL     1     -38.463  88.125  17.931  0.00  0.00    +0.000 C 
ATOM      6  C   UNL     1     -40.949  87.080  20.383  0.00  0.00    +0.000 C 
ATOM      7  N   UNL     1     -40.258  85.638  18.431  0.00  0.00    +0.000 N 
ATOM      8  C   UNL     1     -39.403  84.767  17.806  0.00  0.00    +0.000 A 
ATOM      9  C   UNL     1     -38.033  84.933  17.597  0.00  0.00    +0.000 A 
ATOM     10  C   UNL     1     -39.920  83.606  17.220  0.00  0.00    +0.000 A 
ATOM     11  N   UNL     1     -37.320  86.033  17.962  0.00  0.00    +0.000 N 
ATOM     12  C   UNL     1     -37.413  83.931  16.844  0.00  0.00    +0.000 A 
ATOM     13  C   UNL     1     -36.090  85.754  17.340  0.00  0.00    +0.000 A 
ATOM     14  C   UNL     1     -36.117  84.468  16.678  0.00  0.00    +0.000 A 
ATOM     15  C   UNL     1     -34.931  86.547  17.325  0.00  0.00    +0.000 A 
ATOM     16  C   UNL     1     -34.950  84.046  16.011  0.00  0.00    +0.000 A 
ATOM     17  C   UNL     1     -33.809  84.847  16.008  0.00  0.00    +0.000 A 
ATOM     18  C   UNL     1     -33.804  86.076  16.653  0.00  0.00    +0.000 A 
ATOM     19  C   UNL     1     -37.916  82.748  16.265  0.00  0.00    +0.000 A 
ATOM     20  C   UNL     1     -39.315  82.578  16.484  0.00  0.00    +0.000 A 
ATOM     21  C   UNL     1     -37.396  81.668  15.461  0.00  0.00    +0.000 C 
ATOM     22  C   UNL     1     -39.707  81.327  15.779  0.00  0.00    +0.000 C 
ATOM     23  N   UNL     1     -38.545  80.897  15.241  0.00  0.00    +0.000 N 
ATOM     24  H   UNL     1     -38.487  80.051  14.691  0.00  0.00    +0.000 HD
ATOM     25  O   UNL     1     -36.287  81.391  15.029  0.00  0.00    +0.000 OA
ATOM     26  C   UNL     1     -41.300  83.756  17.445  0.00  0.00    +0.000 A 
ATOM     27  C   UNL     1     -41.494  85.003  18.150  0.00  0.00    +0.000 A 
ATOM     28  C   UNL     1     -42.436  82.996  17.099  0.00  0.00    +0.000 A 
ATOM     29  C   UNL     1     -42.795  85.438  18.456  0.00  0.00    +0.000 A 
ATOM     30  C   UNL     1     -43.887  84.649  18.094  0.00  0.00    +0.000 A 
ATOM     31  C   UNL     1     -43.713  83.445  17.432  0.00  0.00    +0.000 A 
ENDROOT
BRANCH   3  32
ATOM     32  O   UNL     1     -40.610  88.041  16.962  0.00  0.00    +0.000 OA
ATOM     33  H   UNL     1     -41.432  87.534  17.146  0.00  0.00    +0.000 HD
ENDBRANCH   3  32
BRANCH   3  34
ATOM     34  C   UNL     1     -40.300  89.449  18.922  0.00  0.00    +0.000 C 
ATOM     35  O   UNL     1     -41.467  89.848  18.885  0.00  0.00    +0.000 OA
BRANCH  34  36
ATOM     36  O   UNL     1     -39.226  90.056  19.512  0.00  0.00    +0.000 OA
ATOM     37  C   UNL     1     -39.345  90.425  20.859  0.00  0.00    +0.000 C 
ENDBRANCH  34  36
ENDBRANCH   3  34
TORSDOF 3
ENDMDL
MODEL 6
REMARK VINA RESULT:      -6.9     13.480     16.238
REMARK  Name = 3035817_K252a.pdbqt.pdb
REMARK  3 active torsions:
REMARK  status: ('A' for Active; 'I' for Inactive)
REMARK    1  A    between atoms: C_3  and  O_7
REMARK    2  A    between atoms: C_3  and  C_9
REMARK    3  A    between atoms: C_9  and  O_11
REMARK                            x       y       z     vdW  Elec       q    Type
REMARK                         _______ _______ _______ _____ _____    ______ ____
ROOT
ATOM      1  O   UNL     1     -41.253 105.583   4.687  0.00  0.00    +0.000 OA
ATOM      2  C   UNL     1     -40.631 104.440   3.999  0.00  0.00    +0.000 C 
ATOM      3  C   UNL     1     -39.516 103.938   5.015  0.00  0.00    +0.000 C 
ATOM      4  C   UNL     1     -41.282 105.198   6.039  0.00  0.00    +0.000 C 
ATOM      5  C   UNL     1     -40.112 104.430   6.255  0.00  0.00    +0.000 C 
ATOM      6  C   UNL     1     -40.073 105.022   2.659  0.00  0.00    +0.000 C 
ATOM      7  N   UNL     1     -41.703 103.450   3.773  0.00  0.00    +0.000 N 
ATOM      8  C   UNL     1     -42.848 103.187   4.481  0.00  0.00    +0.000 A 
ATOM      9  C   UNL     1     -43.227 103.739   5.705  0.00  0.00    +0.000 A 
ATOM     10  C   UNL     1     -43.728 102.205   4.015  0.00  0.00    +0.000 A 
ATOM     11  N   UNL     1     -42.482 104.624   6.422  0.00  0.00    +0.000 N 
ATOM     12  C   UNL     1     -44.404 103.224   6.259  0.00  0.00    +0.000 A 
ATOM     13  C   UNL     1     -43.225 104.670   7.615  0.00  0.00    +0.000 A 
ATOM     14  C   UNL     1     -44.412 103.847   7.526  0.00  0.00    +0.000 A 
ATOM     15  C   UNL     1     -42.942 105.401   8.780  0.00  0.00    +0.000 A 
ATOM     16  C   UNL     1     -45.263 103.796   8.648  0.00  0.00    +0.000 A 
ATOM     17  C   UNL     1     -44.966 104.530   9.795  0.00  0.00    +0.000 A 
ATOM     18  C   UNL     1     -43.824 105.316   9.857  0.00  0.00    +0.000 A 
ATOM     19  C   UNL     1     -45.310 102.250   5.792  0.00  0.00    +0.000 A 
ATOM     20  C   UNL     1     -44.922 101.691   4.539  0.00  0.00    +0.000 A 
ATOM     21  C   UNL     1     -46.521 101.626   6.271  0.00  0.00    +0.000 C 
ATOM     22  C   UNL     1     -45.936 100.654   4.204  0.00  0.00    +0.000 C 
ATOM     23  N   UNL     1     -46.791 100.707   5.249  0.00  0.00    +0.000 N 
ATOM     24  H   UNL     1     -47.603 100.108   5.311  0.00  0.00    +0.000 HD
ATOM     25  O   UNL     1     -47.212 101.771   7.268  0.00  0.00    +0.000 OA
ATOM     26  C   UNL     1     -43.053 101.723   2.879  0.00  0.00    +0.000 A 
ATOM     27  C   UNL     1     -41.816 102.462   2.762  0.00  0.00    +0.000 A 
ATOM     28  C   UNL     1     -43.320 100.707   1.939  0.00  0.00    +0.000 A 
ATOM     29  C   UNL     1     -40.907 102.146   1.737  0.00  0.00    +0.000 A 
ATOM     30  C   UNL     1     -41.218 101.133   0.830  0.00  0.00    +0.000 A 
ATOM     31  C   UNL     1     -42.408 100.428   0.923  0.00  0.00    +0.000 A 
ENDROOT
BRANCH   3  32
ATOM     32  O   UNL     1     -39.376 102.512   5.099  0.00  0.00    +0.000 OA
ATOM     33  H   UNL     1     -38.477 102.286   4.773  0.00  0.00    +0.000 HD
ENDBRANCH   3  32
BRANCH   3  34
ATOM     34  C   UNL     1     -38.164 104.591   4.741  0.00  0.00    +0.000 C 
ATOM     35  O   UNL     1     -37.967 105.772   5.040  0.00  0.00    +0.000 OA
BRANCH  34  36
ATOM     36  O   UNL     1     -37.306 103.733   4.111  0.00  0.00    +0.000 OA
ATOM     37  C   UNL     1     -36.045 104.223   3.745  0.00  0.00    +0.000 C 
ENDBRANCH  34  36
ENDBRANCH   3  34
TORSDOF 3
ENDMDL
MODEL 7
REMARK VINA RESULT:      -6.9     12.945     15.048
REMARK  Name = 3035817_K252a.pdbqt.pdb
REMARK  3 active torsions:
REMARK  status: ('A' for Active; 'I' for Inactive)
REMARK    1  A    between atoms: C_3  and  O_7
REMARK    2  A    between atoms: C_3  and  C_9
REMARK    3  A    between atoms: C_9  and  O_11
REMARK                            x       y       z     vdW  Elec       q    Type
REMARK                         _______ _______ _______ _____ _____    ______ ____
ROOT
ATOM      1  O   UNL     1     -32.279  85.152  18.390  0.00  0.00    +0.000 OA
ATOM      2  C   UNL     1     -32.573  84.229  17.281  0.00  0.00    +0.000 C 
ATOM      3  C   UNL     1     -33.895  84.819  16.627  0.00  0.00    +0.000 C 
ATOM      4  C   UNL     1     -32.625  86.418  17.886  0.00  0.00    +0.000 C 
ATOM      5  C   UNL     1     -33.740  86.212  17.037  0.00  0.00    +0.000 C 
ATOM      6  C   UNL     1     -32.748  82.826  17.951  0.00  0.00    +0.000 C 
ATOM      7  N   UNL     1     -31.405  84.272  16.377  0.00  0.00    +0.000 N 
ATOM      8  C   UNL     1     -30.508  85.276  16.115  0.00  0.00    +0.000 A 
ATOM      9  C   UNL     1     -30.559  86.593  16.574  0.00  0.00    +0.000 A 
ATOM     10  C   UNL     1     -29.452  85.033  15.231  0.00  0.00    +0.000 A 
ATOM     11  N   UNL     1     -31.553  87.108  17.347  0.00  0.00    +0.000 N 
ATOM     12  C   UNL     1     -29.564  87.442  16.078  0.00  0.00    +0.000 A 
ATOM     13  C   UNL     1     -31.207  88.471  17.326  0.00  0.00    +0.000 A 
ATOM     14  C   UNL     1     -29.986  88.691  16.583  0.00  0.00    +0.000 A 
ATOM     15  C   UNL     1     -31.885  89.542  17.931  0.00  0.00    +0.000 A 
ATOM     16  C   UNL     1     -29.509  90.013  16.477  0.00  0.00    +0.000 A 
ATOM     17  C   UNL     1     -30.195  91.063  17.087  0.00  0.00    +0.000 A 
ATOM     18  C   UNL     1     -31.362  90.828  17.799  0.00  0.00    +0.000 A 
ATOM     19  C   UNL     1     -28.484  87.207  15.202  0.00  0.00    +0.000 A 
ATOM     20  C   UNL     1     -28.432  85.860  14.739  0.00  0.00    +0.000 A 
ATOM     21  C   UNL     1     -27.426  87.988  14.606  0.00  0.00    +0.000 C 
ATOM     22  C   UNL     1     -27.284  85.779  13.795  0.00  0.00    +0.000 C 
ATOM     23  N   UNL     1     -26.789  87.036  13.800  0.00  0.00    +0.000 N 
ATOM     24  H   UNL     1     -25.987  87.301  13.245  0.00  0.00    +0.000 HD
ATOM     25  O   UNL     1     -27.080  89.156  14.698  0.00  0.00    +0.000 OA
ATOM     26  C   UNL     1     -29.715  83.715  14.817  0.00  0.00    +0.000 A 
ATOM     27  C   UNL     1     -30.915  83.278  15.493  0.00  0.00    +0.000 A 
ATOM     28  C   UNL     1     -29.097  82.833  13.907  0.00  0.00    +0.000 A 
ATOM     29  C   UNL     1     -31.447  82.005  15.221  0.00  0.00    +0.000 A 
ATOM     30  C   UNL     1     -30.797  81.169  14.313  0.00  0.00    +0.000 A 
ATOM     31  C   UNL     1     -29.638  81.570  13.671  0.00  0.00    +0.000 A 
ENDROOT
BRANCH   3  32
ATOM     32  O   UNL     1     -33.939  84.757  15.194  0.00  0.00    +0.000 OA
ATOM     33  H   UNL     1     -33.091  84.362  14.892  0.00  0.00    +0.000 HD
ENDBRANCH   3  32
BRANCH   3  34
ATOM     34  C   UNL     1     -35.152  84.192  17.226  0.00  0.00    +0.000 C 
ATOM     35  O   UNL     1     -35.516  84.486  18.367  0.00  0.00    +0.000 OA
BRANCH  34  36
ATOM     36  O   UNL     1     -35.719  83.284  16.375  0.00  0.00    +0.000 OA
ATOM     37  C   UNL     1     -37.049  83.497  15.986  0.00  0.00    +0.000 C 
ENDBRANCH  34  36
ENDBRANCH   3  34
TORSDOF 3
ENDMDL
MODEL 8
REMARK VINA RESULT:      -6.7      1.857      7.790
REMARK  Name = 3035817_K252a.pdbqt.pdb
REMARK  3 active torsions:
REMARK  status: ('A' for Active; 'I' for Inactive)
REMARK    1  A    between atoms: C_3  and  O_7
REMARK    2  A    between atoms: C_3  and  C_9
REMARK    3  A    between atoms: C_9  and  O_11
REMARK                            x       y       z     vdW  Elec       q    Type
REMARK                         _______ _______ _______ _____ _____    ______ ____
ROOT
ATOM      1  O   UNL     1     -31.530 100.659  20.152  0.00  0.00    +0.000 OA
ATOM      2  C   UNL     1     -30.299 100.709  19.349  0.00  0.00    +0.000 C 
ATOM      3  C   UNL     1     -29.627  99.287  19.582  0.00  0.00    +0.000 C 
ATOM      4  C   UNL     1     -31.989  99.338  20.001  0.00  0.00    +0.000 C 
ATOM      5  C   UNL     1     -30.831  98.528  19.912  0.00  0.00    +0.000 C 
ATOM      6  C   UNL     1     -29.484 101.914  19.921  0.00  0.00    +0.000 C 
ATOM      7  N   UNL     1     -30.717 100.933  17.950  0.00  0.00    +0.000 N 
ATOM      8  C   UNL     1     -31.865 100.580  17.287  0.00  0.00    +0.000 A 
ATOM      9  C   UNL     1     -32.905  99.785  17.769  0.00  0.00    +0.000 A 
ATOM     10  C   UNL     1     -32.026 100.961  15.951  0.00  0.00    +0.000 A 
ATOM     11  N   UNL     1     -32.927  99.193  18.994  0.00  0.00    +0.000 N 
ATOM     12  C   UNL     1     -33.920  99.500  16.849  0.00  0.00    +0.000 A 
ATOM     13  C   UNL     1     -34.067  98.379  18.860  0.00  0.00    +0.000 A 
ATOM     14  C   UNL     1     -34.700  98.572  17.574  0.00  0.00    +0.000 A 
ATOM     15  C   UNL     1     -34.603  97.484  19.800  0.00  0.00    +0.000 A 
ATOM     16  C   UNL     1     -35.861  97.824  17.294  0.00  0.00    +0.000 A 
ATOM     17  C   UNL     1     -36.380  96.942  18.240  0.00  0.00    +0.000 A 
ATOM     18  C   UNL     1     -35.758  96.776  19.470  0.00  0.00    +0.000 A 
ATOM     19  C   UNL     1     -34.105  99.892  15.508  0.00  0.00    +0.000 A 
ATOM     20  C   UNL     1     -33.043 100.708  15.020  0.00  0.00    +0.000 A 
ATOM     21  C   UNL     1     -35.075  99.649  14.467  0.00  0.00    +0.000 C 
ATOM     22  C   UNL     1     -33.349 100.996  13.592  0.00  0.00    +0.000 C 
ATOM     23  N   UNL     1     -34.519 100.352  13.390  0.00  0.00    +0.000 N 
ATOM     24  H   UNL     1     -34.992 100.362  12.496  0.00  0.00    +0.000 HD
ATOM     25  O   UNL     1     -36.124  99.025  14.414  0.00  0.00    +0.000 OA
ATOM     26  C   UNL     1     -30.805 101.605  15.682  0.00  0.00    +0.000 A 
ATOM     27  C   UNL     1     -30.011 101.555  16.889  0.00  0.00    +0.000 A 
ATOM     28  C   UNL     1     -30.246 102.204  14.534  0.00  0.00    +0.000 A 
ATOM     29  C   UNL     1     -28.706 102.078  16.890  0.00  0.00    +0.000 A 
ATOM     30  C   UNL     1     -28.199 102.662  15.729  0.00  0.00    +0.000 A 
ATOM     31  C   UNL     1     -28.956 102.731  14.571  0.00  0.00    +0.000 A 
ENDROOT
BRANCH   3  32
ATOM     32  O   UNL     1     -29.017  98.710  18.418  0.00  0.00    +0.000 OA
ATOM     33  H   UNL     1     -29.011  99.400  17.719  0.00  0.00    +0.000 HD
ENDBRANCH   3  32
BRANCH   3  34
ATOM     34  C   UNL     1     -28.639  99.312  20.745  0.00  0.00    +0.000 C 
ATOM     35  O   UNL     1     -27.502  99.765  20.592  0.00  0.00    +0.000 OA
BRANCH  34  36
ATOM     36  O   UNL     1     -29.167  98.741  21.870  0.00  0.00    +0.000 OA
ATOM     37  C   UNL     1     -28.291  98.440  22.922  0.00  0.00    +0.000 C 
ENDBRANCH  34  36
ENDBRANCH   3  34
TORSDOF 3
ENDMDL
MODEL 9
REMARK VINA RESULT:      -6.7     15.015     18.587
REMARK  Name = 3035817_K252a.pdbqt.pdb
REMARK  3 active torsions:
REMARK  status: ('A' for Active; 'I' for Inactive)
REMARK    1  A    between atoms: C_3  and  O_7
REMARK    2  A    between atoms: C_3  and  C_9
REMARK    3  A    between atoms: C_9  and  O_11
REMARK                            x       y       z     vdW  Elec       q    Type
REMARK                         _______ _______ _______ _____ _____    ______ ____
ROOT
ATOM      1  O   UNL     1     -38.037  80.950  17.763  0.00  0.00    +0.000 OA
ATOM      2  C   UNL     1     -36.946  81.403  16.886  0.00  0.00    +0.000 C 
ATOM      3  C   UNL     1     -37.411  80.963  15.431  0.00  0.00    +0.000 C 
ATOM      4  C   UNL     1     -39.203  81.181  17.012  0.00  0.00    +0.000 C 
ATOM      5  C   UNL     1     -38.854  80.941  15.660  0.00  0.00    +0.000 C 
ATOM      6  C   UNL     1     -35.667  80.669  17.409  0.00  0.00    +0.000 C 
ATOM      7  N   UNL     1     -36.853  82.868  17.051  0.00  0.00    +0.000 N 
ATOM      8  C   UNL     1     -37.809  83.799  17.366  0.00  0.00    +0.000 A 
ATOM      9  C   UNL     1     -39.182  83.587  17.496  0.00  0.00    +0.000 A 
ATOM     10  C   UNL     1     -37.436  85.141  17.502  0.00  0.00    +0.000 A 
ATOM     11  N   UNL     1     -39.806  82.396  17.291  0.00  0.00    +0.000 N 
ATOM     12  C   UNL     1     -39.948  84.733  17.732  0.00  0.00    +0.000 A 
ATOM     13  C   UNL     1     -41.151  82.803  17.351  0.00  0.00    +0.000 A 
ATOM     14  C   UNL     1     -41.259  84.215  17.645  0.00  0.00    +0.000 A 
ATOM     15  C   UNL     1     -42.300  82.013  17.179  0.00  0.00    +0.000 A 
ATOM     16  C   UNL     1     -42.551  84.770  17.741  0.00  0.00    +0.000 A 
ATOM     17  C   UNL     1     -43.679  83.970  17.569  0.00  0.00    +0.000 A 
ATOM     18  C   UNL     1     -43.552  82.616  17.291  0.00  0.00    +0.000 A 
ATOM     19  C   UNL     1     -39.585  86.086  17.891  0.00  0.00    +0.000 A 
ATOM     20  C   UNL     1     -38.181  86.299  17.762  0.00  0.00    +0.000 A 
ATOM     21  C   UNL     1     -40.269  87.339  18.108  0.00  0.00    +0.000 C 
ATOM     22  C   UNL     1     -37.959  87.765  17.900  0.00  0.00    +0.000 C 
ATOM     23  N   UNL     1     -39.205  88.250  18.095  0.00  0.00    +0.000 N 
ATOM     24  H   UNL     1     -39.384  89.236  18.226  0.00  0.00    +0.000 HD
ATOM     25  O   UNL     1     -41.439  87.648  18.272  0.00  0.00    +0.000 OA
ATOM     26  C   UNL     1     -36.066  85.096  17.186  0.00  0.00    +0.000 A 
ATOM     27  C   UNL     1     -35.733  83.722  16.885  0.00  0.00    +0.000 A 
ATOM     28  C   UNL     1     -35.054  86.072  17.078  0.00  0.00    +0.000 A 
ATOM     29  C   UNL     1     -34.429  83.392  16.477  0.00  0.00    +0.000 A 
ATOM     30  C   UNL     1     -33.463  84.394  16.387  0.00  0.00    +0.000 A 
ATOM     31  C   UNL     1     -33.766  85.712  16.688  0.00  0.00    +0.000 A 
ENDROOT
BRANCH   3  32
ATOM     32  O   UNL     1     -37.119  81.910  14.392  0.00  0.00    +0.000 OA
ATOM     33  H   UNL     1     -37.877  82.533  14.343  0.00  0.00    +0.000 HD
ENDBRANCH   3  32
BRANCH   3  34
ATOM     34  C   UNL     1     -36.878  79.582  15.059  0.00  0.00    +0.000 C 
ATOM     35  O   UNL     1     -35.829  79.467  14.420  0.00  0.00    +0.000 OA
BRANCH  34  36
ATOM     36  O   UNL     1     -37.721  78.587  15.470  0.00  0.00    +0.000 OA
ATOM     37  C   UNL     1     -37.153  77.473  16.105  0.00  0.00    +0.000 C 
ENDBRANCH  34  36
ENDBRANCH   3  34
TORSDOF 3
ENDMDL
