MODEL 1
REMARK VINA RESULT:      -5.1      0.000      0.000
REMARK  Name = 3136_Dimethoxy.pdbqt.pdb
REMARK  2 active torsions:
REMARK  status: ('A' for Active; 'I' for Inactive)
REMARK    1  A    between atoms: C_7  and  O_13
REMARK    2  A    between atoms: C_8  and  O_15
REMARK                            x       y       z     vdW  Elec       q    Type
REMARK                         _______ _______ _______ _____ _____    ______ ____
ROOT
ATOM      1  O   UNL     1     -30.590 101.817  13.849  0.00  0.00    +0.000 OA
ATOM      2  O   UNL     1     -32.607  97.608  16.422  0.00  0.00    +0.000 OA
ATOM      3  C   UNL     1     -32.481 100.537  14.356  0.00  0.00    +0.000 A 
ATOM      4  C   UNL     1     -33.001  99.426  15.005  0.00  0.00    +0.000 A 
ATOM      5  C   UNL     1     -31.056 100.866  14.465  0.00  0.00    +0.000 C 
ATOM      6  C   UNL     1     -32.136  98.555  15.808  0.00  0.00    +0.000 C 
ATOM      7  C   UNL     1     -30.203 100.006  15.320  0.00  0.00    +0.000 C 
ATOM      8  C   UNL     1     -30.689  98.873  15.868  0.00  0.00    +0.000 C 
ATOM      9  C   UNL     1     -33.314 101.353  13.590  0.00  0.00    +0.000 A 
ATOM     10  C   UNL     1     -34.360  99.126  14.899  0.00  0.00    +0.000 A 
ATOM     11  C   UNL     1     -34.670 101.054  13.482  0.00  0.00    +0.000 A 
ATOM     12  C   UNL     1     -35.194  99.941  14.136  0.00  0.00    +0.000 A 
ENDROOT
BRANCH   7  13
ATOM     13  O   UNL     1     -28.880 100.397  15.419  0.00  0.00    +0.000 OA
ATOM     14  C   UNL     1     -28.735 101.309  16.481  0.00  0.00    +0.000 C 
ENDBRANCH   7  13
BRANCH   8  15
ATOM     15  O   UNL     1     -29.919  97.986  16.600  0.00  0.00    +0.000 OA
ATOM     16  C   UNL     1     -29.936  98.354  17.958  0.00  0.00    +0.000 C 
ENDBRANCH   8  15
TORSDOF 2
ENDMDL
MODEL 2
REMARK VINA RESULT:      -4.9      1.106      3.149
REMARK  Name = 3136_Dimethoxy.pdbqt.pdb
REMARK  2 active torsions:
REMARK  status: ('A' for Active; 'I' for Inactive)
REMARK    1  A    between atoms: C_7  and  O_13
REMARK    2  A    between atoms: C_8  and  O_15
REMARK                            x       y       z     vdW  Elec       q    Type
REMARK                         _______ _______ _______ _____ _____    ______ ____
ROOT
ATOM      1  O   UNL     1     -34.341  97.969  16.779  0.00  0.00    +0.000 OA
ATOM      2  O   UNL     1     -30.891 100.768  13.836  0.00  0.00    +0.000 OA
ATOM      3  C   UNL     1     -34.025  99.548  15.083  0.00  0.00    +0.000 A 
ATOM      4  C   UNL     1     -33.126 100.295  14.334  0.00  0.00    +0.000 A 
ATOM      5  C   UNL     1     -33.546  98.589  16.085  0.00  0.00    +0.000 C 
ATOM      6  C   UNL     1     -31.681 100.147  14.533  0.00  0.00    +0.000 C 
ATOM      7  C   UNL     1     -32.081  98.413  16.240  0.00  0.00    +0.000 C 
ATOM      8  C   UNL     1     -31.213  99.210  15.584  0.00  0.00    +0.000 C 
ATOM      9  C   UNL     1     -35.396  99.703  14.888  0.00  0.00    +0.000 A 
ATOM     10  C   UNL     1     -33.594 101.200  13.380  0.00  0.00    +0.000 A 
ATOM     11  C   UNL     1     -35.865 100.607  13.937  0.00  0.00    +0.000 A 
ATOM     12  C   UNL     1     -34.964 101.355  13.182  0.00  0.00    +0.000 A 
ENDROOT
BRANCH   7  13
ATOM     13  O   UNL     1     -31.696  97.461  17.166  0.00  0.00    +0.000 OA
ATOM     14  C   UNL     1     -31.673  98.033  18.451  0.00  0.00    +0.000 C 
ENDBRANCH   7  13
BRANCH   8  15
ATOM     15  O   UNL     1     -29.842  99.153  15.757  0.00  0.00    +0.000 OA
ATOM     16  C   UNL     1     -29.438 100.143  16.673  0.00  0.00    +0.000 C 
ENDBRANCH   8  15
TORSDOF 2
ENDMDL
MODEL 3
REMARK VINA RESULT:      -4.7      1.975      3.917
REMARK  Name = 3136_Dimethoxy.pdbqt.pdb
REMARK  2 active torsions:
REMARK  status: ('A' for Active; 'I' for Inactive)
REMARK    1  A    between atoms: C_7  and  O_13
REMARK    2  A    between atoms: C_8  and  O_15
REMARK                            x       y       z     vdW  Elec       q    Type
REMARK                         _______ _______ _______ _____ _____    ______ ____
ROOT
ATOM      1  O   UNL     1     -35.465  98.785  16.361  0.00  0.00    +0.000 OA
ATOM      2  O   UNL     1     -30.174  98.157  16.448  0.00  0.00    +0.000 OA
ATOM      3  C   UNL     1     -33.394  99.388  15.458  0.00  0.00    +0.000 A 
ATOM      4  C   UNL     1     -32.015  99.243  15.497  0.00  0.00    +0.000 A 
ATOM      5  C   UNL     1     -34.253  98.617  16.363  0.00  0.00    +0.000 C 
ATOM      6  C   UNL     1     -31.386  98.321  16.450  0.00  0.00    +0.000 C 
ATOM      7  C   UNL     1     -33.607  97.653  17.287  0.00  0.00    +0.000 C 
ATOM      8  C   UNL     1     -32.264  97.587  17.393  0.00  0.00    +0.000 C 
ATOM      9  C   UNL     1     -33.978 100.272  14.551  0.00  0.00    +0.000 A 
ATOM     10  C   UNL     1     -31.209  99.977  14.627  0.00  0.00    +0.000 A 
ATOM     11  C   UNL     1     -33.175 101.008  13.682  0.00  0.00    +0.000 A 
ATOM     12  C   UNL     1     -31.790 100.860  13.719  0.00  0.00    +0.000 A 
ENDROOT
BRANCH   7  13
ATOM     13  O   UNL     1     -34.474  96.923  18.080  0.00  0.00    +0.000 OA
ATOM     14  C   UNL     1     -34.803  97.666  19.229  0.00  0.00    +0.000 C 
ENDBRANCH   7  13
BRANCH   8  15
ATOM     15  O   UNL     1     -31.608  96.772  18.299  0.00  0.00    +0.000 OA
ATOM     16  C   UNL     1     -31.255  97.520  19.438  0.00  0.00    +0.000 C 
ENDBRANCH   8  15
TORSDOF 2
ENDMDL
MODEL 4
REMARK VINA RESULT:      -4.6     13.797     16.480
REMARK  Name = 3136_Dimethoxy.pdbqt.pdb
REMARK  2 active torsions:
REMARK  status: ('A' for Active; 'I' for Inactive)
REMARK    1  A    between atoms: C_7  and  O_13
REMARK    2  A    between atoms: C_8  and  O_15
REMARK                            x       y       z     vdW  Elec       q    Type
REMARK                         _______ _______ _______ _____ _____    ______ ____
ROOT
ATOM      1  O   UNL     1     -39.418 104.552  -0.261  0.00  0.00    +0.000 OA
ATOM      2  O   UNL     1     -40.222 101.280   3.868  0.00  0.00    +0.000 OA
ATOM      3  C   UNL     1     -38.527 103.524   1.641  0.00  0.00    +0.000 A 
ATOM      4  C   UNL     1     -38.745 102.692   2.730  0.00  0.00    +0.000 A 
ATOM      5  C   UNL     1     -39.597 103.778   0.670  0.00  0.00    +0.000 C 
ATOM      6  C   UNL     1     -40.050 102.054   2.936  0.00  0.00    +0.000 C 
ATOM      7  C   UNL     1     -40.896 103.088   0.864  0.00  0.00    +0.000 C 
ATOM      8  C   UNL     1     -41.136 102.361   1.974  0.00  0.00    +0.000 C 
ATOM      9  C   UNL     1     -37.284 104.128   1.460  0.00  0.00    +0.000 A 
ATOM     10  C   UNL     1     -37.717 102.453   3.643  0.00  0.00    +0.000 A 
ATOM     11  C   UNL     1     -36.257 103.892   2.372  0.00  0.00    +0.000 A 
ATOM     12  C   UNL     1     -36.474 103.054   3.463  0.00  0.00    +0.000 A 
ENDROOT
BRANCH   7  13
ATOM     13  O   UNL     1     -41.846 103.332  -0.111  0.00  0.00    +0.000 OA
ATOM     14  C   UNL     1     -41.863 102.268  -1.032  0.00  0.00    +0.000 C 
ENDBRANCH   7  13
BRANCH   8  15
ATOM     15  O   UNL     1     -42.355 101.769   2.252  0.00  0.00    +0.000 OA
ATOM     16  C   UNL     1     -43.178 102.681   2.940  0.00  0.00    +0.000 C 
ENDBRANCH   8  15
TORSDOF 2
ENDMDL
MODEL 5
REMARK VINA RESULT:      -4.5     13.326     15.239
REMARK  Name = 3136_Dimethoxy.pdbqt.pdb
REMARK  2 active torsions:
REMARK  status: ('A' for Active; 'I' for Inactive)
REMARK    1  A    between atoms: C_7  and  O_13
REMARK    2  A    between atoms: C_8  and  O_15
REMARK                            x       y       z     vdW  Elec       q    Type
REMARK                         _______ _______ _______ _____ _____    ______ ____
ROOT
ATOM      1  O   UNL     1     -38.618 104.607  -0.264  0.00  0.00    +0.000 OA
ATOM      2  O   UNL     1     -35.943 103.442   4.195  0.00  0.00    +0.000 OA
ATOM      3  C   UNL     1     -38.583 103.451   1.769  0.00  0.00    +0.000 A 
ATOM      4  C   UNL     1     -37.876 103.128   2.918  0.00  0.00    +0.000 A 
ATOM      5  C   UNL     1     -38.013 104.364   0.772  0.00  0.00    +0.000 C 
ATOM      6  C   UNL     1     -36.541 103.687   3.158  0.00  0.00    +0.000 C 
ATOM      7  C   UNL     1     -36.684 104.961   1.051  0.00  0.00    +0.000 C 
ATOM      8  C   UNL     1     -35.957 104.569   2.118  0.00  0.00    +0.000 C 
ATOM      9  C   UNL     1     -39.849 102.907   1.551  0.00  0.00    +0.000 A 
ATOM     10  C   UNL     1     -38.432 102.263   3.861  0.00  0.00    +0.000 A 
ATOM     11  C   UNL     1     -40.405 102.042   2.490  0.00  0.00    +0.000 A 
ATOM     12  C   UNL     1     -39.697 101.720   3.646  0.00  0.00    +0.000 A 
ENDROOT
BRANCH   7  13
ATOM     13  O   UNL     1     -36.224 105.850   0.097  0.00  0.00    +0.000 OA
ATOM     14  C   UNL     1     -35.436 105.165  -0.847  0.00  0.00    +0.000 C 
ENDBRANCH   7  13
BRANCH   8  15
ATOM     15  O   UNL     1     -34.677 105.024   2.380  0.00  0.00    +0.000 OA
ATOM     16  C   UNL     1     -34.741 106.278   3.014  0.00  0.00    +0.000 C 
ENDBRANCH   8  15
TORSDOF 2
ENDMDL
MODEL 6
REMARK VINA RESULT:      -4.5     15.298     17.096
REMARK  Name = 3136_Dimethoxy.pdbqt.pdb
REMARK  2 active torsions:
REMARK  status: ('A' for Active; 'I' for Inactive)
REMARK    1  A    between atoms: C_7  and  O_13
REMARK    2  A    between atoms: C_8  and  O_15
REMARK                            x       y       z     vdW  Elec       q    Type
REMARK                         _______ _______ _______ _____ _____    ______ ____
ROOT
ATOM      1  O   UNL     1     -23.213 103.033  -0.924  0.00  0.00    +0.000 OA
ATOM      2  O   UNL     1     -26.060 105.639   2.750  0.00  0.00    +0.000 OA
ATOM      3  C   UNL     1     -24.053 103.069   1.258  0.00  0.00    +0.000 A 
ATOM      4  C   UNL     1     -24.773 103.759   2.222  0.00  0.00    +0.000 A 
ATOM      5  C   UNL     1     -23.892 103.620  -0.092  0.00  0.00    +0.000 C 
ATOM      6  C   UNL     1     -25.383 105.058   1.915  0.00  0.00    +0.000 C 
ATOM      7  C   UNL     1     -24.555 104.910  -0.404  0.00  0.00    +0.000 C 
ATOM      8  C   UNL     1     -25.168 105.626   0.561  0.00  0.00    +0.000 C 
ATOM      9  C   UNL     1     -23.474 101.838   1.566  0.00  0.00    +0.000 A 
ATOM     10  C   UNL     1     -24.925 103.221   3.501  0.00  0.00    +0.000 A 
ATOM     11  C   UNL     1     -23.623 101.300   2.842  0.00  0.00    +0.000 A 
ATOM     12  C   UNL     1     -24.348 101.991   3.810  0.00  0.00    +0.000 A 
ENDROOT
BRANCH   7  13
ATOM     13  O   UNL     1     -24.405 105.352  -1.705  0.00  0.00    +0.000 OA
ATOM     14  C   UNL     1     -25.522 104.964  -2.468  0.00  0.00    +0.000 C 
ENDBRANCH   7  13
BRANCH   8  15
ATOM     15  O   UNL     1     -25.726 106.875   0.350  0.00  0.00    +0.000 OA
ATOM     16  C   UNL     1     -24.741 107.867   0.518  0.00  0.00    +0.000 C 
ENDBRANCH   8  15
TORSDOF 2
ENDMDL
MODEL 7
REMARK VINA RESULT:      -4.5     21.469     24.049
REMARK  Name = 3136_Dimethoxy.pdbqt.pdb
REMARK  2 active torsions:
REMARK  status: ('A' for Active; 'I' for Inactive)
REMARK    1  A    between atoms: C_7  and  O_13
REMARK    2  A    between atoms: C_8  and  O_15
REMARK                            x       y       z     vdW  Elec       q    Type
REMARK                         _______ _______ _______ _____ _____    ______ ____
ROOT
ATOM      1  O   UNL     1     -51.372  94.241   0.360  0.00  0.00    +0.000 OA
ATOM      2  O   UNL     1     -51.019  93.704   5.650  0.00  0.00    +0.000 OA
ATOM      3  C   UNL     1     -50.513  95.068   2.371  0.00  0.00    +0.000 A 
ATOM      4  C   UNL     1     -50.442  94.942   3.751  0.00  0.00    +0.000 A 
ATOM      5  C   UNL     1     -51.269  94.098   1.571  0.00  0.00    +0.000 C 
ATOM      6  C   UNL     1     -51.127  93.842   4.439  0.00  0.00    +0.000 C 
ATOM      7  C   UNL     1     -51.915  92.963   2.274  0.00  0.00    +0.000 C 
ATOM      8  C   UNL     1     -51.928  92.899   3.622  0.00  0.00    +0.000 C 
ATOM      9  C   UNL     1     -49.863  96.122   1.731  0.00  0.00    +0.000 A 
ATOM     10  C   UNL     1     -49.715  95.867   4.502  0.00  0.00    +0.000 A 
ATOM     11  C   UNL     1     -49.138  97.047   2.478  0.00  0.00    +0.000 A 
ATOM     12  C   UNL     1     -49.063  96.920   3.863  0.00  0.00    +0.000 A 
ENDROOT
BRANCH   7  13
ATOM     13  O   UNL     1     -52.571  92.059   1.459  0.00  0.00    +0.000 OA
ATOM     14  C   UNL     1     -53.874  92.520   1.195  0.00  0.00    +0.000 C 
ENDBRANCH   7  13
BRANCH   8  15
ATOM     15  O   UNL     1     -52.589  91.914   4.334  0.00  0.00    +0.000 OA
ATOM     16  C   UNL     1     -53.850  92.390   4.741  0.00  0.00    +0.000 C 
ENDBRANCH   8  15
TORSDOF 2
ENDMDL
MODEL 8
REMARK VINA RESULT:      -4.4     12.102     13.457
REMARK  Name = 3136_Dimethoxy.pdbqt.pdb
REMARK  2 active torsions:
REMARK  status: ('A' for Active; 'I' for Inactive)
REMARK    1  A    between atoms: C_7  and  O_13
REMARK    2  A    between atoms: C_8  and  O_15
REMARK                            x       y       z     vdW  Elec       q    Type
REMARK                         _______ _______ _______ _____ _____    ______ ____
ROOT
ATOM      1  O   UNL     1     -22.577 103.948   7.200  0.00  0.00    +0.000 OA
ATOM      2  O   UNL     1     -24.477 100.820   3.327  0.00  0.00    +0.000 OA
ATOM      3  C   UNL     1     -23.756 103.801   5.185  0.00  0.00    +0.000 A 
ATOM      4  C   UNL     1     -24.229 102.989   4.165  0.00  0.00    +0.000 A 
ATOM      5  C   UNL     1     -23.037 103.224   6.327  0.00  0.00    +0.000 C 
ATOM      6  C   UNL     1     -24.014 101.539   4.201  0.00  0.00    +0.000 C 
ATOM      7  C   UNL     1     -22.871 101.751   6.376  0.00  0.00    +0.000 C 
ATOM      8  C   UNL     1     -23.242 100.976   5.336  0.00  0.00    +0.000 C 
ATOM      9  C   UNL     1     -23.962 105.180   5.135  0.00  0.00    +0.000 A 
ATOM     10  C   UNL     1     -24.916 103.549   3.087  0.00  0.00    +0.000 A 
ATOM     11  C   UNL     1     -24.646 105.741   4.059  0.00  0.00    +0.000 A 
ATOM     12  C   UNL     1     -25.124 104.926   3.035  0.00  0.00    +0.000 A 
ENDROOT
BRANCH   7  13
ATOM     13  O   UNL     1     -22.228 101.266   7.500  0.00  0.00    +0.000 OA
ATOM     14  C   UNL     1     -23.181 100.820   8.435  0.00  0.00    +0.000 C 
ENDBRANCH   7  13
BRANCH   8  15
ATOM     15  O   UNL     1     -23.032  99.610   5.287  0.00  0.00    +0.000 OA
ATOM     16  C   UNL     1     -21.734  99.348   4.810  0.00  0.00    +0.000 C 
ENDBRANCH   8  15
TORSDOF 2
ENDMDL
MODEL 9
REMARK VINA RESULT:      -4.3     16.541     18.202
REMARK  Name = 3136_Dimethoxy.pdbqt.pdb
REMARK  2 active torsions:
REMARK  status: ('A' for Active; 'I' for Inactive)
REMARK    1  A    between atoms: C_7  and  O_13
REMARK    2  A    between atoms: C_8  and  O_15
REMARK                            x       y       z     vdW  Elec       q    Type
REMARK                         _______ _______ _______ _____ _____    ______ ____
ROOT
ATOM      1  O   UNL     1     -26.485 107.105  -0.416  0.00  0.00    +0.000 OA
ATOM      2  O   UNL     1     -23.438 102.738  -0.629  0.00  0.00    +0.000 OA
ATOM      3  C   UNL     1     -25.478 105.345   0.750  0.00  0.00    +0.000 A 
ATOM      4  C   UNL     1     -24.705 104.194   0.691  0.00  0.00    +0.000 A 
ATOM      5  C   UNL     1     -25.761 106.119  -0.464  0.00  0.00    +0.000 C 
ATOM      6  C   UNL     1     -24.161 103.723  -0.587  0.00  0.00    +0.000 C 
ATOM      7  C   UNL     1     -25.163 105.658  -1.741  0.00  0.00    +0.000 C 
ATOM      8  C   UNL     1     -24.498 104.487  -1.813  0.00  0.00    +0.000 C 
ATOM      9  C   UNL     1     -25.994 105.778   1.971  0.00  0.00    +0.000 A 
ATOM     10  C   UNL     1     -24.438 103.470   1.853  0.00  0.00    +0.000 A 
ATOM     11  C   UNL     1     -25.730 105.056   3.133  0.00  0.00    +0.000 A 
ATOM     12  C   UNL     1     -24.952 103.902   3.074  0.00  0.00    +0.000 A 
ENDROOT
BRANCH   7  13
ATOM     13  O   UNL     1     -25.428 106.457  -2.838  0.00  0.00    +0.000 OA
ATOM     14  C   UNL     1     -24.352 107.339  -3.052  0.00  0.00    +0.000 C 
ENDBRANCH   7  13
BRANCH   8  15
ATOM     15  O   UNL     1     -23.996 103.964  -2.992  0.00  0.00    +0.000 OA
ATOM     16  C   UNL     1     -24.992 103.204  -3.634  0.00  0.00    +0.000 C 
ENDBRANCH   8  15
TORSDOF 2
ENDMDL
