MODEL 1
REMARK VINA RESULT:      -4.8      0.000      0.000
REMARK  Name = 326_Cuminaldehyde.pdb
REMARK  1 active torsions:
REMARK  status: ('A' for Active; 'I' for Inactive)
REMARK    1  A    between atoms: C_1  and  C_7
REMARK                            x       y       z     vdW  Elec       q    Type
REMARK                         _______ _______ _______ _____ _____    ______ ____
ROOT
ATOM      1  C   UNL     1     -33.397 100.244  14.206  0.00  0.00    +0.000 C 
ATOM      2  C   UNL     1     -33.770 101.195  13.253  0.00  0.00    +0.000 C 
ATOM      3  C   UNL     1     -34.353  99.355  14.702  0.00  0.00    +0.000 C 
ATOM      4  C   UNL     1     -35.086 101.254  12.798  0.00  0.00    +0.000 C 
ATOM      5  C   UNL     1     -35.670  99.415  14.248  0.00  0.00    +0.000 C 
ATOM      6  C   UNL     1     -36.035 100.365  13.297  0.00  0.00    +0.000 C 
ATOM      7  O   UNL     1     -38.493 100.476  12.450  0.00  0.00    +0.000 OA
ATOM      8  C   UNL     1     -37.382 100.426  12.833  0.00  0.00    +0.000 C 
ENDROOT
BRANCH   1   9
ATOM      9  C   UNL     1     -32.018 100.182  14.682  0.00  0.00    +0.000 C 
ATOM     10  C   UNL     1     -31.510  99.002  15.472  0.00  0.00    +0.000 C 
ATOM     11  C   UNL     1     -31.038 101.294  14.404  0.00  0.00    +0.000 C 
ENDBRANCH   1   9
TORSDOF 1
ENDMDL
MODEL 2
REMARK VINA RESULT:      -4.7     14.749     16.264
REMARK  Name = 326_Cuminaldehyde.pdb
REMARK  1 active torsions:
REMARK  status: ('A' for Active; 'I' for Inactive)
REMARK    1  A    between atoms: C_1  and  C_7
REMARK                            x       y       z     vdW  Elec       q    Type
REMARK                         _______ _______ _______ _____ _____    ______ ____
ROOT
ATOM      1  C   UNL     1     -24.245 103.194   1.211  0.00  0.00    +0.000 C 
ATOM      2  C   UNL     1     -24.690 103.787   2.395  0.00  0.00    +0.000 C 
ATOM      3  C   UNL     1     -23.703 101.907   1.248  0.00  0.00    +0.000 C 
ATOM      4  C   UNL     1     -24.595 103.100   3.604  0.00  0.00    +0.000 C 
ATOM      5  C   UNL     1     -23.607 101.219   2.457  0.00  0.00    +0.000 C 
ATOM      6  C   UNL     1     -24.054 101.817   3.634  0.00  0.00    +0.000 C 
ATOM      7  O   UNL     1     -23.875 100.534   5.890  0.00  0.00    +0.000 OA
ATOM      8  C   UNL     1     -23.956 101.114   4.870  0.00  0.00    +0.000 C 
ENDROOT
BRANCH   1   9
ATOM      9  C   UNL     1     -24.345 103.914  -0.055  0.00  0.00    +0.000 C 
ATOM     10  C   UNL     1     -23.714 103.380  -1.317  0.00  0.00    +0.000 C 
ATOM     11  C   UNL     1     -25.085 105.224  -0.159  0.00  0.00    +0.000 C 
ENDBRANCH   1   9
TORSDOF 1
ENDMDL
MODEL 3
REMARK VINA RESULT:      -4.6     14.791     16.126
REMARK  Name = 326_Cuminaldehyde.pdb
REMARK  1 active torsions:
REMARK  status: ('A' for Active; 'I' for Inactive)
REMARK    1  A    between atoms: C_1  and  C_7
REMARK                            x       y       z     vdW  Elec       q    Type
REMARK                         _______ _______ _______ _____ _____    ______ ____
ROOT
ATOM      1  C   UNL     1     -24.383 102.378   2.877  0.00  0.00    +0.000 C 
ATOM      2  C   UNL     1     -24.926 103.665   2.843  0.00  0.00    +0.000 C 
ATOM      3  C   UNL     1     -23.795 101.849   1.725  0.00  0.00    +0.000 C 
ATOM      4  C   UNL     1     -24.879 104.416   1.669  0.00  0.00    +0.000 C 
ATOM      5  C   UNL     1     -23.748 102.600   0.551  0.00  0.00    +0.000 C 
ATOM      6  C   UNL     1     -24.291 103.883   0.526  0.00  0.00    +0.000 C 
ATOM      7  O   UNL     1     -24.204 105.284  -1.665  0.00  0.00    +0.000 OA
ATOM      8  C   UNL     1     -24.243 104.651  -0.675  0.00  0.00    +0.000 C 
ENDROOT
BRANCH   1   9
ATOM      9  C   UNL     1     -24.432 101.592   4.106  0.00  0.00    +0.000 C 
ATOM     10  C   UNL     1     -25.411 100.458   4.277  0.00  0.00    +0.000 C 
ATOM     11  C   UNL     1     -23.504 101.877   5.260  0.00  0.00    +0.000 C 
ENDBRANCH   1   9
TORSDOF 1
ENDMDL
MODEL 4
REMARK VINA RESULT:      -4.6     16.383     17.644
REMARK  Name = 326_Cuminaldehyde.pdb
REMARK  1 active torsions:
REMARK  status: ('A' for Active; 'I' for Inactive)
REMARK    1  A    between atoms: C_1  and  C_7
REMARK                            x       y       z     vdW  Elec       q    Type
REMARK                         _______ _______ _______ _____ _____    ______ ____
ROOT
ATOM      1  C   UNL     1     -24.826 104.248   1.225  0.00  0.00    +0.000 C 
ATOM      2  C   UNL     1     -25.258 105.102   0.207  0.00  0.00    +0.000 C 
ATOM      3  C   UNL     1     -24.018 103.154   0.907  0.00  0.00    +0.000 C 
ATOM      4  C   UNL     1     -24.884 104.866  -1.115  0.00  0.00    +0.000 C 
ATOM      5  C   UNL     1     -23.644 102.917  -0.415  0.00  0.00    +0.000 C 
ATOM      6  C   UNL     1     -24.078 103.774  -1.424  0.00  0.00    +0.000 C 
ATOM      7  O   UNL     1     -23.381 103.331  -3.892  0.00  0.00    +0.000 OA
ATOM      8  C   UNL     1     -23.696 103.531  -2.777  0.00  0.00    +0.000 C 
ENDROOT
BRANCH   1   9
ATOM      9  C   UNL     1     -25.217 104.496   2.609  0.00  0.00    +0.000 C 
ATOM     10  C   UNL     1     -26.143 105.629   2.975  0.00  0.00    +0.000 C 
ATOM     11  C   UNL     1     -24.713 103.630   3.737  0.00  0.00    +0.000 C 
ENDBRANCH   1   9
TORSDOF 1
ENDMDL
MODEL 5
REMARK VINA RESULT:      -4.5     15.443     16.926
REMARK  Name = 326_Cuminaldehyde.pdb
REMARK  1 active torsions:
REMARK  status: ('A' for Active; 'I' for Inactive)
REMARK    1  A    between atoms: C_1  and  C_7
REMARK                            x       y       z     vdW  Elec       q    Type
REMARK                         _______ _______ _______ _____ _____    ______ ____
ROOT
ATOM      1  C   UNL     1     -24.404 103.694   0.327  0.00  0.00    +0.000 C 
ATOM      2  C   UNL     1     -23.716 102.502   0.567  0.00  0.00    +0.000 C 
ATOM      3  C   UNL     1     -24.961 104.394   1.399  0.00  0.00    +0.000 C 
ATOM      4  C   UNL     1     -23.585 102.016   1.867  0.00  0.00    +0.000 C 
ATOM      5  C   UNL     1     -24.832 103.909   2.699  0.00  0.00    +0.000 C 
ATOM      6  C   UNL     1     -24.144 102.720   2.931  0.00  0.00    +0.000 C 
ATOM      7  O   UNL     1     -23.903 101.812   5.358  0.00  0.00    +0.000 OA
ATOM      8  C   UNL     1     -24.012 102.223   4.261  0.00  0.00    +0.000 C 
ENDROOT
BRANCH   1   9
ATOM      9  C   UNL     1     -24.539 104.203  -1.035  0.00  0.00    +0.000 C 
ATOM     10  C   UNL     1     -25.213 105.522  -1.320  0.00  0.00    +0.000 C 
ATOM     11  C   UNL     1     -24.010 103.434  -2.219  0.00  0.00    +0.000 C 
ENDBRANCH   1   9
TORSDOF 1
ENDMDL
MODEL 6
REMARK VINA RESULT:      -4.4     14.456     15.654
REMARK  Name = 326_Cuminaldehyde.pdb
REMARK  1 active torsions:
REMARK  status: ('A' for Active; 'I' for Inactive)
REMARK    1  A    between atoms: C_1  and  C_7
REMARK                            x       y       z     vdW  Elec       q    Type
REMARK                         _______ _______ _______ _____ _____    ______ ____
ROOT
ATOM      1  C   UNL     1     -24.434 103.225   2.828  0.00  0.00    +0.000 C 
ATOM      2  C   UNL     1     -23.867 102.191   2.078  0.00  0.00    +0.000 C 
ATOM      3  C   UNL     1     -24.371 103.176   4.223  0.00  0.00    +0.000 C 
ATOM      4  C   UNL     1     -23.242 101.121   2.716  0.00  0.00    +0.000 C 
ATOM      5  C   UNL     1     -23.747 102.106   4.862  0.00  0.00    +0.000 C 
ATOM      6  C   UNL     1     -23.183 101.079   4.106  0.00  0.00    +0.000 C 
ATOM      7  O   UNL     1     -22.018  99.081   5.298  0.00  0.00    +0.000 OA
ATOM      8  C   UNL     1     -22.545  99.984   4.760  0.00  0.00    +0.000 C 
ENDROOT
BRANCH   1   9
ATOM      9  C   UNL     1     -25.088 104.346   2.159  0.00  0.00    +0.000 C 
ATOM     10  C   UNL     1     -24.978 104.547   0.668  0.00  0.00    +0.000 C 
ATOM     11  C   UNL     1     -25.902 105.355   2.929  0.00  0.00    +0.000 C 
ENDBRANCH   1   9
TORSDOF 1
ENDMDL
MODEL 7
REMARK VINA RESULT:      -4.3     18.322     19.838
REMARK  Name = 326_Cuminaldehyde.pdb
REMARK  1 active torsions:
REMARK  status: ('A' for Active; 'I' for Inactive)
REMARK    1  A    between atoms: C_1  and  C_7
REMARK                            x       y       z     vdW  Elec       q    Type
REMARK                         _______ _______ _______ _____ _____    ______ ____
ROOT
ATOM      1  C   UNL     1     -49.624  96.174   3.092  0.00  0.00    +0.000 C 
ATOM      2  C   UNL     1     -50.226  95.515   2.017  0.00  0.00    +0.000 C 
ATOM      3  C   UNL     1     -49.712  95.623   4.372  0.00  0.00    +0.000 C 
ATOM      4  C   UNL     1     -50.909  94.317   2.220  0.00  0.00    +0.000 C 
ATOM      5  C   UNL     1     -50.395  94.425   4.577  0.00  0.00    +0.000 C 
ATOM      6  C   UNL     1     -50.993  93.774   3.500  0.00  0.00    +0.000 C 
ATOM      7  O   UNL     1     -52.268  91.538   3.881  0.00  0.00    +0.000 OA
ATOM      8  C   UNL     1     -51.691  92.548   3.709  0.00  0.00    +0.000 C 
ENDROOT
BRANCH   1   9
ATOM      9  C   UNL     1     -48.908  97.428   2.878  0.00  0.00    +0.000 C 
ATOM     10  C   UNL     1     -49.001  98.566   3.864  0.00  0.00    +0.000 C 
ATOM     11  C   UNL     1     -48.043  97.644   1.661  0.00  0.00    +0.000 C 
ENDBRANCH   1   9
TORSDOF 1
ENDMDL
MODEL 8
REMARK VINA RESULT:      -4.3     16.542     17.705
REMARK  Name = 326_Cuminaldehyde.pdb
REMARK  1 active torsions:
REMARK  status: ('A' for Active; 'I' for Inactive)
REMARK    1  A    between atoms: C_1  and  C_7
REMARK                            x       y       z     vdW  Elec       q    Type
REMARK                         _______ _______ _______ _____ _____    ______ ____
ROOT
ATOM      1  C   UNL     1     -24.275 103.521   0.910  0.00  0.00    +0.000 C 
ATOM      2  C   UNL     1     -25.075 104.659   0.787  0.00  0.00    +0.000 C 
ATOM      3  C   UNL     1     -23.747 102.925  -0.238  0.00  0.00    +0.000 C 
ATOM      4  C   UNL     1     -25.343 105.198  -0.471  0.00  0.00    +0.000 C 
ATOM      5  C   UNL     1     -24.014 103.462  -1.496  0.00  0.00    +0.000 C 
ATOM      6  C   UNL     1     -24.813 104.598  -1.611  0.00  0.00    +0.000 C 
ATOM      7  O   UNL     1     -25.313 105.601  -3.959  0.00  0.00    +0.000 OA
ATOM      8  C   UNL     1     -25.087 105.148  -2.898  0.00  0.00    +0.000 C 
ENDROOT
BRANCH   1   9
ATOM      9  C   UNL     1     -23.994 102.958   2.227  0.00  0.00    +0.000 C 
ATOM     10  C   UNL     1     -23.010 101.829   2.408  0.00  0.00    +0.000 C 
ATOM     11  C   UNL     1     -24.675 103.479   3.467  0.00  0.00    +0.000 C 
ENDBRANCH   1   9
TORSDOF 1
ENDMDL
MODEL 9
REMARK VINA RESULT:      -4.3      4.193      5.353
REMARK  Name = 326_Cuminaldehyde.pdb
REMARK  1 active torsions:
REMARK  status: ('A' for Active; 'I' for Inactive)
REMARK    1  A    between atoms: C_1  and  C_7
REMARK                            x       y       z     vdW  Elec       q    Type
REMARK                         _______ _______ _______ _____ _____    ______ ____
ROOT
ATOM      1  C   UNL     1     -29.635 100.550  15.469  0.00  0.00    +0.000 C 
ATOM      2  C   UNL     1     -29.449  99.907  16.696  0.00  0.00    +0.000 C 
ATOM      3  C   UNL     1     -30.731 100.207  14.674  0.00  0.00    +0.000 C 
ATOM      4  C   UNL     1     -30.350  98.934  17.123  0.00  0.00    +0.000 C 
ATOM      5  C   UNL     1     -31.632  99.233  15.100  0.00  0.00    +0.000 C 
ATOM      6  C   UNL     1     -31.440  98.598  16.325  0.00  0.00    +0.000 C 
ATOM      7  O   UNL     1     -33.123  96.779  17.121  0.00  0.00    +0.000 OA
ATOM      8  C   UNL     1     -32.362  97.601  16.761  0.00  0.00    +0.000 C 
ENDROOT
BRANCH   1   9
ATOM      9  C   UNL     1     -28.691 101.570  15.023  0.00  0.00    +0.000 C 
ATOM     10  C   UNL     1     -27.202 101.334  15.056  0.00  0.00    +0.000 C 
ATOM     11  C   UNL     1     -29.162 102.907  14.507  0.00  0.00    +0.000 C 
ENDBRANCH   1   9
TORSDOF 1
ENDMDL
