MODEL 1
REMARK VINA RESULT:      -4.9      0.000      0.000
REMARK  Name = 3363_5FluorouracilDeoxyriboside.pdbqt.pdb
REMARK  4 active torsions:
REMARK  status: ('A' for Active; 'I' for Inactive)
REMARK    1  A    between atoms: N_4  and  C1*_13
REMARK    2  A    between atoms: C3*_12  and  O3*_16
REMARK    3  A    between atoms: C4*_15  and  C5*_18
REMARK    4  A    between atoms: C5*_18  and  O5*_19
REMARK                            x       y       z     vdW  Elec       q    Type
REMARK                         _______ _______ _______ _____ _____    ______ ____
ROOT
ATOM      1  F   UNL     1     -37.659  92.011 -11.760  0.00  0.00    +0.000 F 
ATOM      2  O   UNL     1     -35.980  89.904  -7.042  0.00  0.00    +0.000 OA
ATOM      3  O   UNL     1     -35.264  90.522 -11.533  0.00  0.00    +0.000 OA
ATOM      4  N   UNL     1     -37.446  91.356  -8.210  0.00  0.00    +0.000 N 
ATOM      5  N   UNL     1     -35.623  90.315  -9.268  0.00  0.00    +0.000 N 
ATOM      6  C   UNL     1     -36.340  90.486  -8.058  0.00  0.00    +0.000 C 
ATOM      7  C   UNL     1     -37.653  91.881  -9.435  0.00  0.00    +0.000 C 
ATOM      8  C   UNL     1     -37.062  91.786 -10.577  0.00  0.00    +0.000 C 
ATOM      9  C   UNL     1     -35.905  90.836 -10.538  0.00  0.00    +0.000 C 
ATOM     10  H   UNL     1     -34.847  89.670  -9.218  0.00  0.00    +0.000 HD
ENDROOT
BRANCH   4  13
ATOM     11  O4* UNL     1     -39.437  90.904  -6.911  0.00  0.00    +0.000 OA
ATOM     12  C3* UNL     1     -39.339  92.684  -5.431  0.00  0.00    +0.000 A 
ATOM     13  C1* UNL     1     -38.307  91.680  -7.199  0.00  0.00    +0.000 A 
ATOM     14  C2* UNL     1     -38.235  92.760  -6.298  0.00  0.00    +0.000 A 
ATOM     15  C4* UNL     1     -40.080  91.512  -5.826  0.00  0.00    +0.000 A 
BRANCH  12  16
ATOM     16  O3* UNL     1     -39.313  93.123  -4.137  0.00  0.00    +0.000 OA
ATOM     17  H3* UNL     1     -40.046  93.735  -3.942  0.00  0.00    +0.000 HD
ENDBRANCH  12  16
BRANCH  15  18
ATOM     18  C5* UNL     1     -41.146  90.898  -5.139  0.00  0.00    +0.000 C 
BRANCH  18  19
ATOM     19  O5* UNL     1     -42.145  90.328  -4.473  0.00  0.00    +0.000 OA
ATOM     20  H5* UNL     1     -42.295  89.420  -4.790  0.00  0.00    +0.000 HD
ENDBRANCH  18  19
ENDBRANCH  15  18
ENDBRANCH   4  13
TORSDOF 4
ENDMDL
MODEL 2
REMARK VINA RESULT:      -4.8     24.402     26.377
REMARK  Name = 3363_5FluorouracilDeoxyriboside.pdbqt.pdb
REMARK  4 active torsions:
REMARK  status: ('A' for Active; 'I' for Inactive)
REMARK    1  A    between atoms: N_4  and  C1*_13
REMARK    2  A    between atoms: C3*_12  and  O3*_16
REMARK    3  A    between atoms: C4*_15  and  C5*_18
REMARK    4  A    between atoms: C5*_18  and  O5*_19
REMARK                            x       y       z     vdW  Elec       q    Type
REMARK                         _______ _______ _______ _____ _____    ______ ____
ROOT
ATOM      1  F   UNL     1     -30.078 101.976  18.995  0.00  0.00    +0.000 F 
ATOM      2  O   UNL     1     -30.418  97.863  15.463  0.00  0.00    +0.000 OA
ATOM      3  O   UNL     1     -28.380  99.718  19.133  0.00  0.00    +0.000 OA
ATOM      4  N   UNL     1     -31.356  99.841  16.371  0.00  0.00    +0.000 N 
ATOM      5  N   UNL     1     -29.492  98.789  17.343  0.00  0.00    +0.000 N 
ATOM      6  C   UNL     1     -30.448  98.758  16.299  0.00  0.00    +0.000 C 
ATOM      7  C   UNL     1     -31.192 100.715  17.384  0.00  0.00    +0.000 C 
ATOM      8  C   UNL     1     -30.365 100.823  18.369  0.00  0.00    +0.000 C 
ATOM      9  C   UNL     1     -29.320  99.749  18.349  0.00  0.00    +0.000 C 
ATOM     10  H   UNL     1     -28.798  98.057  17.310  0.00  0.00    +0.000 HD
ENDROOT
BRANCH   4  13
ATOM     11  O4* UNL     1     -33.517  99.249  15.457  0.00  0.00    +0.000 OA
ATOM     12  C3* UNL     1     -33.692 100.871  13.812  0.00  0.00    +0.000 A 
ATOM     13  C1* UNL     1     -32.368 100.051  15.477  0.00  0.00    +0.000 A 
ATOM     14  C2* UNL     1     -32.471 101.045  14.486  0.00  0.00    +0.000 A 
ATOM     15  C4* UNL     1     -34.338  99.743  14.437  0.00  0.00    +0.000 A 
BRANCH  12  16
ATOM     16  O3* UNL     1     -34.404 101.900  13.261  0.00  0.00    +0.000 OA
ATOM     17  H3* UNL     1     -34.262 102.739  13.736  0.00  0.00    +0.000 HD
ENDBRANCH  12  16
BRANCH  15  18
ATOM     18  C5* UNL     1     -35.665  99.304  14.255  0.00  0.00    +0.000 C 
BRANCH  18  19
ATOM     19  O5* UNL     1     -36.916  98.899  14.064  0.00  0.00    +0.000 OA
ATOM     20  H5* UNL     1     -37.167  98.987  13.128  0.00  0.00    +0.000 HD
ENDBRANCH  18  19
ENDBRANCH  15  18
ENDBRANCH   4  13
TORSDOF 4
ENDMDL
MODEL 3
REMARK VINA RESULT:      -4.7     23.317     24.331
REMARK  Name = 3363_5FluorouracilDeoxyriboside.pdbqt.pdb
REMARK  4 active torsions:
REMARK  status: ('A' for Active; 'I' for Inactive)
REMARK    1  A    between atoms: N_4  and  C1*_13
REMARK    2  A    between atoms: C3*_12  and  O3*_16
REMARK    3  A    between atoms: C4*_15  and  C5*_18
REMARK    4  A    between atoms: C5*_18  and  O5*_19
REMARK                            x       y       z     vdW  Elec       q    Type
REMARK                         _______ _______ _______ _____ _____    ______ ____
ROOT
ATOM      1  F   UNL     1     -29.867  85.828  10.579  0.00  0.00    +0.000 F 
ATOM      2  O   UNL     1     -26.210  86.064  14.590  0.00  0.00    +0.000 OA
ATOM      3  O   UNL     1     -27.518  84.251  10.581  0.00  0.00    +0.000 OA
ATOM      4  N   UNL     1     -28.120  86.983  13.527  0.00  0.00    +0.000 N 
ATOM      5  N   UNL     1     -26.862  85.255  12.548  0.00  0.00    +0.000 N 
ATOM      6  C   UNL     1     -27.004  86.123  13.658  0.00  0.00    +0.000 C 
ATOM      7  C   UNL     1     -28.862  86.862  12.408  0.00  0.00    +0.000 C 
ATOM      8  C   UNL     1     -28.811  86.115  11.358  0.00  0.00    +0.000 C 
ATOM      9  C   UNL     1     -27.691  85.122  11.425  0.00  0.00    +0.000 C 
ATOM     10  H   UNL     1     -26.102  84.594  12.615  0.00  0.00    +0.000 HD
ENDROOT
BRANCH   4  13
ATOM     11  O4* UNL     1     -29.075  87.538  15.680  0.00  0.00    +0.000 OA
ATOM     12  C3* UNL     1     -28.856  89.844  15.610  0.00  0.00    +0.000 A 
ATOM     13  C1* UNL     1     -28.486  87.908  14.464  0.00  0.00    +0.000 A 
ATOM     14  C2* UNL     1     -28.341  89.308  14.417  0.00  0.00    +0.000 A 
ATOM     15  C4* UNL     1     -29.308  88.720  16.394  0.00  0.00    +0.000 A 
BRANCH  12  16
ATOM     16  O3* UNL     1     -28.383  90.988  16.190  0.00  0.00    +0.000 OA
ATOM     17  H3* UNL     1     -29.087  91.644  16.336  0.00  0.00    +0.000 HD
ENDBRANCH  12  16
BRANCH  15  18
ATOM     18  C5* UNL     1     -29.712  88.721  17.743  0.00  0.00    +0.000 C 
BRANCH  18  19
ATOM     19  O5* UNL     1     -30.099  88.743  19.014  0.00  0.00    +0.000 OA
ATOM     20  H5* UNL     1     -29.347  88.561  19.605  0.00  0.00    +0.000 HD
ENDBRANCH  18  19
ENDBRANCH  15  18
ENDBRANCH   4  13
TORSDOF 4
ENDMDL
MODEL 4
REMARK VINA RESULT:      -4.5     14.256     15.878
REMARK  Name = 3363_5FluorouracilDeoxyriboside.pdbqt.pdb
REMARK  4 active torsions:
REMARK  status: ('A' for Active; 'I' for Inactive)
REMARK    1  A    between atoms: N_4  and  C1*_13
REMARK    2  A    between atoms: C3*_12  and  O3*_16
REMARK    3  A    between atoms: C4*_15  and  C5*_18
REMARK    4  A    between atoms: C5*_18  and  O5*_19
REMARK                            x       y       z     vdW  Elec       q    Type
REMARK                         _______ _______ _______ _____ _____    ______ ____
ROOT
ATOM      1  F   UNL     1     -35.902 101.893   2.581  0.00  0.00    +0.000 F 
ATOM      2  O   UNL     1     -40.456 104.136   4.516  0.00  0.00    +0.000 OA
ATOM      3  O   UNL     1     -35.870 104.100   4.351  0.00  0.00    +0.000 OA
ATOM      4  N   UNL     1     -39.413 102.663   2.978  0.00  0.00    +0.000 N 
ATOM      5  N   UNL     1     -38.172 104.133   4.330  0.00  0.00    +0.000 N 
ATOM      6  C   UNL     1     -39.462 103.670   3.972  0.00  0.00    +0.000 C 
ATOM      7  C   UNL     1     -38.194 102.301   2.528  0.00  0.00    +0.000 C 
ATOM      8  C   UNL     1     -36.984 102.662   2.789  0.00  0.00    +0.000 C 
ATOM      9  C   UNL     1     -36.922 103.690   3.878  0.00  0.00    +0.000 C 
ATOM     10  H   UNL     1     -38.155 104.824   5.066  0.00  0.00    +0.000 HD
ENDROOT
BRANCH   4  13
ATOM     11  O4* UNL     1     -41.654 101.790   3.243  0.00  0.00    +0.000 OA
ATOM     12  C3* UNL     1     -42.016 101.012   1.091  0.00  0.00    +0.000 A 
ATOM     13  C1* UNL     1     -40.516 102.041   2.466  0.00  0.00    +0.000 A 
ATOM     14  C2* UNL     1     -40.731 101.579   1.153  0.00  0.00    +0.000 A 
ATOM     15  C4* UNL     1     -42.584 101.157   2.409  0.00  0.00    +0.000 A 
BRANCH  12  16
ATOM     16  O3* UNL     1     -42.791 101.019  -0.035  0.00  0.00    +0.000 OA
ATOM     17  H3* UNL     1     -42.917 100.124  -0.399  0.00  0.00    +0.000 HD
ENDBRANCH  12  16
BRANCH  15  18
ATOM     18  C5* UNL     1     -43.918 100.931   2.799  0.00  0.00    +0.000 C 
BRANCH  18  19
ATOM     19  O5* UNL     1     -45.179 100.704   3.152  0.00  0.00    +0.000 OA
ATOM     20  H5* UNL     1     -45.714 100.460   2.376  0.00  0.00    +0.000 HD
ENDBRANCH  18  19
ENDBRANCH  15  18
ENDBRANCH   4  13
TORSDOF 4
ENDMDL
MODEL 5
REMARK VINA RESULT:      -4.4     24.461     26.447
REMARK  Name = 3363_5FluorouracilDeoxyriboside.pdbqt.pdb
REMARK  4 active torsions:
REMARK  status: ('A' for Active; 'I' for Inactive)
REMARK    1  A    between atoms: N_4  and  C1*_13
REMARK    2  A    between atoms: C3*_12  and  O3*_16
REMARK    3  A    between atoms: C4*_15  and  C5*_18
REMARK    4  A    between atoms: C5*_18  and  O5*_19
REMARK                            x       y       z     vdW  Elec       q    Type
REMARK                         _______ _______ _______ _____ _____    ______ ____
ROOT
ATOM      1  F   UNL     1     -30.439 102.294  18.520  0.00  0.00    +0.000 F 
ATOM      2  O   UNL     1     -31.056  97.727  15.644  0.00  0.00    +0.000 OA
ATOM      3  O   UNL     1     -28.264 100.601  17.882  0.00  0.00    +0.000 OA
ATOM      4  N   UNL     1     -32.040  99.515  16.850  0.00  0.00    +0.000 N 
ATOM      5  N   UNL     1     -29.718  99.146  16.847  0.00  0.00    +0.000 N 
ATOM      6  C   UNL     1     -30.980  98.705  16.378  0.00  0.00    +0.000 C 
ATOM      7  C   UNL     1     -31.714 100.551  17.650  0.00  0.00    +0.000 C 
ATOM      8  C   UNL     1     -30.611 101.022  18.125  0.00  0.00    +0.000 C 
ATOM      9  C   UNL     1     -29.415 100.265  17.634  0.00  0.00    +0.000 C 
ATOM     10  H   UNL     1     -28.927  98.622  16.504  0.00  0.00    +0.000 HD
ENDROOT
BRANCH   4  13
ATOM     11  O4* UNL     1     -33.861  99.578  15.258  0.00  0.00    +0.000 OA
ATOM     12  C3* UNL     1     -35.570  98.777  16.602  0.00  0.00    +0.000 A 
ATOM     13  C1* UNL     1     -33.354  99.312  16.537  0.00  0.00    +0.000 A 
ATOM     14  C2* UNL     1     -34.385  98.816  17.358  0.00  0.00    +0.000 A 
ATOM     15  C4* UNL     1     -35.222  99.253  15.285  0.00  0.00    +0.000 A 
BRANCH  12  16
ATOM     16  O3* UNL     1     -36.562  97.858  16.801  0.00  0.00    +0.000 OA
ATOM     17  H3* UNL     1     -37.208  98.154  17.467  0.00  0.00    +0.000 HD
ENDBRANCH  12  16
BRANCH  15  18
ATOM     18  C5* UNL     1     -36.013  99.209  14.120  0.00  0.00    +0.000 C 
BRANCH  18  19
ATOM     19  O5* UNL     1     -36.755  99.147  13.019  0.00  0.00    +0.000 OA
ATOM     20  H5* UNL     1     -37.548  99.704  13.108  0.00  0.00    +0.000 HD
ENDBRANCH  18  19
ENDBRANCH  15  18
ENDBRANCH   4  13
TORSDOF 4
ENDMDL
MODEL 6
REMARK VINA RESULT:      -4.3      8.937      9.887
REMARK  Name = 3363_5FluorouracilDeoxyriboside.pdbqt.pdb
REMARK  4 active torsions:
REMARK  status: ('A' for Active; 'I' for Inactive)
REMARK    1  A    between atoms: N_4  and  C1*_13
REMARK    2  A    between atoms: C3*_12  and  O3*_16
REMARK    3  A    between atoms: C4*_15  and  C5*_18
REMARK    4  A    between atoms: C5*_18  and  O5*_19
REMARK                            x       y       z     vdW  Elec       q    Type
REMARK                         _______ _______ _______ _____ _____    ______ ____
ROOT
ATOM      1  F   UNL     1     -34.336  93.786 -17.358  0.00  0.00    +0.000 F 
ATOM      2  O   UNL     1     -30.614  95.218 -13.669  0.00  0.00    +0.000 OA
ATOM      3  O   UNL     1     -31.849  92.457 -17.121  0.00  0.00    +0.000 OA
ATOM      4  N   UNL     1     -32.629  95.711 -14.817  0.00  0.00    +0.000 N 
ATOM      5  N   UNL     1     -31.240  93.924 -15.453  0.00  0.00    +0.000 N 
ATOM      6  C   UNL     1     -31.434  95.000 -14.553  0.00  0.00    +0.000 C 
ATOM      7  C   UNL     1     -33.385  95.282 -15.848  0.00  0.00    +0.000 C 
ATOM      8  C   UNL     1     -33.291  94.328 -16.711  0.00  0.00    +0.000 C 
ATOM      9  C   UNL     1     -32.081  93.475 -16.480  0.00  0.00    +0.000 C 
ATOM     10  H   UNL     1     -30.419  93.362 -15.279  0.00  0.00    +0.000 HD
ENDROOT
BRANCH   4  13
ATOM     11  O4* UNL     1     -33.503  96.654 -12.767  0.00  0.00    +0.000 OA
ATOM     12  C3* UNL     1     -33.614  98.883 -13.391  0.00  0.00    +0.000 A 
ATOM     13  C1* UNL     1     -33.055  96.785 -14.088  0.00  0.00    +0.000 A 
ATOM     14  C2* UNL     1     -33.112  98.139 -14.473  0.00  0.00    +0.000 A 
ATOM     15  C4* UNL     1     -33.849  97.937 -12.327  0.00  0.00    +0.000 A 
BRANCH  12  16
ATOM     16  O3* UNL     1     -33.266 100.181 -13.142  0.00  0.00    +0.000 OA
ATOM     17  H3* UNL     1     -32.388 100.402 -13.503  0.00  0.00    +0.000 HD
ENDBRANCH  12  16
BRANCH  15  18
ATOM     18  C5* UNL     1     -34.156  98.218 -10.981  0.00  0.00    +0.000 C 
BRANCH  18  19
ATOM     19  O5* UNL     1     -34.466  98.488  -9.718  0.00  0.00    +0.000 OA
ATOM     20  H5* UNL     1     -35.392  98.253  -9.533  0.00  0.00    +0.000 HD
ENDBRANCH  18  19
ENDBRANCH  15  18
ENDBRANCH   4  13
TORSDOF 4
ENDMDL
MODEL 7
REMARK VINA RESULT:      -4.2     26.553     28.400
REMARK  Name = 3363_5FluorouracilDeoxyriboside.pdbqt.pdb
REMARK  4 active torsions:
REMARK  status: ('A' for Active; 'I' for Inactive)
REMARK    1  A    between atoms: N_4  and  C1*_13
REMARK    2  A    between atoms: C3*_12  and  O3*_16
REMARK    3  A    between atoms: C4*_15  and  C5*_18
REMARK    4  A    between atoms: C5*_18  and  O5*_19
REMARK                            x       y       z     vdW  Elec       q    Type
REMARK                         _______ _______ _______ _____ _____    ______ ____
ROOT
ATOM      1  F   UNL     1     -29.175 103.897  19.348  0.00  0.00    +0.000 F 
ATOM      2  O   UNL     1     -27.676 101.051  14.971  0.00  0.00    +0.000 OA
ATOM      3  O   UNL     1     -27.212 104.828  17.536  0.00  0.00    +0.000 OA
ATOM      4  N   UNL     1     -28.830 101.135  17.039  0.00  0.00    +0.000 N 
ATOM      5  N   UNL     1     -27.418 102.876  16.332  0.00  0.00    +0.000 N 
ATOM      6  C   UNL     1     -27.965 101.607  16.024  0.00  0.00    +0.000 C 
ATOM      7  C   UNL     1     -29.005 101.928  18.116  0.00  0.00    +0.000 C 
ATOM      8  C   UNL     1     -28.555 103.081  18.480  0.00  0.00    +0.000 C 
ATOM      9  C   UNL     1     -27.669 103.696  17.440  0.00  0.00    +0.000 C 
ATOM     10  H   UNL     1     -26.824 103.272  15.617  0.00  0.00    +0.000 HD
ENDROOT
BRANCH   4  13
ATOM     11  O4* UNL     1     -29.790  99.205  18.137  0.00  0.00    +0.000 OA
ATOM     12  C3* UNL     1     -30.612  98.082  16.284  0.00  0.00    +0.000 A 
ATOM     13  C1* UNL     1     -29.495  99.943  16.984  0.00  0.00    +0.000 A 
ATOM     14  C2* UNL     1     -29.999  99.272  15.853  0.00  0.00    +0.000 A 
ATOM     15  C4* UNL     1     -30.477  98.058  17.720  0.00  0.00    +0.000 A 
BRANCH  12  16
ATOM     16  O3* UNL     1     -31.676  97.508  15.647  0.00  0.00    +0.000 OA
ATOM     17  H3* UNL     1     -32.368  98.159  15.429  0.00  0.00    +0.000 HD
ENDBRANCH  12  16
BRANCH  15  18
ATOM     18  C5* UNL     1     -31.102  97.179  18.627  0.00  0.00    +0.000 C 
BRANCH  18  19
ATOM     19  O5* UNL     1     -31.678  96.357  19.496  0.00  0.00    +0.000 OA
ATOM     20  H5* UNL     1     -31.777  96.787  20.363  0.00  0.00    +0.000 HD
ENDBRANCH  18  19
ENDBRANCH  15  18
ENDBRANCH   4  13
TORSDOF 4
ENDMDL
MODEL 8
REMARK VINA RESULT:      -4.1     31.770     32.903
REMARK  Name = 3363_5FluorouracilDeoxyriboside.pdbqt.pdb
REMARK  4 active torsions:
REMARK  status: ('A' for Active; 'I' for Inactive)
REMARK    1  A    between atoms: N_4  and  C1*_13
REMARK    2  A    between atoms: C3*_12  and  O3*_16
REMARK    3  A    between atoms: C4*_15  and  C5*_18
REMARK    4  A    between atoms: C5*_18  and  O5*_19
REMARK                            x       y       z     vdW  Elec       q    Type
REMARK                         _______ _______ _______ _____ _____    ______ ____
ROOT
ATOM      1  F   UNL     1     -20.010  90.173  15.976  0.00  0.00    +0.000 F 
ATOM      2  O   UNL     1     -22.202  89.523  20.904  0.00  0.00    +0.000 OA
ATOM      3  O   UNL     1     -21.412  87.829  16.712  0.00  0.00    +0.000 OA
ATOM      4  N   UNL     1     -20.770  90.747  19.464  0.00  0.00    +0.000 N 
ATOM      5  N   UNL     1     -21.705  88.686  18.829  0.00  0.00    +0.000 N 
ATOM      6  C   UNL     1     -21.601  89.667  19.845  0.00  0.00    +0.000 C 
ATOM      7  C   UNL     1     -20.215  90.693  18.237  0.00  0.00    +0.000 C 
ATOM      8  C   UNL     1     -20.250  89.853  17.258  0.00  0.00    +0.000 C 
ATOM      9  C   UNL     1     -21.155  88.693  17.540  0.00  0.00    +0.000 C 
ATOM     10  H   UNL     1     -22.321  87.914  19.041  0.00  0.00    +0.000 HD
ENDROOT
BRANCH   4  13
ATOM     11  O4* UNL     1     -19.299  91.974  20.943  0.00  0.00    +0.000 OA
ATOM     12  C3* UNL     1     -20.646  93.806  21.387  0.00  0.00    +0.000 A 
ATOM     13  C1* UNL     1     -20.512  91.830  20.257  0.00  0.00    +0.000 A 
ATOM     14  C2* UNL     1     -21.334  92.944  20.515  0.00  0.00    +0.000 A 
ATOM     15  C4* UNL     1     -19.369  93.185  21.641  0.00  0.00    +0.000 A 
BRANCH  12  16
ATOM     16  O3* UNL     1     -20.804  95.163  21.385  0.00  0.00    +0.000 OA
ATOM     17  H3* UNL     1     -21.472  95.455  20.738  0.00  0.00    +0.000 HD
ENDBRANCH  12  16
BRANCH  15  18
ATOM     18  C5* UNL     1     -18.253  93.752  22.286  0.00  0.00    +0.000 C 
BRANCH  18  19
ATOM     19  O5* UNL     1     -17.194  94.296  22.876  0.00  0.00    +0.000 OA
ATOM     20  H5* UNL     1     -16.611  93.607  23.241  0.00  0.00    +0.000 HD
ENDBRANCH  18  19
ENDBRANCH  15  18
ENDBRANCH   4  13
TORSDOF 4
ENDMDL
MODEL 9
REMARK VINA RESULT:      -4.0     19.118     20.245
REMARK  Name = 3363_5FluorouracilDeoxyriboside.pdbqt.pdb
REMARK  4 active torsions:
REMARK  status: ('A' for Active; 'I' for Inactive)
REMARK    1  A    between atoms: N_4  and  C1*_13
REMARK    2  A    between atoms: C3*_12  and  O3*_16
REMARK    3  A    between atoms: C4*_15  and  C5*_18
REMARK    4  A    between atoms: C5*_18  and  O5*_19
REMARK                            x       y       z     vdW  Elec       q    Type
REMARK                         _______ _______ _______ _____ _____    ______ ____
ROOT
ATOM      1  F   UNL     1     -29.901  78.689   6.131  0.00  0.00    +0.000 F 
ATOM      2  O   UNL     1     -33.470  80.683   9.708  0.00  0.00    +0.000 OA
ATOM      3  O   UNL     1     -29.179  80.605   8.083  0.00  0.00    +0.000 OA
ATOM      4  N   UNL     1     -33.055  79.442   7.731  0.00  0.00    +0.000 N 
ATOM      5  N   UNL     1     -31.365  80.674   8.804  0.00  0.00    +0.000 N 
ATOM      6  C   UNL     1     -32.727  80.289   8.816  0.00  0.00    +0.000 C 
ATOM      7  C   UNL     1     -32.064  79.134   6.870  0.00  0.00    +0.000 C 
ATOM      8  C   UNL     1     -30.813  79.433   6.777  0.00  0.00    +0.000 C 
ATOM      9  C   UNL     1     -30.349  80.285   7.920  0.00  0.00    +0.000 C 
ATOM     10  H   UNL     1     -31.074  81.247   9.583  0.00  0.00    +0.000 HD
ENDROOT
BRANCH   4  13
ATOM     11  O4* UNL     1     -35.233  79.548   6.681  0.00  0.00    +0.000 OA
ATOM     12  C3* UNL     1     -36.162  77.604   7.533  0.00  0.00    +0.000 A 
ATOM     13  C1* UNL     1     -34.300  78.921   7.517  0.00  0.00    +0.000 A 
ATOM     14  C2* UNL     1     -34.854  77.733   8.033  0.00  0.00    +0.000 A 
ATOM     15  C4* UNL     1     -36.382  78.748   6.683  0.00  0.00    +0.000 A 
BRANCH  12  16
ATOM     16  O3* UNL     1     -36.764  76.400   7.298  0.00  0.00    +0.000 OA
ATOM     17  H3* UNL     1     -36.477  75.716   7.930  0.00  0.00    +0.000 HD
ENDBRANCH  12  16
BRANCH  15  18
ATOM     18  C5* UNL     1     -37.457  78.967   5.799  0.00  0.00    +0.000 C 
BRANCH  18  19
ATOM     19  O5* UNL     1     -38.484  79.170   4.981  0.00  0.00    +0.000 OA
ATOM     20  H5* UNL     1     -39.326  79.103   5.464  0.00  0.00    +0.000 HD
ENDBRANCH  18  19
ENDBRANCH  15  18
ENDBRANCH   4  13
TORSDOF 4
ENDMDL
