MODEL 1
REMARK VINA RESULT:      -3.7      0.000      0.000
REMARK  Name = 3385_5Fluorouracil.pdbqt.pdb
REMARK  0 active torsions:
REMARK  status: ('A' for Active; 'I' for Inactive)
REMARK                            x       y       z     vdW  Elec       q    Type
REMARK                         _______ _______ _______ _____ _____    ______ ____
ROOT
ATOM      1  F   UNL     1     -39.269  99.347  15.554  0.00  0.00    +0.000 F 
ATOM      2  O   UNL     1     -39.840 101.226  13.512  0.00  0.00    +0.000 OA
ATOM      3  O   UNL     1     -35.917 100.115  11.354  0.00  0.00    +0.000 OA
ATOM      4  N   UNL     1     -37.848 100.716  12.478  0.00  0.00    +0.000 N 
ATOM      5  N   UNL     1     -36.365  99.197  13.418  0.00  0.00    +0.000 N 
ATOM      6  C   UNL     1     -38.766 100.636  13.535  0.00  0.00    +0.000 C 
ATOM      7  C   UNL     1     -36.641 100.017  12.334  0.00  0.00    +0.000 C 
ATOM      8  C   UNL     1     -38.338  99.761  14.679  0.00  0.00    +0.000 C 
ATOM      9  C   UNL     1     -37.224  99.153  14.448  0.00  0.00    +0.000 C 
ATOM     10  H   UNL     1     -38.115 101.299  11.699  0.00  0.00    +0.000 HD
ATOM     11  H   UNL     1     -35.518  98.644  13.410  0.00  0.00    +0.000 HD
ENDROOT
TORSDOF 0
ENDMDL
MODEL 2
REMARK VINA RESULT:      -3.7     12.403     13.304
REMARK  Name = 3385_5Fluorouracil.pdbqt.pdb
REMARK  0 active torsions:
REMARK  status: ('A' for Active; 'I' for Inactive)
REMARK                            x       y       z     vdW  Elec       q    Type
REMARK                         _______ _______ _______ _____ _____    ______ ____
ROOT
ATOM      1  F   UNL     1     -32.453  89.117  17.593  0.00  0.00    +0.000 F 
ATOM      2  O   UNL     1     -31.169  91.627  17.320  0.00  0.00    +0.000 OA
ATOM      3  O   UNL     1     -27.673  89.626  15.072  0.00  0.00    +0.000 OA
ATOM      4  N   UNL     1     -29.396  90.611  16.260  0.00  0.00    +0.000 N 
ATOM      5  N   UNL     1     -29.330  88.308  15.980  0.00  0.00    +0.000 N 
ATOM      6  C   UNL     1     -30.606  90.597  16.969  0.00  0.00    +0.000 C 
ATOM      7  C   UNL     1     -28.707  89.519  15.716  0.00  0.00    +0.000 C 
ATOM      8  C   UNL     1     -31.161  89.228  17.244  0.00  0.00    +0.000 C 
ATOM      9  C   UNL     1     -30.464  88.291  16.694  0.00  0.00    +0.000 C 
ATOM     10  H   UNL     1     -29.005  91.521  16.066  0.00  0.00    +0.000 HD
ATOM     11  H   UNL     1     -28.913  87.456  15.624  0.00  0.00    +0.000 HD
ENDROOT
TORSDOF 0
ENDMDL
MODEL 3
REMARK VINA RESULT:      -3.5     23.753     24.582
REMARK  Name = 3385_5Fluorouracil.pdbqt.pdb
REMARK  0 active torsions:
REMARK  status: ('A' for Active; 'I' for Inactive)
REMARK                            x       y       z     vdW  Elec       q    Type
REMARK                         _______ _______ _______ _____ _____    ______ ____
ROOT
ATOM      1  F   UNL     1     -27.308  86.408  -5.222  0.00  0.00    +0.000 F 
ATOM      2  O   UNL     1     -26.974  88.105  -7.464  0.00  0.00    +0.000 OA
ATOM      3  O   UNL     1     -25.678  91.558  -4.694  0.00  0.00    +0.000 OA
ATOM      4  N   UNL     1     -26.395  89.843  -6.070  0.00  0.00    +0.000 N 
ATOM      5  N   UNL     1     -26.416  89.584  -3.763  0.00  0.00    +0.000 N 
ATOM      6  C   UNL     1     -26.862  88.546  -6.327  0.00  0.00    +0.000 C 
ATOM      7  C   UNL     1     -26.127  90.429  -4.825  0.00  0.00    +0.000 C 
ATOM      8  C   UNL     1     -27.195  87.741  -5.103  0.00  0.00    +0.000 C 
ATOM      9  C   UNL     1     -26.903  88.359  -4.008  0.00  0.00    +0.000 C 
ATOM     10  H   UNL     1     -26.167  90.402  -6.879  0.00  0.00    +0.000 HD
ATOM     11  H   UNL     1     -26.251  89.911  -2.820  0.00  0.00    +0.000 HD
ENDROOT
TORSDOF 0
ENDMDL
MODEL 4
REMARK VINA RESULT:      -3.5      3.188      4.205
REMARK  Name = 3385_5Fluorouracil.pdbqt.pdb
REMARK  0 active torsions:
REMARK  status: ('A' for Active; 'I' for Inactive)
REMARK                            x       y       z     vdW  Elec       q    Type
REMARK                         _______ _______ _______ _____ _____    ______ ____
ROOT
ATOM      1  F   UNL     1     -33.307 101.344  13.558  0.00  0.00    +0.000 F 
ATOM      2  O   UNL     1     -33.759  98.939  14.984  0.00  0.00    +0.000 OA
ATOM      3  O   UNL     1     -38.200  99.000  13.737  0.00  0.00    +0.000 OA
ATOM      4  N   UNL     1     -35.988  99.014  14.415  0.00  0.00    +0.000 N 
ATOM      5  N   UNL     1     -36.853 100.788  13.194  0.00  0.00    +0.000 N 
ATOM      6  C   UNL     1     -34.693  99.548  14.477  0.00  0.00    +0.000 C 
ATOM      7  C   UNL     1     -37.113  99.557  13.779  0.00  0.00    +0.000 C 
ATOM      8  C   UNL     1     -34.542 100.910  13.859  0.00  0.00    +0.000 C 
ATOM      9  C   UNL     1     -35.625 101.318  13.290  0.00  0.00    +0.000 C 
ATOM     10  H   UNL     1     -36.112  98.100  14.826  0.00  0.00    +0.000 HD
ATOM     11  H   UNL     1     -37.600 101.263  12.703  0.00  0.00    +0.000 HD
ENDROOT
TORSDOF 0
ENDMDL
MODEL 5
REMARK VINA RESULT:      -3.5      7.738      8.178
REMARK  Name = 3385_5Fluorouracil.pdbqt.pdb
REMARK  0 active torsions:
REMARK  status: ('A' for Active; 'I' for Inactive)
REMARK                            x       y       z     vdW  Elec       q    Type
REMARK                         _______ _______ _______ _____ _____    ______ ____
ROOT
ATOM      1  F   UNL     1     -29.739  97.859  17.891  0.00  0.00    +0.000 F 
ATOM      2  O   UNL     1     -31.352  97.458  15.597  0.00  0.00    +0.000 OA
ATOM      3  O   UNL     1     -30.361 101.714  14.121  0.00  0.00    +0.000 OA
ATOM      4  N   UNL     1     -30.908  99.607  14.902  0.00  0.00    +0.000 N 
ATOM      5  N   UNL     1     -29.619 101.041  16.195  0.00  0.00    +0.000 N 
ATOM      6  C   UNL     1     -30.858  98.555  15.828  0.00  0.00    +0.000 C 
ATOM      7  C   UNL     1     -30.301 100.866  15.000  0.00  0.00    +0.000 C 
ATOM      8  C   UNL     1     -30.141  98.875  17.109  0.00  0.00    +0.000 C 
ATOM      9  C   UNL     1     -29.607 100.050  17.098  0.00  0.00    +0.000 C 
ATOM     10  H   UNL     1     -31.387  99.413  14.035  0.00  0.00    +0.000 HD
ATOM     11  H   UNL     1     -29.140 101.917  16.361  0.00  0.00    +0.000 HD
ENDROOT
TORSDOF 0
ENDMDL
MODEL 6
REMARK VINA RESULT:      -3.4     19.927     20.443
REMARK  Name = 3385_5Fluorouracil.pdbqt.pdb
REMARK  0 active torsions:
REMARK  status: ('A' for Active; 'I' for Inactive)
REMARK                            x       y       z     vdW  Elec       q    Type
REMARK                         _______ _______ _______ _____ _____    ______ ____
ROOT
ATOM      1  F   UNL     1     -21.539  90.657  20.256  0.00  0.00    +0.000 F 
ATOM      2  O   UNL     1     -20.544  92.274  18.155  0.00  0.00    +0.000 OA
ATOM      3  O   UNL     1     -18.383  94.969  21.212  0.00  0.00    +0.000 OA
ATOM      4  N   UNL     1     -19.526  93.654  19.690  0.00  0.00    +0.000 N 
ATOM      5  N   UNL     1     -19.768  93.292  21.970  0.00  0.00    +0.000 N 
ATOM      6  C   UNL     1     -20.367  92.593  19.324  0.00  0.00    +0.000 C 
ATOM      7  C   UNL     1     -19.160  94.054  20.983  0.00  0.00    +0.000 C 
ATOM      8  C   UNL     1     -21.013  91.873  20.474  0.00  0.00    +0.000 C 
ATOM      9  C   UNL     1     -20.605  92.304  21.620  0.00  0.00    +0.000 C 
ATOM     10  H   UNL     1     -19.083  94.152  18.932  0.00  0.00    +0.000 HD
ATOM     11  H   UNL     1     -19.565  93.497  22.940  0.00  0.00    +0.000 HD
ENDROOT
TORSDOF 0
ENDMDL
MODEL 7
REMARK VINA RESULT:      -3.4     16.654     17.359
REMARK  Name = 3385_5Fluorouracil.pdbqt.pdb
REMARK  0 active torsions:
REMARK  status: ('A' for Active; 'I' for Inactive)
REMARK                            x       y       z     vdW  Elec       q    Type
REMARK                         _______ _______ _______ _____ _____    ______ ____
ROOT
ATOM      1  F   UNL     1     -28.853  87.697  13.163  0.00  0.00    +0.000 F 
ATOM      2  O   UNL     1     -27.979  85.115  13.933  0.00  0.00    +0.000 OA
ATOM      3  O   UNL     1     -28.916  83.507   9.712  0.00  0.00    +0.000 OA
ATOM      4  N   UNL     1     -28.514  84.305  11.846  0.00  0.00    +0.000 N 
ATOM      5  N   UNL     1     -29.491  85.673  10.246  0.00  0.00    +0.000 N 
ATOM      6  C   UNL     1     -28.492  85.298  12.836  0.00  0.00    +0.000 C 
ATOM      7  C   UNL     1     -28.974  84.417  10.527  0.00  0.00    +0.000 C 
ATOM      8  C   UNL     1     -29.128  86.600  12.438  0.00  0.00    +0.000 C 
ATOM      9  C   UNL     1     -29.508  86.609  11.205  0.00  0.00    +0.000 C 
ATOM     10  H   UNL     1     -28.093  83.422  12.093  0.00  0.00    +0.000 HD
ATOM     11  H   UNL     1     -29.845  85.858   9.316  0.00  0.00    +0.000 HD
ENDROOT
TORSDOF 0
ENDMDL
MODEL 8
REMARK VINA RESULT:      -3.4     10.374     11.248
REMARK  Name = 3385_5Fluorouracil.pdbqt.pdb
REMARK  0 active torsions:
REMARK  status: ('A' for Active; 'I' for Inactive)
REMARK                            x       y       z     vdW  Elec       q    Type
REMARK                         _______ _______ _______ _____ _____    ______ ____
ROOT
ATOM      1  F   UNL     1     -39.773 101.614   2.016  0.00  0.00    +0.000 F 
ATOM      2  O   UNL     1     -38.798 104.025   0.895  0.00  0.00    +0.000 OA
ATOM      3  O   UNL     1     -35.576 104.286   4.185  0.00  0.00    +0.000 OA
ATOM      4  N   UNL     1     -37.238 104.185   2.580  0.00  0.00    +0.000 N 
ATOM      5  N   UNL     1     -37.167 102.625   4.297  0.00  0.00    +0.000 N 
ATOM      6  C   UNL     1     -38.354 103.608   1.958  0.00  0.00    +0.000 C 
ATOM      7  C   UNL     1     -36.574 103.745   3.733  0.00  0.00    +0.000 C 
ATOM      8  C   UNL     1     -38.947 102.435   2.686  0.00  0.00    +0.000 C 
ATOM      9  C   UNL     1     -38.260 102.099   3.725  0.00  0.00    +0.000 C 
ATOM     10  H   UNL     1     -36.825 104.976   2.108  0.00  0.00    +0.000 HD
ATOM     11  H   UNL     1     -36.760 102.225   5.132  0.00  0.00    +0.000 HD
ENDROOT
TORSDOF 0
ENDMDL
MODEL 9
REMARK VINA RESULT:      -3.3     23.523     24.861
REMARK  Name = 3385_5Fluorouracil.pdbqt.pdb
REMARK  0 active torsions:
REMARK  status: ('A' for Active; 'I' for Inactive)
REMARK                            x       y       z     vdW  Elec       q    Type
REMARK                         _______ _______ _______ _____ _____    ______ ____
ROOT
ATOM      1  F   UNL     1     -23.430 103.054  -9.062  0.00  0.00    +0.000 F 
ATOM      2  O   UNL     1     -22.591 100.535  -8.075  0.00  0.00    +0.000 OA
ATOM      3  O   UNL     1     -26.105 100.503  -5.087  0.00  0.00    +0.000 OA
ATOM      4  N   UNL     1     -24.306 100.559  -6.540  0.00  0.00    +0.000 N 
ATOM      5  N   UNL     1     -25.735 102.380  -6.370  0.00  0.00    +0.000 N 
ATOM      6  C   UNL     1     -23.511 101.140  -7.538  0.00  0.00    +0.000 C 
ATOM      7  C   UNL     1     -25.442 101.100  -5.923  0.00  0.00    +0.000 C 
ATOM      8  C   UNL     1     -23.887 102.548  -7.905  0.00  0.00    +0.000 C 
ATOM      9  C   UNL     1     -24.949 102.952  -7.294  0.00  0.00    +0.000 C 
ATOM     10  H   UNL     1     -24.069  99.613  -6.277  0.00  0.00    +0.000 HD
ATOM     11  H   UNL     1     -26.542 102.858  -5.989  0.00  0.00    +0.000 HD
ENDROOT
TORSDOF 0
ENDMDL
