MODEL 1
REMARK VINA RESULT:      -6.5      0.000      0.000
REMARK  Name = 342374_SipholenolA.pdbqt.pdb
REMARK  5 active torsions:
REMARK  status: ('A' for Active; 'I' for Inactive)
REMARK    1  A    between atoms: C_3  and  C_20
REMARK    2  A    between atoms: C_4  and  O_16
REMARK    3  A    between atoms: C_13  and  O_18
REMARK    4  A    between atoms: C_21  and  C_25
REMARK    5  A    between atoms: C_26  and  O_36
REMARK                            x       y       z     vdW  Elec       q    Type
REMARK                         _______ _______ _______ _____ _____    ______ ____
ROOT
ATOM      1  O   UNL     1     -38.170  98.153  19.913  0.00  0.00    +0.000 OA
ATOM      2  C   UNL     1     -36.446  98.435  17.972  0.00  0.00    +0.000 C 
ATOM      3  C   UNL     1     -36.144  99.220  16.692  0.00  0.00    +0.000 C 
ATOM      4  C   UNL     1     -37.257  99.498  15.696  0.00  0.00    +0.000 C 
ATOM      5  C   UNL     1     -37.872  98.659  18.642  0.00  0.00    +0.000 C 
ATOM      6  C   UNL     1     -35.547  98.860  19.056  0.00  0.00    +0.000 C 
ATOM      7  C   UNL     1     -38.534  99.354  16.367  0.00  0.00    +0.000 C 
ATOM      8  C   UNL     1     -38.921  98.976  17.757  0.00  0.00    +0.000 C 
ATOM      9  C   UNL     1     -36.284  96.914  17.696  0.00  0.00    +0.000 C 
ATOM     10  C   UNL     1     -35.546  99.174  20.532  0.00  0.00    +0.000 C 
ATOM     11  C   UNL     1     -38.032  99.030  21.079  0.00  0.00    +0.000 C 
ATOM     12  C   UNL     1     -37.103 100.895  15.075  0.00  0.00    +0.000 C 
ATOM     13  C   UNL     1     -36.549  99.206  21.524  0.00  0.00    +0.000 C 
ATOM     14  C   UNL     1     -38.639 100.441  20.822  0.00  0.00    +0.000 C 
ATOM     15  C   UNL     1     -38.787  98.347  22.257  0.00  0.00    +0.000 C 
ENDROOT
BRANCH   4  16
ATOM     16  O   UNL     1     -37.175  98.593  14.624  0.00  0.00    +0.000 OA
ATOM     17  H   UNL     1     -37.039  99.199  13.874  0.00  0.00    +0.000 HD
ENDBRANCH   4  16
BRANCH  13  18
ATOM     18  O   UNL     1     -36.178  99.378  22.854  0.00  0.00    +0.000 OA
ATOM     19  H   UNL     1     -36.406  98.592  23.393  0.00  0.00    +0.000 HD
ENDBRANCH  13  18
BRANCH   3  20
ATOM     20  C   UNL     1     -34.777  99.485  16.324  0.00  0.00    +0.000 C 
ATOM     21  C   UNL     1     -33.328  99.768  15.917  0.00  0.00    +0.000 C 
BRANCH  21  25
ATOM     22  C   UNL     1     -30.021 100.106  17.283  0.00  0.00    +0.000 C 
ATOM     23  C   UNL     1     -30.767  99.314  16.175  0.00  0.00    +0.000 C 
ATOM     24  C   UNL     1     -29.366 101.445  17.102  0.00  0.00    +0.000 C 
ATOM     25  C   UNL     1     -31.973 100.035  15.527  0.00  0.00    +0.000 C 
ATOM     26  C   UNL     1     -28.382 101.782  18.216  0.00  0.00    +0.000 C 
ATOM     27  C   UNL     1     -29.485  99.578  18.496  0.00  0.00    +0.000 C 
ATOM     28  C   UNL     1     -28.506 100.583  19.036  0.00  0.00    +0.000 C 
ATOM     29  C   UNL     1     -29.761 102.206  15.987  0.00  0.00    +0.000 C 
ATOM     30  C   UNL     1     -31.738 101.138  14.595  0.00  0.00    +0.000 C 
ATOM     31  C   UNL     1     -31.279  97.967  16.813  0.00  0.00    +0.000 C 
ATOM     32  C   UNL     1     -29.726  98.915  15.074  0.00  0.00    +0.000 C 
ATOM     33  C   UNL     1     -30.810 101.977  14.933  0.00  0.00    +0.000 C 
ATOM     34  C   UNL     1     -28.723 103.090  18.916  0.00  0.00    +0.000 C 
ATOM     35  C   UNL     1     -32.742 101.603  13.574  0.00  0.00    +0.000 C 
BRANCH  26  36
ATOM     36  O   UNL     1     -27.084 101.911  17.699  0.00  0.00    +0.000 OA
ATOM     37  H   UNL     1     -27.253 101.803  16.747  0.00  0.00    +0.000 HD
ENDBRANCH  26  36
ENDBRANCH  21  25
ENDBRANCH   3  20
TORSDOF 5
ENDMDL
MODEL 2
REMARK VINA RESULT:      -6.3      1.779      2.190
REMARK  Name = 342374_SipholenolA.pdbqt.pdb
REMARK  5 active torsions:
REMARK  status: ('A' for Active; 'I' for Inactive)
REMARK    1  A    between atoms: C_3  and  C_20
REMARK    2  A    between atoms: C_4  and  O_16
REMARK    3  A    between atoms: C_13  and  O_18
REMARK    4  A    between atoms: C_21  and  C_25
REMARK    5  A    between atoms: C_26  and  O_36
REMARK                            x       y       z     vdW  Elec       q    Type
REMARK                         _______ _______ _______ _____ _____    ______ ____
ROOT
ATOM      1  O   UNL     1     -39.168  98.235  19.200  0.00  0.00    +0.000 OA
ATOM      2  C   UNL     1     -37.329  99.326  17.700  0.00  0.00    +0.000 C 
ATOM      3  C   UNL     1     -36.403 100.538  17.567  0.00  0.00    +0.000 C 
ATOM      4  C   UNL     1     -36.931 101.930  17.869  0.00  0.00    +0.000 C 
ATOM      5  C   UNL     1     -38.416  99.367  18.863  0.00  0.00    +0.000 C 
ATOM      6  C   UNL     1     -36.556  98.130  18.070  0.00  0.00    +0.000 C 
ATOM      7  C   UNL     1     -38.124 101.812  18.683  0.00  0.00    +0.000 C 
ATOM      8  C   UNL     1     -38.889 100.646  19.213  0.00  0.00    +0.000 C 
ATOM      9  C   UNL     1     -38.078  99.096  16.359  0.00  0.00    +0.000 C 
ATOM     10  C   UNL     1     -36.614  96.919  18.967  0.00  0.00    +0.000 C 
ATOM     11  C   UNL     1     -38.727  97.392  20.315  0.00  0.00    +0.000 C 
ATOM     12  C   UNL     1     -35.861 102.787  18.562  0.00  0.00    +0.000 C 
ATOM     13  C   UNL     1     -37.543  96.458  19.925  0.00  0.00    +0.000 C 
ATOM     14  C   UNL     1     -38.300  98.237  21.551  0.00  0.00    +0.000 C 
ATOM     15  C   UNL     1     -39.926  96.477  20.699  0.00  0.00    +0.000 C 
ENDROOT
BRANCH   4  16
ATOM     16  O   UNL     1     -37.234 102.596  16.669  0.00  0.00    +0.000 OA
ATOM     17  H   UNL     1     -37.037 103.519  16.908  0.00  0.00    +0.000 HD
ENDBRANCH   4  16
BRANCH  13  18
ATOM     18  O   UNL     1     -37.374  95.189  20.471  0.00  0.00    +0.000 OA
ATOM     19  H   UNL     1     -36.749  95.205  21.226  0.00  0.00    +0.000 HD
ENDBRANCH  13  18
BRANCH   3  20
ATOM     20  C   UNL     1     -35.117 100.386  16.935  0.00  0.00    +0.000 C 
ATOM     21  C   UNL     1     -33.748 100.210  16.272  0.00  0.00    +0.000 C 
BRANCH  21  25
ATOM     22  C   UNL     1     -30.232 100.400  16.994  0.00  0.00    +0.000 C 
ATOM     23  C   UNL     1     -31.266  99.404  16.401  0.00  0.00    +0.000 C 
ATOM     24  C   UNL     1     -29.451 101.412  16.206  0.00  0.00    +0.000 C 
ATOM     25  C   UNL     1     -32.464 100.038  15.655  0.00  0.00    +0.000 C 
ATOM     26  C   UNL     1     -28.246 101.955  16.964  0.00  0.00    +0.000 C 
ATOM     27  C   UNL     1     -29.559 100.286  18.247  0.00  0.00    +0.000 C 
ATOM     28  C   UNL     1     -28.374 101.212  18.212  0.00  0.00    +0.000 C 
ATOM     29  C   UNL     1     -29.939 101.747  14.930  0.00  0.00    +0.000 C 
ATOM     30  C   UNL     1     -32.260 100.630  14.333  0.00  0.00    +0.000 C 
ATOM     31  C   UNL     1     -31.825  98.532  17.588  0.00  0.00    +0.000 C 
ATOM     32  C   UNL     1     -30.504  98.419  15.449  0.00  0.00    +0.000 C 
ATOM     33  C   UNL     1     -31.183 101.338  14.189  0.00  0.00    +0.000 C 
ATOM     34  C   UNL     1     -28.279 103.471  17.100  0.00  0.00    +0.000 C 
ATOM     35  C   UNL     1     -33.363 100.851  13.332  0.00  0.00    +0.000 C 
BRANCH  26  36
ATOM     36  O   UNL     1     -27.058 101.621  16.296  0.00  0.00    +0.000 OA
ATOM     37  H   UNL     1     -26.828 100.783  16.735  0.00  0.00    +0.000 HD
ENDBRANCH  26  36
ENDBRANCH  21  25
ENDBRANCH   3  20
TORSDOF 5
ENDMDL
MODEL 3
REMARK VINA RESULT:      -5.9     16.681     20.505
REMARK  Name = 342374_SipholenolA.pdbqt.pdb
REMARK  5 active torsions:
REMARK  status: ('A' for Active; 'I' for Inactive)
REMARK    1  A    between atoms: C_3  and  C_20
REMARK    2  A    between atoms: C_4  and  O_16
REMARK    3  A    between atoms: C_13  and  O_18
REMARK    4  A    between atoms: C_21  and  C_25
REMARK    5  A    between atoms: C_26  and  O_36
REMARK                            x       y       z     vdW  Elec       q    Type
REMARK                         _______ _______ _______ _____ _____    ______ ____
ROOT
ATOM      1  O   UNL     1     -17.638  96.341   4.686  0.00  0.00    +0.000 OA
ATOM      2  C   UNL     1     -19.079  98.448   5.237  0.00  0.00    +0.000 C 
ATOM      3  C   UNL     1     -19.119  99.976   5.145  0.00  0.00    +0.000 C 
ATOM      4  C   UNL     1     -17.876 100.784   5.476  0.00  0.00    +0.000 C 
ATOM      5  C   UNL     1     -17.716  97.730   4.835  0.00  0.00    +0.000 C 
ATOM      6  C   UNL     1     -20.014  97.854   4.267  0.00  0.00    +0.000 C 
ATOM      7  C   UNL     1     -16.716  99.920   5.383  0.00  0.00    +0.000 C 
ATOM      8  C   UNL     1     -16.543  98.472   5.073  0.00  0.00    +0.000 C 
ATOM      9  C   UNL     1     -19.441  98.006   6.681  0.00  0.00    +0.000 C 
ATOM     10  C   UNL     1     -20.126  96.718   3.281  0.00  0.00    +0.000 C 
ATOM     11  C   UNL     1     -17.764  95.760   3.347  0.00  0.00    +0.000 C 
ATOM     12  C   UNL     1     -17.747 102.000   4.546  0.00  0.00    +0.000 C 
ATOM     13  C   UNL     1     -19.242  95.703   2.857  0.00  0.00    +0.000 C 
ATOM     14  C   UNL     1     -16.925  96.539   2.291  0.00  0.00    +0.000 C 
ATOM     15  C   UNL     1     -17.254  94.291   3.435  0.00  0.00    +0.000 C 
ENDROOT
BRANCH   4  16
ATOM     16  O   UNL     1     -17.979 101.308   6.776  0.00  0.00    +0.000 OA
ATOM     17  H   UNL     1     -17.760 102.244   6.622  0.00  0.00    +0.000 HD
ENDBRANCH   4  16
BRANCH  13  18
ATOM     18  O   UNL     1     -19.724  94.690   2.033  0.00  0.00    +0.000 OA
ATOM     19  H   UNL     1     -20.168  93.987   2.553  0.00  0.00    +0.000 HD
ENDBRANCH  13  18
BRANCH   3  20
ATOM     20  C   UNL     1     -20.382 100.648   4.980  0.00  0.00    +0.000 C 
ATOM     21  C   UNL     1     -21.733 101.347   4.804  0.00  0.00    +0.000 C 
BRANCH  21  25
ATOM     22  C   UNL     1     -23.850 102.787   2.282  0.00  0.00    +0.000 C 
ATOM     23  C   UNL     1     -23.915 101.730   3.418  0.00  0.00    +0.000 C 
ATOM     24  C   UNL     1     -24.161 104.248   2.438  0.00  0.00    +0.000 C 
ATOM     25  C   UNL     1     -23.003 101.995   4.639  0.00  0.00    +0.000 C 
ATOM     26  C   UNL     1     -24.409 104.949   1.107  0.00  0.00    +0.000 C 
ATOM     27  C   UNL     1     -23.885 102.535   0.878  0.00  0.00    +0.000 C 
ATOM     28  C   UNL     1     -24.226 103.829   0.192  0.00  0.00    +0.000 C 
ATOM     29  C   UNL     1     -24.145 104.772   3.743  0.00  0.00    +0.000 C 
ATOM     30  C   UNL     1     -23.356 103.051   5.588  0.00  0.00    +0.000 C 
ATOM     31  C   UNL     1     -23.521 100.337   2.797  0.00  0.00    +0.000 C 
ATOM     32  C   UNL     1     -25.407 101.601   3.882  0.00  0.00    +0.000 C 
ATOM     33  C   UNL     1     -23.787 104.157   5.070  0.00  0.00    +0.000 C 
ATOM     34  C   UNL     1     -23.473 106.130   0.889  0.00  0.00    +0.000 C 
ATOM     35  C   UNL     1     -22.850 103.110   7.005  0.00  0.00    +0.000 C 
BRANCH  26  36
ATOM     36  O   UNL     1     -25.722 105.440   1.051  0.00  0.00    +0.000 OA
ATOM     37  H   UNL     1     -25.651 106.224   1.623  0.00  0.00    +0.000 HD
ENDBRANCH  26  36
ENDBRANCH  21  25
ENDBRANCH   3  20
TORSDOF 5
ENDMDL
MODEL 4
REMARK VINA RESULT:      -5.9     11.665     14.132
REMARK  Name = 342374_SipholenolA.pdbqt.pdb
REMARK  5 active torsions:
REMARK  status: ('A' for Active; 'I' for Inactive)
REMARK    1  A    between atoms: C_3  and  C_20
REMARK    2  A    between atoms: C_4  and  O_16
REMARK    3  A    between atoms: C_13  and  O_18
REMARK    4  A    between atoms: C_21  and  C_25
REMARK    5  A    between atoms: C_26  and  O_36
REMARK                            x       y       z     vdW  Elec       q    Type
REMARK                         _______ _______ _______ _____ _____    ______ ____
ROOT
ATOM      1  O   UNL     1     -27.738  86.727  25.297  0.00  0.00    +0.000 OA
ATOM      2  C   UNL     1     -29.356  87.634  23.458  0.00  0.00    +0.000 C 
ATOM      3  C   UNL     1     -30.172  88.855  23.025  0.00  0.00    +0.000 C 
ATOM      4  C   UNL     1     -30.964  89.640  24.057  0.00  0.00    +0.000 C 
ATOM      5  C   UNL     1     -28.667  87.693  24.893  0.00  0.00    +0.000 C 
ATOM      6  C   UNL     1     -28.185  87.466  22.583  0.00  0.00    +0.000 C 
ATOM      7  C   UNL     1     -30.431  89.352  25.374  0.00  0.00    +0.000 C 
ATOM      8  C   UNL     1     -29.341  88.459  25.863  0.00  0.00    +0.000 C 
ATOM      9  C   UNL     1     -30.254  86.367  23.414  0.00  0.00    +0.000 C 
ATOM     10  C   UNL     1     -26.717  87.121  22.630  0.00  0.00    +0.000 C 
ATOM     11  C   UNL     1     -26.308  87.007  25.145  0.00  0.00    +0.000 C 
ATOM     12  C   UNL     1     -30.926  91.145  23.752  0.00  0.00    +0.000 C 
ATOM     13  C   UNL     1     -25.817  86.827  23.677  0.00  0.00    +0.000 C 
ATOM     14  C   UNL     1     -25.942  88.446  25.614  0.00  0.00    +0.000 C 
ATOM     15  C   UNL     1     -25.543  85.966  26.015  0.00  0.00    +0.000 C 
ENDROOT
BRANCH   4  16
ATOM     16  O   UNL     1     -32.320  89.273  23.998  0.00  0.00    +0.000 OA
ATOM     17  H   UNL     1     -32.756  90.128  24.166  0.00  0.00    +0.000 HD
ENDBRANCH   4  16
BRANCH  13  18
ATOM     18  O   UNL     1     -24.538  86.380  23.361  0.00  0.00    +0.000 OA
ATOM     19  H   UNL     1     -23.889  87.115  23.370  0.00  0.00    +0.000 HD
ENDBRANCH  13  18
BRANCH   3  20
ATOM     20  C   UNL     1     -30.379  89.113  21.623  0.00  0.00    +0.000 C 
ATOM     21  C   UNL     1     -30.606  89.372  20.130  0.00  0.00    +0.000 C 
BRANCH  21  25
ATOM     22  C   UNL     1     -29.974  87.920  16.904  0.00  0.00    +0.000 C 
ATOM     23  C   UNL     1     -31.162  88.466  17.743  0.00  0.00    +0.000 C 
ATOM     24  C   UNL     1     -29.126  88.733  15.970  0.00  0.00    +0.000 C 
ATOM     25  C   UNL     1     -30.822  89.607  18.731  0.00  0.00    +0.000 C 
ATOM     26  C   UNL     1     -28.323  87.877  14.997  0.00  0.00    +0.000 C 
ATOM     27  C   UNL     1     -29.729  86.558  16.558  0.00  0.00    +0.000 C 
ATOM     28  C   UNL     1     -28.750  86.547  15.416  0.00  0.00    +0.000 C 
ATOM     29  C   UNL     1     -29.148  90.130  16.134  0.00  0.00    +0.000 C 
ATOM     30  C   UNL     1     -30.553  90.950  18.218  0.00  0.00    +0.000 C 
ATOM     31  C   UNL     1     -31.760  87.261  18.563  0.00  0.00    +0.000 C 
ATOM     32  C   UNL     1     -32.285  88.931  16.755  0.00  0.00    +0.000 C 
ATOM     33  C   UNL     1     -29.820  91.013  17.151  0.00  0.00    +0.000 C 
ATOM     34  C   UNL     1     -26.827  88.142  15.087  0.00  0.00    +0.000 C 
ATOM     35  C   UNL     1     -30.667  92.203  19.045  0.00  0.00    +0.000 C 
BRANCH  26  36
ATOM     36  O   UNL     1     -28.716  88.142  13.675  0.00  0.00    +0.000 OA
ATOM     37  H   UNL     1     -29.685  88.150  13.768  0.00  0.00    +0.000 HD
ENDBRANCH  26  36
ENDBRANCH  21  25
ENDBRANCH   3  20
TORSDOF 5
ENDMDL
MODEL 5
REMARK VINA RESULT:      -5.9     24.397     26.801
REMARK  Name = 342374_SipholenolA.pdbqt.pdb
REMARK  5 active torsions:
REMARK  status: ('A' for Active; 'I' for Inactive)
REMARK    1  A    between atoms: C_3  and  C_20
REMARK    2  A    between atoms: C_4  and  O_16
REMARK    3  A    between atoms: C_13  and  O_18
REMARK    4  A    between atoms: C_21  and  C_25
REMARK    5  A    between atoms: C_26  and  O_36
REMARK                            x       y       z     vdW  Elec       q    Type
REMARK                         _______ _______ _______ _____ _____    ______ ____
ROOT
ATOM      1  O   UNL     1     -40.755  83.374  -1.296  0.00  0.00    +0.000 OA
ATOM      2  C   UNL     1     -39.138  85.106  -2.394  0.00  0.00    +0.000 C 
ATOM      3  C   UNL     1     -37.664  85.416  -2.673  0.00  0.00    +0.000 C 
ATOM      4  C   UNL     1     -36.626  85.191  -1.587  0.00  0.00    +0.000 C 
ATOM      5  C   UNL     1     -39.453  83.866  -1.447  0.00  0.00    +0.000 C 
ATOM      6  C   UNL     1     -39.817  84.702  -3.635  0.00  0.00    +0.000 C 
ATOM      7  C   UNL     1     -37.169  84.274  -0.603  0.00  0.00    +0.000 C 
ATOM      8  C   UNL     1     -38.485  83.588  -0.463  0.00  0.00    +0.000 C 
ATOM      9  C   UNL     1     -39.824  86.358  -1.782  0.00  0.00    +0.000 C 
ATOM     10  C   UNL     1     -40.820  83.703  -4.159  0.00  0.00    +0.000 C 
ATOM     11  C   UNL     1     -41.184  82.232  -2.108  0.00  0.00    +0.000 C 
ATOM     12  C   UNL     1     -35.312  84.663  -2.182  0.00  0.00    +0.000 C 
ATOM     13  C   UNL     1     -41.534  82.638  -3.571  0.00  0.00    +0.000 C 
ATOM     14  C   UNL     1     -40.105  81.110  -2.153  0.00  0.00    +0.000 C 
ATOM     15  C   UNL     1     -42.486  81.675  -1.462  0.00  0.00    +0.000 C 
ENDROOT
BRANCH   4  16
ATOM     16  O   UNL     1     -36.303  86.414  -0.974  0.00  0.00    +0.000 OA
ATOM     17  H   UNL     1     -35.456  86.625  -1.406  0.00  0.00    +0.000 HD
ENDBRANCH   4  16
BRANCH  13  18
ATOM     18  O   UNL     1     -42.527  82.002  -4.311  0.00  0.00    +0.000 OA
ATOM     19  H   UNL     1     -42.145  81.478  -5.046  0.00  0.00    +0.000 HD
ENDBRANCH  13  18
BRANCH   3  20
ATOM     20  C   UNL     1     -37.301  86.136  -3.866  0.00  0.00    +0.000 C 
ATOM     21  C   UNL     1     -36.907  86.914  -5.125  0.00  0.00    +0.000 C 
BRANCH  21  25
ATOM     22  C   UNL     1     -37.142  90.190  -6.585  0.00  0.00    +0.000 C 
ATOM     23  C   UNL     1     -36.067  89.123  -6.241  0.00  0.00    +0.000 C 
ATOM     24  C   UNL     1     -37.890  90.281  -7.884  0.00  0.00    +0.000 C 
ATOM     25  C   UNL     1     -36.536  87.650  -6.300  0.00  0.00    +0.000 C 
ATOM     26  C   UNL     1     -38.563  91.633  -8.090  0.00  0.00    +0.000 C 
ATOM     27  C   UNL     1     -37.326  91.453  -5.947  0.00  0.00    +0.000 C 
ATOM     28  C   UNL     1     -38.167  92.305  -6.858  0.00  0.00    +0.000 C 
ATOM     29  C   UNL     1     -37.908  89.132  -8.696  0.00  0.00    +0.000 C 
ATOM     30  C   UNL     1     -36.764  87.016  -7.599  0.00  0.00    +0.000 C 
ATOM     31  C   UNL     1     -35.548  89.421  -4.784  0.00  0.00    +0.000 C 
ATOM     32  C   UNL     1     -34.845  89.335  -7.198  0.00  0.00    +0.000 C 
ATOM     33  C   UNL     1     -37.370  87.743  -8.485  0.00  0.00    +0.000 C 
ATOM     34  C   UNL     1     -40.063  91.508  -8.313  0.00  0.00    +0.000 C 
ATOM     35  C   UNL     1     -36.764  85.527  -7.819  0.00  0.00    +0.000 C 
BRANCH  26  36
ATOM     36  O   UNL     1     -38.025  92.279  -9.214  0.00  0.00    +0.000 OA
ATOM     37  H   UNL     1     -37.150  91.856  -9.270  0.00  0.00    +0.000 HD
ENDBRANCH  26  36
ENDBRANCH  21  25
ENDBRANCH   3  20
TORSDOF 5
ENDMDL
MODEL 6
REMARK VINA RESULT:      -5.6     18.203     22.539
REMARK  Name = 342374_SipholenolA.pdbqt.pdb
REMARK  5 active torsions:
REMARK  status: ('A' for Active; 'I' for Inactive)
REMARK    1  A    between atoms: C_3  and  C_20
REMARK    2  A    between atoms: C_4  and  O_16
REMARK    3  A    between atoms: C_13  and  O_18
REMARK    4  A    between atoms: C_21  and  C_25
REMARK    5  A    between atoms: C_26  and  O_36
REMARK                            x       y       z     vdW  Elec       q    Type
REMARK                         _______ _______ _______ _____ _____    ______ ____
ROOT
ATOM      1  O   UNL     1     -39.785 101.601   2.139  0.00  0.00    +0.000 OA
ATOM      2  C   UNL     1     -42.015 101.771   0.789  0.00  0.00    +0.000 C 
ATOM      3  C   UNL     1     -43.521 102.017   0.918  0.00  0.00    +0.000 C 
ATOM      4  C   UNL     1     -44.298 101.369   2.051  0.00  0.00    +0.000 C 
ATOM      5  C   UNL     1     -41.185 101.621   2.140  0.00  0.00    +0.000 C 
ATOM      6  C   UNL     1     -41.358 102.936   0.175  0.00  0.00    +0.000 C 
ATOM      7  C   UNL     1     -43.370 100.984   3.096  0.00  0.00    +0.000 C 
ATOM      8  C   UNL     1     -41.888 101.077   3.232  0.00  0.00    +0.000 C 
ATOM      9  C   UNL     1     -41.770 100.496  -0.063  0.00  0.00    +0.000 C 
ATOM     10  C   UNL     1     -40.119 103.788   0.291  0.00  0.00    +0.000 C 
ATOM     11  C   UNL     1     -39.054 102.842   2.406  0.00  0.00    +0.000 C 
ATOM     12  C   UNL     1     -45.385 102.314   2.585  0.00  0.00    +0.000 C 
ATOM     13  C   UNL     1     -39.016 103.792   1.171  0.00  0.00    +0.000 C 
ATOM     14  C   UNL     1     -39.656 103.625   3.610  0.00  0.00    +0.000 C 
ATOM     15  C   UNL     1     -37.583 102.446   2.727  0.00  0.00    +0.000 C 
ENDROOT
BRANCH   4  16
ATOM     16  O   UNL     1     -44.979 100.236   1.574  0.00  0.00    +0.000 OA
ATOM     17  H   UNL     1     -45.396 100.589   0.768  0.00  0.00    +0.000 HD
ENDBRANCH   4  16
BRANCH  13  18
ATOM     18  O   UNL     1     -37.937 104.627   0.898  0.00  0.00    +0.000 OA
ATOM     19  H   UNL     1     -37.779 105.258   1.631  0.00  0.00    +0.000 HD
ENDBRANCH  13  18
BRANCH   3  20
ATOM     20  C   UNL     1     -44.232 102.661  -0.156  0.00  0.00    +0.000 C 
ATOM     21  C   UNL     1     -45.001 103.349  -1.288  0.00  0.00    +0.000 C 
BRANCH  21  25
ATOM     22  C   UNL     1     -45.527 103.205  -4.841  0.00  0.00    +0.000 C 
ATOM     23  C   UNL     1     -46.349 103.208  -3.523  0.00  0.00    +0.000 C 
ATOM     24  C   UNL     1     -45.126 104.426  -5.616  0.00  0.00    +0.000 C 
ATOM     25  C   UNL     1     -45.729 103.994  -2.343  0.00  0.00    +0.000 C 
ATOM     26  C   UNL     1     -44.695 104.110  -7.043  0.00  0.00    +0.000 C 
ATOM     27  C   UNL     1     -45.356 102.107  -5.736  0.00  0.00    +0.000 C 
ATOM     28  C   UNL     1     -44.867 102.662  -7.046  0.00  0.00    +0.000 C 
ATOM     29  C   UNL     1     -45.160 105.658  -4.937  0.00  0.00    +0.000 C 
ATOM     30  C   UNL     1     -45.740 105.457  -2.365  0.00  0.00    +0.000 C 
ATOM     31  C   UNL     1     -46.540 101.710  -3.075  0.00  0.00    +0.000 C 
ATOM     32  C   UNL     1     -47.781 103.761  -3.841  0.00  0.00    +0.000 C 
ATOM     33  C   UNL     1     -45.456 106.008  -3.503  0.00  0.00    +0.000 C 
ATOM     34  C   UNL     1     -43.287 104.601  -7.348  0.00  0.00    +0.000 C 
ATOM     35  C   UNL     1     -45.607 106.317  -1.137  0.00  0.00    +0.000 C 
BRANCH  26  36
ATOM     36  O   UNL     1     -45.560 104.725  -7.963  0.00  0.00    +0.000 OA
ATOM     37  H   UNL     1     -46.296 104.088  -7.977  0.00  0.00    +0.000 HD
ENDBRANCH  26  36
ENDBRANCH  21  25
ENDBRANCH   3  20
TORSDOF 5
ENDMDL
MODEL 7
REMARK VINA RESULT:      -5.5      4.747      7.326
REMARK  Name = 342374_SipholenolA.pdbqt.pdb
REMARK  5 active torsions:
REMARK  status: ('A' for Active; 'I' for Inactive)
REMARK    1  A    between atoms: C_3  and  C_20
REMARK    2  A    between atoms: C_4  and  O_16
REMARK    3  A    between atoms: C_13  and  O_18
REMARK    4  A    between atoms: C_21  and  C_25
REMARK    5  A    between atoms: C_26  and  O_36
REMARK                            x       y       z     vdW  Elec       q    Type
REMARK                         _______ _______ _______ _____ _____    ______ ____
ROOT
ATOM      1  O   UNL     1     -44.485 103.142  16.449  0.00  0.00    +0.000 OA
ATOM      2  C   UNL     1     -41.906 102.795  16.229  0.00  0.00    +0.000 C 
ATOM      3  C   UNL     1     -40.756 101.837  16.555  0.00  0.00    +0.000 C 
ATOM      4  C   UNL     1     -40.693 101.169  17.918  0.00  0.00    +0.000 C 
ATOM      5  C   UNL     1     -43.333 102.455  16.849  0.00  0.00    +0.000 C 
ATOM      6  C   UNL     1     -42.202 102.764  14.788  0.00  0.00    +0.000 C 
ATOM      7  C   UNL     1     -42.010 101.211  18.522  0.00  0.00    +0.000 C 
ATOM      8  C   UNL     1     -43.317 101.783  18.086  0.00  0.00    +0.000 C 
ATOM      9  C   UNL     1     -41.524 104.233  16.675  0.00  0.00    +0.000 C 
ATOM     10  C   UNL     1     -43.362 102.757  13.823  0.00  0.00    +0.000 C 
ATOM     11  C   UNL     1     -45.342 102.555  15.416  0.00  0.00    +0.000 C 
ATOM     12  C   UNL     1     -40.175  99.728  17.802  0.00  0.00    +0.000 C 
ATOM     13  C   UNL     1     -44.764 102.744  13.981  0.00  0.00    +0.000 C 
ATOM     14  C   UNL     1     -45.585 101.036  15.653  0.00  0.00    +0.000 C 
ATOM     15  C   UNL     1     -46.702 103.313  15.466  0.00  0.00    +0.000 C 
ENDROOT
BRANCH   4  16
ATOM     16  O   UNL     1     -39.770 101.841  18.737  0.00  0.00    +0.000 OA
ATOM     17  H   UNL     1     -39.888 101.373  19.583  0.00  0.00    +0.000 HD
ENDBRANCH   4  16
BRANCH  13  18
ATOM     18  O   UNL     1     -45.571 102.911  12.861  0.00  0.00    +0.000 OA
ATOM     19  H   UNL     1     -46.520 102.943  13.105  0.00  0.00    +0.000 HD
ENDBRANCH  13  18
BRANCH   3  20
ATOM     20  C   UNL     1     -39.623 101.756  15.670  0.00  0.00    +0.000 C 
ATOM     21  C   UNL     1     -38.414 101.686  14.733  0.00  0.00    +0.000 C 
BRANCH  21  25
ATOM     22  C   UNL     1     -35.180 100.152  14.412  0.00  0.00    +0.000 C 
ATOM     23  C   UNL     1     -36.494 100.321  13.602  0.00  0.00    +0.000 C 
ATOM     24  C   UNL     1     -34.007 101.088  14.368  0.00  0.00    +0.000 C 
ATOM     25  C   UNL     1     -37.280 101.629  13.855  0.00  0.00    +0.000 C 
ATOM     26  C   UNL     1     -32.732 100.472  14.932  0.00  0.00    +0.000 C 
ATOM     27  C   UNL     1     -34.688  98.948  14.999  0.00  0.00    +0.000 C 
ATOM     28  C   UNL     1     -33.227  99.150  15.296  0.00  0.00    +0.000 C 
ATOM     29  C   UNL     1     -34.238 102.383  13.869  0.00  0.00    +0.000 C 
ATOM     30  C   UNL     1     -36.773 102.892  13.316  0.00  0.00    +0.000 C 
ATOM     31  C   UNL     1     -37.430  99.104  13.952  0.00  0.00    +0.000 C 
ATOM     32  C   UNL     1     -36.149 100.190  12.078  0.00  0.00    +0.000 C 
ATOM     33  C   UNL     1     -35.495 103.078  13.419  0.00  0.00    +0.000 C 
ATOM     34  C   UNL     1     -32.147 101.289  16.076  0.00  0.00    +0.000 C 
ATOM     35  C   UNL     1     -37.627 104.110  13.088  0.00  0.00    +0.000 C 
BRANCH  26  36
ATOM     36  O   UNL     1     -31.748 100.387  13.934  0.00  0.00    +0.000 OA
ATOM     37  H   UNL     1     -31.083 101.008  14.278  0.00  0.00    +0.000 HD
ENDBRANCH  26  36
ENDBRANCH  21  25
ENDBRANCH   3  20
TORSDOF 5
ENDMDL
MODEL 8
REMARK VINA RESULT:      -5.5     18.330     22.809
REMARK  Name = 342374_SipholenolA.pdbqt.pdb
REMARK  5 active torsions:
REMARK  status: ('A' for Active; 'I' for Inactive)
REMARK    1  A    between atoms: C_3  and  C_20
REMARK    2  A    between atoms: C_4  and  O_16
REMARK    3  A    between atoms: C_13  and  O_18
REMARK    4  A    between atoms: C_21  and  C_25
REMARK    5  A    between atoms: C_26  and  O_36
REMARK                            x       y       z     vdW  Elec       q    Type
REMARK                         _______ _______ _______ _____ _____    ______ ____
ROOT
ATOM      1  O   UNL     1     -39.946 101.601   2.479  0.00  0.00    +0.000 OA
ATOM      2  C   UNL     1     -41.951 101.809   0.819  0.00  0.00    +0.000 C 
ATOM      3  C   UNL     1     -43.442 102.140   0.719  0.00  0.00    +0.000 C 
ATOM      4  C   UNL     1     -44.408 101.598   1.759  0.00  0.00    +0.000 C 
ATOM      5  C   UNL     1     -41.328 101.694   2.279  0.00  0.00    +0.000 C 
ATOM      6  C   UNL     1     -41.147 102.901   0.247  0.00  0.00    +0.000 C 
ATOM      7  C   UNL     1     -43.660 101.226   2.944  0.00  0.00    +0.000 C 
ATOM      8  C   UNL     1     -42.208 101.250   3.285  0.00  0.00    +0.000 C 
ATOM      9  C   UNL     1     -41.665 100.476   0.074  0.00  0.00    +0.000 C 
ATOM     10  C   UNL     1     -39.887 103.693   0.498  0.00  0.00    +0.000 C 
ATOM     11  C   UNL     1     -39.187 102.816   2.787  0.00  0.00    +0.000 C 
ATOM     12  C   UNL     1     -45.501 102.627   2.085  0.00  0.00    +0.000 C 
ATOM     13  C   UNL     1     -38.920 103.690   1.525  0.00  0.00    +0.000 C 
ATOM     14  C   UNL     1     -39.904 103.697   3.853  0.00  0.00    +0.000 C 
ATOM     15  C   UNL     1     -37.801 102.364   3.334  0.00  0.00    +0.000 C 
ENDROOT
BRANCH   4  16
ATOM     16  O   UNL     1     -45.082 100.476   1.247  0.00  0.00    +0.000 OA
ATOM     17  H   UNL     1     -45.707 100.895   0.629  0.00  0.00    +0.000 HD
ENDBRANCH   4  16
BRANCH  13  18
ATOM     18  O   UNL     1     -37.766 104.451   1.368  0.00  0.00    +0.000 OA
ATOM     19  H   UNL     1     -37.438 104.417   0.444  0.00  0.00    +0.000 HD
ENDBRANCH  13  18
BRANCH   3  20
ATOM     20  C   UNL     1     -43.957 102.757  -0.477  0.00  0.00    +0.000 C 
ATOM     21  C   UNL     1     -44.507 103.397  -1.754  0.00  0.00    +0.000 C 
BRANCH  21  25
ATOM     22  C   UNL     1     -47.218 103.106  -4.096  0.00  0.00    +0.000 C 
ATOM     23  C   UNL     1     -46.538 104.178  -3.202  0.00  0.00    +0.000 C 
ATOM     24  C   UNL     1     -46.834 102.787  -5.512  0.00  0.00    +0.000 C 
ATOM     25  C   UNL     1     -45.022 103.989  -2.956  0.00  0.00    +0.000 C 
ATOM     26  C   UNL     1     -47.909 102.005  -6.259  0.00  0.00    +0.000 C 
ATOM     27  C   UNL     1     -48.514 102.538  -3.913  0.00  0.00    +0.000 C 
ATOM     28  C   UNL     1     -48.917 101.893  -5.210  0.00  0.00    +0.000 C 
ATOM     29  C   UNL     1     -45.560 103.201  -5.941  0.00  0.00    +0.000 C 
ATOM     30  C   UNL     1     -44.075 104.273  -4.034  0.00  0.00    +0.000 C 
ATOM     31  C   UNL     1     -47.272 104.172  -1.808  0.00  0.00    +0.000 C 
ATOM     32  C   UNL     1     -46.806 105.585  -3.837  0.00  0.00    +0.000 C 
ATOM     33  C   UNL     1     -44.419 103.860  -5.213  0.00  0.00    +0.000 C 
ATOM     34  C   UNL     1     -47.390 100.684  -6.810  0.00  0.00    +0.000 C 
ATOM     35  C   UNL     1     -42.617 104.576  -3.813  0.00  0.00    +0.000 C 
BRANCH  26  36
ATOM     36  O   UNL     1     -48.390 102.752  -7.346  0.00  0.00    +0.000 OA
ATOM     37  H   UNL     1     -48.521 102.050  -8.008  0.00  0.00    +0.000 HD
ENDBRANCH  26  36
ENDBRANCH  21  25
ENDBRANCH   3  20
TORSDOF 5
ENDMDL
MODEL 9
REMARK VINA RESULT:      -5.4     23.677     27.133
REMARK  Name = 342374_SipholenolA.pdbqt.pdb
REMARK  5 active torsions:
REMARK  status: ('A' for Active; 'I' for Inactive)
REMARK    1  A    between atoms: C_3  and  C_20
REMARK    2  A    between atoms: C_4  and  O_16
REMARK    3  A    between atoms: C_13  and  O_18
REMARK    4  A    between atoms: C_21  and  C_25
REMARK    5  A    between atoms: C_26  and  O_36
REMARK                            x       y       z     vdW  Elec       q    Type
REMARK                         _______ _______ _______ _____ _____    ______ ____
ROOT
ATOM      1  O   UNL     1     -45.984  81.403   8.054  0.00  0.00    +0.000 OA
ATOM      2  C   UNL     1     -46.975  82.710   6.022  0.00  0.00    +0.000 C 
ATOM      3  C   UNL     1     -46.736  83.079   4.555  0.00  0.00    +0.000 C 
ATOM      4  C   UNL     1     -45.348  83.493   4.097  0.00  0.00    +0.000 C 
ATOM      5  C   UNL     1     -45.794  81.964   6.786  0.00  0.00    +0.000 C 
ATOM      6  C   UNL     1     -48.059  81.720   6.128  0.00  0.00    +0.000 C 
ATOM      7  C   UNL     1     -44.375  83.019   5.062  0.00  0.00    +0.000 C 
ATOM      8  C   UNL     1     -44.492  82.277   6.351  0.00  0.00    +0.000 C 
ATOM      9  C   UNL     1     -47.328  83.990   6.828  0.00  0.00    +0.000 C 
ATOM     10  C   UNL     1     -48.436  80.460   6.869  0.00  0.00    +0.000 C 
ATOM     11  C   UNL     1     -46.293  79.975   8.162  0.00  0.00    +0.000 C 
ATOM     12  C   UNL     1     -45.049  82.956   2.689  0.00  0.00    +0.000 C 
ATOM     13  C   UNL     1     -47.782  79.659   7.828  0.00  0.00    +0.000 C 
ATOM     14  C   UNL     1     -45.387  79.110   7.237  0.00  0.00    +0.000 C 
ATOM     15  C   UNL     1     -46.060  79.568   9.647  0.00  0.00    +0.000 C 
ENDROOT
BRANCH   4  16
ATOM     16  O   UNL     1     -45.277  84.893   3.994  0.00  0.00    +0.000 OA
ATOM     17  H   UNL     1     -44.324  85.024   3.840  0.00  0.00    +0.000 HD
ENDBRANCH   4  16
BRANCH  13  18
ATOM     18  O   UNL     1     -48.490  78.632   8.445  0.00  0.00    +0.000 OA
ATOM     19  H   UNL     1     -49.362  78.493   8.019  0.00  0.00    +0.000 HD
ENDBRANCH  13  18
BRANCH   3  20
ATOM     20  C   UNL     1     -47.860  83.262   3.674  0.00  0.00    +0.000 C 
ATOM     21  C   UNL     1     -49.054  83.474   2.738  0.00  0.00    +0.000 C 
BRANCH  21  25
ATOM     22  C   UNL     1     -49.870  84.664  -0.554  0.00  0.00    +0.000 C 
ATOM     23  C   UNL     1     -50.095  83.415   0.342  0.00  0.00    +0.000 C 
ATOM     24  C   UNL     1     -50.775  85.861  -0.616  0.00  0.00    +0.000 C 
ATOM     25  C   UNL     1     -50.173  83.681   1.864  0.00  0.00    +0.000 C 
ATOM     26  C   UNL     1     -50.534  86.725  -1.849  0.00  0.00    +0.000 C 
ATOM     27  C   UNL     1     -49.047  84.744  -1.716  0.00  0.00    +0.000 C 
ATOM     28  C   UNL     1     -49.458  85.971  -2.482  0.00  0.00    +0.000 C 
ATOM     29  C   UNL     1     -51.669  86.046   0.454  0.00  0.00    +0.000 C 
ATOM     30  C   UNL     1     -51.368  84.311   2.426  0.00  0.00    +0.000 C 
ATOM     31  C   UNL     1     -48.908  82.415   0.073  0.00  0.00    +0.000 C 
ATOM     32  C   UNL     1     -51.399  82.694  -0.144  0.00  0.00    +0.000 C 
ATOM     33  C   UNL     1     -51.860  85.299   1.746  0.00  0.00    +0.000 C 
ATOM     34  C   UNL     1     -50.200  88.166  -1.492  0.00  0.00    +0.000 C 
ATOM     35  C   UNL     1     -51.769  84.209   3.874  0.00  0.00    +0.000 C 
BRANCH  26  36
ATOM     36  O   UNL     1     -51.680  86.749  -2.659  0.00  0.00    +0.000 OA
ATOM     37  H   UNL     1     -51.391  87.349  -3.369  0.00  0.00    +0.000 HD
ENDBRANCH  26  36
ENDBRANCH  21  25
ENDBRANCH   3  20
TORSDOF 5
ENDMDL
