MODEL 1
REMARK VINA RESULT:      -4.0      0.000      0.000
REMARK  Name = 43806_Diaminocyclohexane.pdbqt.pdb
REMARK  2 active torsions:
REMARK  status: ('A' for Active; 'I' for Inactive)
REMARK    1  A    between atoms: C_1  and  N_7
REMARK    2  A    between atoms: C_2  and  N_10
REMARK                            x       y       z     vdW  Elec       q    Type
REMARK                         _______ _______ _______ _____ _____    ______ ____
ROOT
ATOM      1  C   UNL     1     -22.835  86.163   1.791  0.00  0.00    +0.000 A 
ATOM      2  C   UNL     1     -23.279  87.156   2.794  0.00  0.00    +0.000 A 
ATOM      3  C   UNL     1     -21.558  86.425   1.197  0.00  0.00    +0.000 A 
ATOM      4  C   UNL     1     -22.352  88.219   3.051  0.00  0.00    +0.000 A 
ATOM      5  C   UNL     1     -20.522  87.540   1.414  0.00  0.00    +0.000 A 
ATOM      6  C   UNL     1     -20.971  88.555   2.466  0.00  0.00    +0.000 A 
ENDROOT
BRANCH   1   7
ATOM      7  N   UNL     1     -23.576  84.995   1.492  0.00  0.00    +0.000 N 
ATOM      8  H   UNL     1     -24.526  85.017   1.847  0.00  0.00    +0.000 HD
ATOM      9  H   UNL     1     -23.100  84.127   1.713  0.00  0.00    +0.000 HD
ENDBRANCH   1   7
BRANCH   2  10
ATOM     10  N   UNL     1     -24.556  87.112   3.400  0.00  0.00    +0.000 N 
ATOM     11  H   UNL     1     -24.719  87.868   4.058  0.00  0.00    +0.000 HD
ATOM     12  H   UNL     1     -24.810  86.207   3.783  0.00  0.00    +0.000 HD
ENDBRANCH   2  10
TORSDOF 2
ENDMDL
MODEL 2
REMARK VINA RESULT:      -4.0      0.004      2.286
REMARK  Name = 43806_Diaminocyclohexane.pdbqt.pdb
REMARK  2 active torsions:
REMARK  status: ('A' for Active; 'I' for Inactive)
REMARK    1  A    between atoms: C_1  and  N_7
REMARK    2  A    between atoms: C_2  and  N_10
REMARK                            x       y       z     vdW  Elec       q    Type
REMARK                         _______ _______ _______ _____ _____    ______ ____
ROOT
ATOM      1  C   UNL     1     -23.276  87.157   2.793  0.00  0.00    +0.000 A 
ATOM      2  C   UNL     1     -22.832  86.165   1.790  0.00  0.00    +0.000 A 
ATOM      3  C   UNL     1     -22.350  88.219   3.052  0.00  0.00    +0.000 A 
ATOM      4  C   UNL     1     -21.554  86.428   1.197  0.00  0.00    +0.000 A 
ATOM      5  C   UNL     1     -20.969  88.558   2.468  0.00  0.00    +0.000 A 
ATOM      6  C   UNL     1     -20.519  87.544   1.414  0.00  0.00    +0.000 A 
ENDROOT
BRANCH   1   7
ATOM      7  N   UNL     1     -24.553  87.110   3.400  0.00  0.00    +0.000 N 
ATOM      8  H   UNL     1     -24.523  87.177   4.413  0.00  0.00    +0.000 HD
ATOM      9  H   UNL     1     -25.144  86.350   3.080  0.00  0.00    +0.000 HD
ENDBRANCH   1   7
BRANCH   2  10
ATOM     10  N   UNL     1     -23.571  84.997   1.490  0.00  0.00    +0.000 N 
ATOM     11  H   UNL     1     -24.297  85.144   0.795  0.00  0.00    +0.000 HD
ATOM     12  H   UNL     1     -23.912  84.493   2.302  0.00  0.00    +0.000 HD
ENDBRANCH   2  10
TORSDOF 2
ENDMDL
MODEL 3
REMARK VINA RESULT:      -4.0      2.749      3.846
REMARK  Name = 43806_Diaminocyclohexane.pdbqt.pdb
REMARK  2 active torsions:
REMARK  status: ('A' for Active; 'I' for Inactive)
REMARK    1  A    between atoms: C_1  and  N_7
REMARK    2  A    between atoms: C_2  and  N_10
REMARK                            x       y       z     vdW  Elec       q    Type
REMARK                         _______ _______ _______ _____ _____    ______ ____
ROOT
ATOM      1  C   UNL     1     -23.685  87.172   4.419  0.00  0.00    +0.000 A 
ATOM      2  C   UNL     1     -22.557  88.119   4.281  0.00  0.00    +0.000 A 
ATOM      3  C   UNL     1     -23.764  86.498   5.681  0.00  0.00    +0.000 A 
ATOM      4  C   UNL     1     -21.726  88.250   5.441  0.00  0.00    +0.000 A 
ATOM      5  C   UNL     1     -22.910  86.579   6.956  0.00  0.00    +0.000 A 
ATOM      6  C   UNL     1     -21.756  87.574   6.820  0.00  0.00    +0.000 A 
ENDROOT
BRANCH   1   7
ATOM      7  N   UNL     1     -24.665  86.998   3.413  0.00  0.00    +0.000 N 
ATOM      8  H   UNL     1     -24.274  86.788   2.500  0.00  0.00    +0.000 HD
ATOM      9  H   UNL     1     -25.364  87.733   3.375  0.00  0.00    +0.000 HD
ENDBRANCH   1   7
BRANCH   2  10
ATOM     10  N   UNL     1     -22.266  88.790   3.070  0.00  0.00    +0.000 N 
ATOM     11  H   UNL     1     -22.922  89.533   2.850  0.00  0.00    +0.000 HD
ATOM     12  H   UNL     1     -22.099  88.178   2.278  0.00  0.00    +0.000 HD
ENDBRANCH   2  10
TORSDOF 2
ENDMDL
MODEL 4
REMARK VINA RESULT:      -3.7     18.997     19.695
REMARK  Name = 43806_Diaminocyclohexane.pdbqt.pdb
REMARK  2 active torsions:
REMARK  status: ('A' for Active; 'I' for Inactive)
REMARK    1  A    between atoms: C_1  and  N_7
REMARK    2  A    between atoms: C_2  and  N_10
REMARK                            x       y       z     vdW  Elec       q    Type
REMARK                         _______ _______ _______ _____ _____    ______ ____
ROOT
ATOM      1  C   UNL     1     -40.758  91.104  -5.563  0.00  0.00    +0.000 A 
ATOM      2  C   UNL     1     -40.334  92.485  -5.243  0.00  0.00    +0.000 A 
ATOM      3  C   UNL     1     -39.724  90.249  -6.064  0.00  0.00    +0.000 A 
ATOM      4  C   UNL     1     -38.942  92.758  -5.450  0.00  0.00    +0.000 A 
ATOM      5  C   UNL     1     -38.225  90.474  -6.320  0.00  0.00    +0.000 A 
ATOM      6  C   UNL     1     -37.782  91.895  -5.970  0.00  0.00    +0.000 A 
ENDROOT
BRANCH   1   7
ATOM      7  N   UNL     1     -42.070  90.632  -5.319  0.00  0.00    +0.000 N 
ATOM      8  H   UNL     1     -42.393  89.961  -6.009  0.00  0.00    +0.000 HD
ATOM      9  H   UNL     1     -42.753  91.361  -5.139  0.00  0.00    +0.000 HD
ENDBRANCH   1   7
BRANCH   2  10
ATOM     10  N   UNL     1     -41.244  93.490  -4.839  0.00  0.00    +0.000 N 
ATOM     11  H   UNL     1     -41.541  94.097  -5.597  0.00  0.00    +0.000 HD
ATOM     12  H   UNL     1     -40.957  94.012  -4.017  0.00  0.00    +0.000 HD
ENDBRANCH   2  10
TORSDOF 2
ENDMDL
MODEL 5
REMARK VINA RESULT:      -3.7     18.996     19.784
REMARK  Name = 43806_Diaminocyclohexane.pdbqt.pdb
REMARK  2 active torsions:
REMARK  status: ('A' for Active; 'I' for Inactive)
REMARK    1  A    between atoms: C_1  and  N_7
REMARK    2  A    between atoms: C_2  and  N_10
REMARK                            x       y       z     vdW  Elec       q    Type
REMARK                         _______ _______ _______ _____ _____    ______ ____
ROOT
ATOM      1  C   UNL     1     -40.333  92.463  -5.256  0.00  0.00    +0.000 A 
ATOM      2  C   UNL     1     -40.760  91.081  -5.566  0.00  0.00    +0.000 A 
ATOM      3  C   UNL     1     -38.943  92.734  -5.466  0.00  0.00    +0.000 A 
ATOM      4  C   UNL     1     -39.727  90.222  -6.065  0.00  0.00    +0.000 A 
ATOM      5  C   UNL     1     -37.783  91.867  -5.984  0.00  0.00    +0.000 A 
ATOM      6  C   UNL     1     -38.229  90.444  -6.325  0.00  0.00    +0.000 A 
ENDROOT
BRANCH   1   7
ATOM      7  N   UNL     1     -41.242  93.471  -4.855  0.00  0.00    +0.000 N 
ATOM      8  H   UNL     1     -40.862  94.410  -4.927  0.00  0.00    +0.000 HD
ATOM      9  H   UNL     1     -41.690  93.303  -3.960  0.00  0.00    +0.000 HD
ENDBRANCH   1   7
BRANCH   2  10
ATOM     10  N   UNL     1     -42.071  90.611  -5.317  0.00  0.00    +0.000 N 
ATOM     11  H   UNL     1     -42.464  90.079  -6.087  0.00  0.00    +0.000 HD
ATOM     12  H   UNL     1     -42.712  91.316  -4.969  0.00  0.00    +0.000 HD
ENDBRANCH   2  10
TORSDOF 2
ENDMDL
MODEL 6
REMARK VINA RESULT:      -3.6     21.995     22.747
REMARK  Name = 43806_Diaminocyclohexane.pdbqt.pdb
REMARK  2 active torsions:
REMARK  status: ('A' for Active; 'I' for Inactive)
REMARK    1  A    between atoms: C_1  and  N_7
REMARK    2  A    between atoms: C_2  and  N_10
REMARK                            x       y       z     vdW  Elec       q    Type
REMARK                         _______ _______ _______ _____ _____    ______ ____
ROOT
ATOM      1  C   UNL     1     -37.302 104.470   4.999  0.00  0.00    +0.000 A 
ATOM      2  C   UNL     1     -38.411 103.492   5.035  0.00  0.00    +0.000 A 
ATOM      3  C   UNL     1     -36.346 104.270   3.951  0.00  0.00    +0.000 A 
ATOM      4  C   UNL     1     -38.387 102.505   3.996  0.00  0.00    +0.000 A 
ATOM      5  C   UNL     1     -36.250 103.236   2.817  0.00  0.00    +0.000 A 
ATOM      6  C   UNL     1     -37.408 102.238   2.841  0.00  0.00    +0.000 A 
ENDROOT
BRANCH   1   7
ATOM      7  N   UNL     1     -37.226 105.573   5.882  0.00  0.00    +0.000 N 
ATOM      8  H   UNL     1     -36.279 105.904   6.037  0.00  0.00    +0.000 HD
ATOM      9  H   UNL     1     -37.741 105.454   6.749  0.00  0.00    +0.000 HD
ENDBRANCH   1   7
BRANCH   2  10
ATOM     10  N   UNL     1     -39.384 103.477   6.062  0.00  0.00    +0.000 N 
ATOM     11  H   UNL     1     -40.014 102.682   6.012  0.00  0.00    +0.000 HD
ATOM     12  H   UNL     1     -39.879 104.354   6.187  0.00  0.00    +0.000 HD
ENDBRANCH   2  10
TORSDOF 2
ENDMDL
MODEL 7
REMARK VINA RESULT:      -3.6     19.768     20.432
REMARK  Name = 43806_Diaminocyclohexane.pdbqt.pdb
REMARK  2 active torsions:
REMARK  status: ('A' for Active; 'I' for Inactive)
REMARK    1  A    between atoms: C_1  and  N_7
REMARK    2  A    between atoms: C_2  and  N_10
REMARK                            x       y       z     vdW  Elec       q    Type
REMARK                         _______ _______ _______ _____ _____    ______ ____
ROOT
ATOM      1  C   UNL     1     -31.812  98.822  15.506  0.00  0.00    +0.000 A 
ATOM      2  C   UNL     1     -30.941  99.741  14.740  0.00  0.00    +0.000 A 
ATOM      3  C   UNL     1     -33.218  99.045  15.353  0.00  0.00    +0.000 A 
ATOM      4  C   UNL     1     -31.631 100.700  13.929  0.00  0.00    +0.000 A 
ATOM      5  C   UNL     1     -34.024 100.052  14.515  0.00  0.00    +0.000 A 
ATOM      6  C   UNL     1     -33.124 100.988  13.707  0.00  0.00    +0.000 A 
ENDROOT
BRANCH   1   7
ATOM      7  N   UNL     1     -31.302  97.749  16.275  0.00  0.00    +0.000 N 
ATOM      8  H   UNL     1     -32.021  97.122  16.622  0.00  0.00    +0.000 HD
ATOM      9  H   UNL     1     -30.646  98.025  17.000  0.00  0.00    +0.000 HD
ENDBRANCH   1   7
BRANCH   2  10
ATOM     10  N   UNL     1     -29.531  99.732  14.856  0.00  0.00    +0.000 N 
ATOM     11  H   UNL     1     -29.063 100.289  14.148  0.00  0.00    +0.000 HD
ATOM     12  H   UNL     1     -29.122  98.809  14.953  0.00  0.00    +0.000 HD
ENDBRANCH   2  10
TORSDOF 2
ENDMDL
MODEL 8
REMARK VINA RESULT:      -3.6      1.641      2.095
REMARK  Name = 43806_Diaminocyclohexane.pdbqt.pdb
REMARK  2 active torsions:
REMARK  status: ('A' for Active; 'I' for Inactive)
REMARK    1  A    between atoms: C_1  and  N_7
REMARK    2  A    between atoms: C_2  and  N_10
REMARK                            x       y       z     vdW  Elec       q    Type
REMARK                         _______ _______ _______ _____ _____    ______ ____
ROOT
ATOM      1  C   UNL     1     -23.158  87.199   3.242  0.00  0.00    +0.000 A 
ATOM      2  C   UNL     1     -23.245  87.277   4.717  0.00  0.00    +0.000 A 
ATOM      3  C   UNL     1     -22.071  87.924   2.656  0.00  0.00    +0.000 A 
ATOM      4  C   UNL     1     -22.209  88.039   5.349  0.00  0.00    +0.000 A 
ATOM      5  C   UNL     1     -20.937  88.766   3.265  0.00  0.00    +0.000 A 
ATOM      6  C   UNL     1     -21.014  88.828   4.792  0.00  0.00    +0.000 A 
ENDROOT
BRANCH   1   7
ATOM      7  N   UNL     1     -24.034  86.404   2.466  0.00  0.00    +0.000 N 
ATOM      8  H   UNL     1     -24.061  85.431   2.754  0.00  0.00    +0.000 HD
ATOM      9  H   UNL     1     -23.919  86.507   1.463  0.00  0.00    +0.000 HD
ENDBRANCH   1   7
BRANCH   2  10
ATOM     10  N   UNL     1     -24.314  86.710   5.451  0.00  0.00    +0.000 N 
ATOM     11  H   UNL     1     -24.408  85.708   5.321  0.00  0.00    +0.000 HD
ATOM     12  H   UNL     1     -25.198  87.197   5.351  0.00  0.00    +0.000 HD
ENDBRANCH   2  10
TORSDOF 2
ENDMDL
MODEL 9
REMARK VINA RESULT:      -3.5     21.629     22.382
REMARK  Name = 43806_Diaminocyclohexane.pdbqt.pdb
REMARK  2 active torsions:
REMARK  status: ('A' for Active; 'I' for Inactive)
REMARK    1  A    between atoms: C_1  and  N_7
REMARK    2  A    between atoms: C_2  and  N_10
REMARK                            x       y       z     vdW  Elec       q    Type
REMARK                         _______ _______ _______ _____ _____    ______ ____
ROOT
ATOM      1  C   UNL     1     -38.949 102.302   3.792  0.00  0.00    +0.000 A 
ATOM      2  C   UNL     1     -38.545 103.176   4.915  0.00  0.00    +0.000 A 
ATOM      3  C   UNL     1     -37.990 102.187   2.734  0.00  0.00    +0.000 A 
ATOM      4  C   UNL     1     -37.239 103.754   4.798  0.00  0.00    +0.000 A 
ATOM      5  C   UNL     1     -36.586 102.781   2.536  0.00  0.00    +0.000 A 
ATOM      6  C   UNL     1     -36.160 103.668   3.707  0.00  0.00    +0.000 A 
ENDROOT
BRANCH   1   7
ATOM      7  N   UNL     1     -40.158 101.567   3.792  0.00  0.00    +0.000 N 
ATOM      8  H   UNL     1     -40.482 101.321   2.862  0.00  0.00    +0.000 HD
ATOM      9  H   UNL     1     -40.894 101.967   4.365  0.00  0.00    +0.000 HD
ENDBRANCH   1   7
BRANCH   2  10
ATOM     10  N   UNL     1     -39.409 103.486   5.992  0.00  0.00    +0.000 N 
ATOM     11  H   UNL     1     -40.387 103.301   5.793  0.00  0.00    +0.000 HD
ATOM     12  H   UNL     1     -39.265 104.405   6.396  0.00  0.00    +0.000 HD
ENDBRANCH   2  10
TORSDOF 2
ENDMDL
