MODEL 1
REMARK VINA RESULT:      -6.5      0.000      0.000
REMARK  Name = 44234954_SipholenolL.pdbqt.pdb
REMARK  5 active torsions:
REMARK  status: ('A' for Active; 'I' for Inactive)
REMARK    1  A    between atoms: C_3  and  C_20
REMARK    2  A    between atoms: C_4  and  O_16
REMARK    3  A    between atoms: C_13  and  O_18
REMARK    4  A    between atoms: C_21  and  C_25
REMARK    5  A    between atoms: C_26  and  O_36
REMARK                            x       y       z     vdW  Elec       q    Type
REMARK                         _______ _______ _______ _____ _____    ______ ____
ROOT
ATOM      1  O   UNL     1     -33.259  97.117  22.036  0.00  0.00    +0.000 OA
ATOM      2  C   UNL     1     -32.813  97.698  19.535  0.00  0.00    +0.000 C 
ATOM      3  C   UNL     1     -32.156  98.731  18.618  0.00  0.00    +0.000 C 
ATOM      4  C   UNL     1     -30.752  99.220  18.925  0.00  0.00    +0.000 C 
ATOM      5  C   UNL     1     -32.550  97.870  21.096  0.00  0.00    +0.000 C 
ATOM      6  C   UNL     1     -34.279  97.803  19.486  0.00  0.00    +0.000 C 
ATOM      7  C   UNL     1     -30.506  99.054  20.346  0.00  0.00    +0.000 C 
ATOM      8  C   UNL     1     -31.307  98.438  21.445  0.00  0.00    +0.000 C 
ATOM      9  C   UNL     1     -32.369  96.270  19.120  0.00  0.00    +0.000 C 
ATOM     10  C   UNL     1     -35.486  97.797  20.390  0.00  0.00    +0.000 C 
ATOM     11  C   UNL     1     -34.426  97.709  22.714  0.00  0.00    +0.000 C 
ATOM     12  C   UNL     1     -29.707  98.562  18.028  0.00  0.00    +0.000 C 
ATOM     13  C   UNL     1     -35.688  97.737  21.788  0.00  0.00    +0.000 C 
ATOM     14  C   UNL     1     -34.714  96.788  23.930  0.00  0.00    +0.000 C 
ATOM     15  C   UNL     1     -34.121  99.165  23.187  0.00  0.00    +0.000 C 
ENDROOT
BRANCH   4  16
ATOM     16  O   UNL     1     -30.675 100.598  18.624  0.00  0.00    +0.000 OA
ATOM     17  H   UNL     1     -31.621 100.836  18.618  0.00  0.00    +0.000 HD
ENDBRANCH   4  16
BRANCH  13  18
ATOM     18  O   UNL     1     -36.968  97.928  22.294  0.00  0.00    +0.000 OA
ATOM     19  H   UNL     1     -37.564  97.187  22.088  0.00  0.00    +0.000 HD
ENDBRANCH  13  18
BRANCH   3  20
ATOM     20  C   UNL     1     -32.827  99.198  17.435  0.00  0.00    +0.000 C 
ATOM     21  C   UNL     1     -33.554  99.723  16.194  0.00  0.00    +0.000 C 
BRANCH  21  25
ATOM     22  C   UNL     1     -35.779 100.331  15.034  0.00  0.00    +0.000 A 
ATOM     23  C   UNL     1     -36.505 100.954  13.778  0.00  0.00    +0.000 A 
ATOM     24  C   UNL     1     -36.592  99.755  16.266  0.00  0.00    +0.000 C 
ATOM     25  C   UNL     1     -34.237 100.259  15.057  0.00  0.00    +0.000 A 
ATOM     26  C   UNL     1     -38.023 101.148  13.553  0.00  0.00    +0.000 C 
ATOM     27  C   UNL     1     -38.002  99.946  15.912  0.00  0.00    +0.000 C 
ATOM     28  C   UNL     1     -38.669 100.558  14.710  0.00  0.00    +0.000 C 
ATOM     29  C   UNL     1     -35.555 101.314  12.778  0.00  0.00    +0.000 A 
ATOM     30  C   UNL     1     -33.389 100.715  13.922  0.00  0.00    +0.000 A 
ATOM     31  C   UNL     1     -36.268 100.578  17.536  0.00  0.00    +0.000 C 
ATOM     32  C   UNL     1     -36.310  98.246  16.425  0.00  0.00    +0.000 C 
ATOM     33  C   UNL     1     -34.068 101.173  12.919  0.00  0.00    +0.000 A 
ATOM     34  C   UNL     1     -38.370 102.616  13.349  0.00  0.00    +0.000 C 
ATOM     35  C   UNL     1     -31.891 100.806  13.915  0.00  0.00    +0.000 C 
BRANCH  26  36
ATOM     36  O   UNL     1     -38.417 100.465  12.392  0.00  0.00    +0.000 OA
ATOM     37  H   UNL     1     -38.610 101.211  11.795  0.00  0.00    +0.000 HD
ENDBRANCH  26  36
ENDBRANCH  21  25
ENDBRANCH   3  20
TORSDOF 5
ENDMDL
MODEL 2
REMARK VINA RESULT:      -6.2     14.504     17.761
REMARK  Name = 44234954_SipholenolL.pdbqt.pdb
REMARK  5 active torsions:
REMARK  status: ('A' for Active; 'I' for Inactive)
REMARK    1  A    between atoms: C_3  and  C_20
REMARK    2  A    between atoms: C_4  and  O_16
REMARK    3  A    between atoms: C_13  and  O_18
REMARK    4  A    between atoms: C_21  and  C_25
REMARK    5  A    between atoms: C_26  and  O_36
REMARK                            x       y       z     vdW  Elec       q    Type
REMARK                         _______ _______ _______ _____ _____    ______ ____
ROOT
ATOM      1  O   UNL     1     -27.099  81.830   9.511  0.00  0.00    +0.000 OA
ATOM      2  C   UNL     1     -26.934  83.521  11.487  0.00  0.00    +0.000 C 
ATOM      3  C   UNL     1     -26.388  83.694  12.906  0.00  0.00    +0.000 C 
ATOM      4  C   UNL     1     -24.961  83.279  13.214  0.00  0.00    +0.000 C 
ATOM      5  C   UNL     1     -26.501  82.194  10.721  0.00  0.00    +0.000 C 
ATOM      6  C   UNL     1     -28.398  83.371  11.498  0.00  0.00    +0.000 C 
ATOM      7  C   UNL     1     -24.559  82.264  12.258  0.00  0.00    +0.000 C 
ATOM      8  C   UNL     1     -25.230  81.684  11.057  0.00  0.00    +0.000 C 
ATOM      9  C   UNL     1     -26.533  84.740  10.617  0.00  0.00    +0.000 C 
ATOM     10  C   UNL     1     -29.498  82.549  10.875  0.00  0.00    +0.000 C 
ATOM     11  C   UNL     1     -28.186  80.837   9.504  0.00  0.00    +0.000 C 
ATOM     12  C   UNL     1     -24.019  84.477  13.290  0.00  0.00    +0.000 C 
ATOM     13  C   UNL     1     -29.542  81.451   9.986  0.00  0.00    +0.000 C 
ATOM     14  C   UNL     1     -28.333  80.389   8.024  0.00  0.00    +0.000 C 
ATOM     15  C   UNL     1     -27.837  79.618  10.414  0.00  0.00    +0.000 C 
ENDROOT
BRANCH   4  16
ATOM     16  O   UNL     1     -24.924  82.705  14.505  0.00  0.00    +0.000 OA
ATOM     17  H   UNL     1     -24.346  83.338  14.970  0.00  0.00    +0.000 HD
ENDBRANCH   4  16
BRANCH  13  18
ATOM     18  O   UNL     1     -30.759  80.823   9.751  0.00  0.00    +0.000 OA
ATOM     19  H   UNL     1     -30.651  79.908   9.436  0.00  0.00    +0.000 HD
ENDBRANCH  13  18
BRANCH   3  20
ATOM     20  C   UNL     1     -27.188  84.303  13.934  0.00  0.00    +0.000 C 
ATOM     21  C   UNL     1     -28.027  84.983  15.020  0.00  0.00    +0.000 C 
BRANCH  21  25
ATOM     22  C   UNL     1     -28.907  87.203  16.002  0.00  0.00    +0.000 A 
ATOM     23  C   UNL     1     -29.797  87.924  17.087  0.00  0.00    +0.000 A 
ATOM     24  C   UNL     1     -28.091  88.020  14.916  0.00  0.00    +0.000 C 
ATOM     25  C   UNL     1     -28.806  85.662  16.008  0.00  0.00    +0.000 A 
ATOM     26  C   UNL     1     -30.060  89.439  17.251  0.00  0.00    +0.000 C 
ATOM     27  C   UNL     1     -28.377  89.428  15.208  0.00  0.00    +0.000 C 
ATOM     28  C   UNL     1     -29.245  90.090  16.244  0.00  0.00    +0.000 C 
ATOM     29  C   UNL     1     -30.350  86.973  17.994  0.00  0.00    +0.000 A 
ATOM     30  C   UNL     1     -29.484  84.812  17.025  0.00  0.00    +0.000 A 
ATOM     31  C   UNL     1     -28.615  87.674  13.501  0.00  0.00    +0.000 C 
ATOM     32  C   UNL     1     -26.579  87.763  15.089  0.00  0.00    +0.000 C 
ATOM     33  C   UNL     1     -30.158  85.488  17.900  0.00  0.00    +0.000 A 
ATOM     34  C   UNL     1     -31.543  89.761  17.131  0.00  0.00    +0.000 C 
ATOM     35  C   UNL     1     -29.550  83.312  17.025  0.00  0.00    +0.000 C 
BRANCH  26  36
ATOM     36  O   UNL     1     -29.651  89.851  18.530  0.00  0.00    +0.000 OA
ATOM     37  H   UNL     1     -29.442  88.993  18.943  0.00  0.00    +0.000 HD
ENDBRANCH  26  36
ENDBRANCH  21  25
ENDBRANCH   3  20
TORSDOF 5
ENDMDL
MODEL 3
REMARK VINA RESULT:      -5.8     12.370     15.443
REMARK  Name = 44234954_SipholenolL.pdbqt.pdb
REMARK  5 active torsions:
REMARK  status: ('A' for Active; 'I' for Inactive)
REMARK    1  A    between atoms: C_3  and  C_20
REMARK    2  A    between atoms: C_4  and  O_16
REMARK    3  A    between atoms: C_13  and  O_18
REMARK    4  A    between atoms: C_21  and  C_25
REMARK    5  A    between atoms: C_26  and  O_36
REMARK                            x       y       z     vdW  Elec       q    Type
REMARK                         _______ _______ _______ _____ _____    ______ ____
ROOT
ATOM      1  O   UNL     1     -40.349  83.490  18.359  0.00  0.00    +0.000 OA
ATOM      2  C   UNL     1     -38.004  84.555  18.756  0.00  0.00    +0.000 C 
ATOM      3  C   UNL     1     -37.172  85.814  18.499  0.00  0.00    +0.000 C 
ATOM      4  C   UNL     1     -37.778  87.179  18.770  0.00  0.00    +0.000 C 
ATOM      5  C   UNL     1     -39.544  84.634  18.362  0.00  0.00    +0.000 C 
ATOM      6  C   UNL     1     -37.554  83.441  17.906  0.00  0.00    +0.000 C 
ATOM      7  C   UNL     1     -39.222  87.070  18.676  0.00  0.00    +0.000 C 
ATOM      8  C   UNL     1     -40.137  85.908  18.473  0.00  0.00    +0.000 C 
ATOM      9  C   UNL     1     -37.901  84.155  20.251  0.00  0.00    +0.000 C 
ATOM     10  C   UNL     1     -38.099  82.331  17.044  0.00  0.00    +0.000 C 
ATOM     11  C   UNL     1     -40.613  82.789  17.091  0.00  0.00    +0.000 C 
ATOM     12  C   UNL     1     -37.279  87.777  20.082  0.00  0.00    +0.000 C 
ATOM     13  C   UNL     1     -39.390  81.926  16.633  0.00  0.00    +0.000 C 
ATOM     14  C   UNL     1     -41.814  81.847  17.377  0.00  0.00    +0.000 C 
ATOM     15  C   UNL     1     -40.966  83.799  15.955  0.00  0.00    +0.000 C 
ENDROOT
BRANCH   4  16
ATOM     16  O   UNL     1     -37.340  88.077  17.770  0.00  0.00    +0.000 OA
ATOM     17  H   UNL     1     -38.007  87.916  17.077  0.00  0.00    +0.000 HD
ENDBRANCH   4  16
BRANCH  13  18
ATOM     18  O   UNL     1     -39.511  80.930  15.672  0.00  0.00    +0.000 OA
ATOM     19  H   UNL     1     -40.036  80.172  15.986  0.00  0.00    +0.000 HD
ENDBRANCH  13  18
BRANCH   3  20
ATOM     20  C   UNL     1     -35.806  85.718  18.063  0.00  0.00    +0.000 C 
ATOM     21  C   UNL     1     -34.361  85.604  17.567  0.00  0.00    +0.000 C 
BRANCH  21  25
ATOM     22  C   UNL     1     -32.075  86.711  17.104  0.00  0.00    +0.000 A 
ATOM     23  C   UNL     1     -30.601  86.557  16.560  0.00  0.00    +0.000 A 
ATOM     24  C   UNL     1     -32.612  88.086  17.680  0.00  0.00    +0.000 C 
ATOM     25  C   UNL     1     -33.030  85.498  17.057  0.00  0.00    +0.000 A 
ATOM     26  C   UNL     1     -29.479  87.620  16.534  0.00  0.00    +0.000 C 
ATOM     27  C   UNL     1     -31.485  89.016  17.551  0.00  0.00    +0.000 C 
ATOM     28  C   UNL     1     -30.081  88.838  17.040  0.00  0.00    +0.000 C 
ATOM     29  C   UNL     1     -30.401  85.253  16.020  0.00  0.00    +0.000 A 
ATOM     30  C   UNL     1     -32.638  84.183  16.477  0.00  0.00    +0.000 A 
ATOM     31  C   UNL     1     -32.970  87.921  19.176  0.00  0.00    +0.000 C 
ATOM     32  C   UNL     1     -33.789  88.594  16.820  0.00  0.00    +0.000 C 
ATOM     33  C   UNL     1     -31.428  84.159  16.018  0.00  0.00    +0.000 A 
ATOM     34  C   UNL     1     -28.266  87.166  17.333  0.00  0.00    +0.000 C 
ATOM     35  C   UNL     1     -33.451  82.922  16.512  0.00  0.00    +0.000 C 
BRANCH  26  36
ATOM     36  O   UNL     1     -29.051  87.819  15.211  0.00  0.00    +0.000 OA
ATOM     37  H   UNL     1     -28.084  87.764  15.319  0.00  0.00    +0.000 HD
ENDBRANCH  26  36
ENDBRANCH  21  25
ENDBRANCH   3  20
TORSDOF 5
ENDMDL
MODEL 4
REMARK VINA RESULT:      -5.8     24.944     29.314
REMARK  Name = 44234954_SipholenolL.pdbqt.pdb
REMARK  5 active torsions:
REMARK  status: ('A' for Active; 'I' for Inactive)
REMARK    1  A    between atoms: C_3  and  C_20
REMARK    2  A    between atoms: C_4  and  O_16
REMARK    3  A    between atoms: C_13  and  O_18
REMARK    4  A    between atoms: C_21  and  C_25
REMARK    5  A    between atoms: C_26  and  O_36
REMARK                            x       y       z     vdW  Elec       q    Type
REMARK                         _______ _______ _______ _____ _____    ______ ____
ROOT
ATOM      1  O   UNL     1     -43.901  94.251 -11.672  0.00  0.00    +0.000 OA
ATOM      2  C   UNL     1     -43.382  92.381  -9.932  0.00  0.00    +0.000 C 
ATOM      3  C   UNL     1     -43.022  92.142  -8.464  0.00  0.00    +0.000 C 
ATOM      4  C   UNL     1     -43.796  92.863  -7.376  0.00  0.00    +0.000 C 
ATOM      5  C   UNL     1     -43.757  93.875 -10.332  0.00  0.00    +0.000 C 
ATOM      6  C   UNL     1     -42.225  92.139 -10.807  0.00  0.00    +0.000 C 
ATOM      7  C   UNL     1     -44.352  94.081  -7.936  0.00  0.00    +0.000 C 
ATOM      8  C   UNL     1     -44.369  94.642  -9.320  0.00  0.00    +0.000 C 
ATOM      9  C   UNL     1     -44.558  91.456 -10.341  0.00  0.00    +0.000 C 
ATOM     10  C   UNL     1     -41.510  92.731 -11.996  0.00  0.00    +0.000 C 
ATOM     11  C   UNL     1     -42.785  94.915 -12.366  0.00  0.00    +0.000 C 
ATOM     12  C   UNL     1     -44.824  91.956  -6.706  0.00  0.00    +0.000 C 
ATOM     13  C   UNL     1     -41.663  93.901 -12.773  0.00  0.00    +0.000 C 
ATOM     14  C   UNL     1     -43.400  95.529 -13.653  0.00  0.00    +0.000 C 
ATOM     15  C   UNL     1     -42.152  96.029 -11.474  0.00  0.00    +0.000 C 
ENDROOT
BRANCH   4  16
ATOM     16  O   UNL     1     -42.901  93.223  -6.344  0.00  0.00    +0.000 OA
ATOM     17  H   UNL     1     -43.134  92.565  -5.663  0.00  0.00    +0.000 HD
ENDBRANCH   4  16
BRANCH  13  18
ATOM     18  O   UNL     1     -40.692  94.218 -13.714  0.00  0.00    +0.000 OA
ATOM     19  H   UNL     1     -40.543  93.498 -14.352  0.00  0.00    +0.000 HD
ENDBRANCH  13  18
BRANCH   3  20
ATOM     20  C   UNL     1     -42.002  91.196  -8.101  0.00  0.00    +0.000 C 
ATOM     21  C   UNL     1     -40.923  90.193  -7.679  0.00  0.00    +0.000 C 
BRANCH  21  25
ATOM     22  C   UNL     1     -38.619  89.741  -6.606  0.00  0.00    +0.000 A 
ATOM     23  C   UNL     1     -37.564  88.680  -6.105  0.00  0.00    +0.000 A 
ATOM     24  C   UNL     1     -38.351  91.299  -6.497  0.00  0.00    +0.000 C 
ATOM     25  C   UNL     1     -39.940  89.253  -7.241  0.00  0.00    +0.000 A 
ATOM     26  C   UNL     1     -36.201  88.940  -5.422  0.00  0.00    +0.000 C 
ATOM     27  C   UNL     1     -37.021  91.413  -5.891  0.00  0.00    +0.000 C 
ATOM     28  C   UNL     1     -36.038  90.381  -5.407  0.00  0.00    +0.000 C 
ATOM     29  C   UNL     1     -38.006  87.357  -6.398  0.00  0.00    +0.000 A 
ATOM     30  C   UNL     1     -40.254  87.812  -7.445  0.00  0.00    +0.000 A 
ATOM     31  C   UNL     1     -39.399  91.943  -5.556  0.00  0.00    +0.000 C 
ATOM     32  C   UNL     1     -38.323  91.929  -7.905  0.00  0.00    +0.000 C 
ATOM     33  C   UNL     1     -39.317  87.015  -7.043  0.00  0.00    +0.000 A 
ATOM     34  C   UNL     1     -36.145  88.309  -4.038  0.00  0.00    +0.000 C 
ATOM     35  C   UNL     1     -41.560  87.249  -7.926  0.00  0.00    +0.000 C 
BRANCH  26  36
ATOM     36  O   UNL     1     -35.175  88.357  -6.184  0.00  0.00    +0.000 OA
ATOM     37  H   UNL     1     -35.249  87.424  -5.911  0.00  0.00    +0.000 HD
ENDBRANCH  26  36
ENDBRANCH  21  25
ENDBRANCH   3  20
TORSDOF 5
ENDMDL
MODEL 5
REMARK VINA RESULT:      -5.7     10.094     12.958
REMARK  Name = 44234954_SipholenolL.pdbqt.pdb
REMARK  5 active torsions:
REMARK  status: ('A' for Active; 'I' for Inactive)
REMARK    1  A    between atoms: C_3  and  C_20
REMARK    2  A    between atoms: C_4  and  O_16
REMARK    3  A    between atoms: C_13  and  O_18
REMARK    4  A    between atoms: C_21  and  C_25
REMARK    5  A    between atoms: C_26  and  O_36
REMARK                            x       y       z     vdW  Elec       q    Type
REMARK                         _______ _______ _______ _____ _____    ______ ____
ROOT
ATOM      1  O   UNL     1     -30.424  90.525  21.904  0.00  0.00    +0.000 OA
ATOM      2  C   UNL     1     -30.563  88.853  19.910  0.00  0.00    +0.000 C 
ATOM      3  C   UNL     1     -31.019  88.719  18.456  0.00  0.00    +0.000 C 
ATOM      4  C   UNL     1     -30.653  89.799  17.454  0.00  0.00    +0.000 C 
ATOM      5  C   UNL     1     -30.617  90.316  20.535  0.00  0.00    +0.000 C 
ATOM      6  C   UNL     1     -31.466  88.128  20.817  0.00  0.00    +0.000 C 
ATOM      7  C   UNL     1     -30.431  91.040  18.173  0.00  0.00    +0.000 C 
ATOM      8  C   UNL     1     -30.408  91.374  19.628  0.00  0.00    +0.000 C 
ATOM      9  C   UNL     1     -29.117  88.312  20.058  0.00  0.00    +0.000 C 
ATOM     10  C   UNL     1     -32.168  88.281  22.143  0.00  0.00    +0.000 C 
ATOM     11  C   UNL     1     -31.590  90.686  22.789  0.00  0.00    +0.000 C 
ATOM     12  C   UNL     1     -29.492  89.379  16.557  0.00  0.00    +0.000 C 
ATOM     13  C   UNL     1     -32.282  89.316  23.099  0.00  0.00    +0.000 C 
ATOM     14  C   UNL     1     -31.032  91.278  24.112  0.00  0.00    +0.000 C 
ATOM     15  C   UNL     1     -32.644  91.648  22.158  0.00  0.00    +0.000 C 
ENDROOT
BRANCH   4  16
ATOM     16  O   UNL     1     -31.742  89.990  16.574  0.00  0.00    +0.000 OA
ATOM     17  H   UNL     1     -31.571  90.901  16.269  0.00  0.00    +0.000 HD
ENDBRANCH   4  16
BRANCH  13  18
ATOM     18  O   UNL     1     -33.173  89.164  24.154  0.00  0.00    +0.000 OA
ATOM     19  H   UNL     1     -32.739  89.246  25.022  0.00  0.00    +0.000 HD
ENDBRANCH  13  18
BRANCH   3  20
ATOM     20  C   UNL     1     -31.737  87.555  18.013  0.00  0.00    +0.000 C 
ATOM     21  C   UNL     1     -32.532  86.332  17.545  0.00  0.00    +0.000 C 
BRANCH  21  25
ATOM     22  C   UNL     1     -34.805  85.109  17.477  0.00  0.00    +0.000 A 
ATOM     23  C   UNL     1     -35.650  83.888  16.944  0.00  0.00    +0.000 A 
ATOM     24  C   UNL     1     -35.441  86.216  18.416  0.00  0.00    +0.000 C 
ATOM     25  C   UNL     1     -33.313  85.222  17.096  0.00  0.00    +0.000 A 
ATOM     26  C   UNL     1     -37.149  83.591  17.177  0.00  0.00    +0.000 C 
ATOM     27  C   UNL     1     -36.834  85.798  18.605  0.00  0.00    +0.000 C 
ATOM     28  C   UNL     1     -37.621  84.632  18.071  0.00  0.00    +0.000 C 
ATOM     29  C   UNL     1     -34.825  82.995  16.199  0.00  0.00    +0.000 A 
ATOM     30  C   UNL     1     -32.610  84.199  16.272  0.00  0.00    +0.000 A 
ATOM     31  C   UNL     1     -35.412  87.588  17.699  0.00  0.00    +0.000 C 
ATOM     32  C   UNL     1     -34.724  86.224  19.783  0.00  0.00    +0.000 C 
ATOM     33  C   UNL     1     -33.368  83.213  15.913  0.00  0.00    +0.000 A 
ATOM     34  C   UNL     1     -37.914  83.530  15.862  0.00  0.00    +0.000 C 
ATOM     35  C   UNL     1     -31.208  84.296  15.746  0.00  0.00    +0.000 C 
BRANCH  26  36
ATOM     36  O   UNL     1     -37.290  82.338  17.796  0.00  0.00    +0.000 OA
ATOM     37  H   UNL     1     -37.984  81.935  17.242  0.00  0.00    +0.000 HD
ENDBRANCH  26  36
ENDBRANCH  21  25
ENDBRANCH   3  20
TORSDOF 5
ENDMDL
MODEL 6
REMARK VINA RESULT:      -5.7     14.485     17.646
REMARK  Name = 44234954_SipholenolL.pdbqt.pdb
REMARK  5 active torsions:
REMARK  status: ('A' for Active; 'I' for Inactive)
REMARK    1  A    between atoms: C_3  and  C_20
REMARK    2  A    between atoms: C_4  and  O_16
REMARK    3  A    between atoms: C_13  and  O_18
REMARK    4  A    between atoms: C_21  and  C_25
REMARK    5  A    between atoms: C_26  and  O_36
REMARK                            x       y       z     vdW  Elec       q    Type
REMARK                         _______ _______ _______ _____ _____    ______ ____
ROOT
ATOM      1  O   UNL     1     -45.836 104.228   5.725  0.00  0.00    +0.000 OA
ATOM      2  C   UNL     1     -43.915 103.624   4.070  0.00  0.00    +0.000 C 
ATOM      3  C   UNL     1     -42.866 102.556   3.752  0.00  0.00    +0.000 C 
ATOM      4  C   UNL     1     -43.268 101.093   3.733  0.00  0.00    +0.000 C 
ATOM      5  C   UNL     1     -44.968 103.261   5.208  0.00  0.00    +0.000 C 
ATOM      6  C   UNL     1     -43.290 104.826   4.641  0.00  0.00    +0.000 C 
ATOM      7  C   UNL     1     -44.434 100.924   4.581  0.00  0.00    +0.000 C 
ATOM      8  C   UNL     1     -45.291 101.894   5.326  0.00  0.00    +0.000 C 
ATOM      9  C   UNL     1     -44.696 103.993   2.782  0.00  0.00    +0.000 C 
ATOM     10  C   UNL     1     -43.480 105.835   5.745  0.00  0.00    +0.000 C 
ATOM     11  C   UNL     1     -45.506 104.901   6.993  0.00  0.00    +0.000 C 
ATOM     12  C   UNL     1     -43.446 100.565   2.313  0.00  0.00    +0.000 C 
ATOM     13  C   UNL     1     -44.404 105.996   6.804  0.00  0.00    +0.000 C 
ATOM     14  C   UNL     1     -46.821 105.585   7.456  0.00  0.00    +0.000 C 
ATOM     15  C   UNL     1     -45.015 103.874   8.061  0.00  0.00    +0.000 C 
ENDROOT
BRANCH   4  16
ATOM     16  O   UNL     1     -42.215 100.325   4.278  0.00  0.00    +0.000 OA
ATOM     17  H   UNL     1     -42.340 100.494   5.231  0.00  0.00    +0.000 HD
ENDBRANCH   4  16
BRANCH  13  18
ATOM     18  O   UNL     1     -44.170 106.977   7.760  0.00  0.00    +0.000 OA
ATOM     19  H   UNL     1     -43.224 107.080   7.963  0.00  0.00    +0.000 HD
ENDBRANCH  13  18
BRANCH   3  20
ATOM     20  C   UNL     1     -41.520 102.926   3.409  0.00  0.00    +0.000 C 
ATOM     21  C   UNL     1     -40.075 103.286   3.046  0.00  0.00    +0.000 C 
BRANCH  21  25
ATOM     22  C   UNL     1     -38.389 104.257   1.349  0.00  0.00    +0.000 A 
ATOM     23  C   UNL     1     -36.886 104.589   1.000  0.00  0.00    +0.000 A 
ATOM     24  C   UNL     1     -39.570 104.585   0.345  0.00  0.00    +0.000 C 
ATOM     25  C   UNL     1     -38.720 103.574   2.694  0.00  0.00    +0.000 A 
ATOM     26  C   UNL     1     -36.332 105.286  -0.264  0.00  0.00    +0.000 C 
ATOM     27  C   UNL     1     -38.918 105.186  -0.823  0.00  0.00    +0.000 C 
ATOM     28  C   UNL     1     -37.479 105.505  -1.125  0.00  0.00    +0.000 C 
ATOM     29  C   UNL     1     -36.017 104.114   2.025  0.00  0.00    +0.000 A 
ATOM     30  C   UNL     1     -37.675 103.169   3.674  0.00  0.00    +0.000 A 
ATOM     31  C   UNL     1     -40.526 105.620   0.986  0.00  0.00    +0.000 C 
ATOM     32  C   UNL     1     -40.276 103.281  -0.083  0.00  0.00    +0.000 C 
ATOM     33  C   UNL     1     -36.469 103.442   3.289  0.00  0.00    +0.000 A 
ATOM     34  C   UNL     1     -35.586 106.564   0.089  0.00  0.00    +0.000 C 
ATOM     35  C   UNL     1     -37.915 102.627   5.053  0.00  0.00    +0.000 C 
BRANCH  26  36
ATOM     36  O   UNL     1     -35.416 104.436  -0.906  0.00  0.00    +0.000 OA
ATOM     37  H   UNL     1     -34.860 104.162  -0.154  0.00  0.00    +0.000 HD
ENDBRANCH  26  36
ENDBRANCH  21  25
ENDBRANCH   3  20
TORSDOF 5
ENDMDL
MODEL 7
REMARK VINA RESULT:      -5.6     21.590     26.444
REMARK  Name = 44234954_SipholenolL.pdbqt.pdb
REMARK  5 active torsions:
REMARK  status: ('A' for Active; 'I' for Inactive)
REMARK    1  A    between atoms: C_3  and  C_20
REMARK    2  A    between atoms: C_4  and  O_16
REMARK    3  A    between atoms: C_13  and  O_18
REMARK    4  A    between atoms: C_21  and  C_25
REMARK    5  A    between atoms: C_26  and  O_36
REMARK                            x       y       z     vdW  Elec       q    Type
REMARK                         _______ _______ _______ _____ _____    ______ ____
ROOT
ATOM      1  O   UNL     1     -49.557  96.572  -6.987  0.00  0.00    +0.000 OA
ATOM      2  C   UNL     1     -49.886  97.499  -4.574  0.00  0.00    +0.000 C 
ATOM      3  C   UNL     1     -49.151  98.162  -3.407  0.00  0.00    +0.000 C 
ATOM      4  C   UNL     1     -48.230  99.338  -3.675  0.00  0.00    +0.000 C 
ATOM      5  C   UNL     1     -49.064  97.341  -5.928  0.00  0.00    +0.000 C 
ATOM      6  C   UNL     1     -50.199  96.093  -4.272  0.00  0.00    +0.000 C 
ATOM      7  C   UNL     1     -47.766  99.258  -5.048  0.00  0.00    +0.000 C 
ATOM      8  C   UNL     1     -48.101  98.340  -6.176  0.00  0.00    +0.000 C 
ATOM      9  C   UNL     1     -51.191  98.278  -4.882  0.00  0.00    +0.000 C 
ATOM     10  C   UNL     1     -50.176  94.725  -4.905  0.00  0.00    +0.000 C 
ATOM     11  C   UNL     1     -49.081  95.190  -7.167  0.00  0.00    +0.000 C 
ATOM     12  C   UNL     1     -48.880 100.669  -3.310  0.00  0.00    +0.000 C 
ATOM     13  C   UNL     1     -49.745  94.205  -6.147  0.00  0.00    +0.000 C 
ATOM     14  C   UNL     1     -49.504  94.786  -8.606  0.00  0.00    +0.000 C 
ATOM     15  C   UNL     1     -47.531  95.105  -7.007  0.00  0.00    +0.000 C 
ENDROOT
BRANCH   4  16
ATOM     16  O   UNL     1     -47.105  99.237  -2.825  0.00  0.00    +0.000 OA
ATOM     17  H   UNL     1     -47.506  99.467  -1.966  0.00  0.00    +0.000 HD
ENDBRANCH   4  16
BRANCH  13  18
ATOM     18  O   UNL     1     -49.719  92.828  -6.330  0.00  0.00    +0.000 OA
ATOM     19  H   UNL     1     -48.851  92.442  -6.119  0.00  0.00    +0.000 HD
ENDBRANCH  13  18
BRANCH   3  20
ATOM     20  C   UNL     1     -49.369  97.724  -2.055  0.00  0.00    +0.000 C 
ATOM     21  C   UNL     1     -49.578  97.231  -0.620  0.00  0.00    +0.000 C 
BRANCH  21  25
ATOM     22  C   UNL     1     -50.776  95.657   1.039  0.00  0.00    +0.000 A 
ATOM     23  C   UNL     1     -50.902  95.119   2.517  0.00  0.00    +0.000 A 
ATOM     24  C   UNL     1     -51.713  95.126  -0.124  0.00  0.00    +0.000 C 
ATOM     25  C   UNL     1     -49.730  96.746   0.716  0.00  0.00    +0.000 A 
ATOM     26  C   UNL     1     -51.853  94.025   3.056  0.00  0.00    +0.000 C 
ATOM     27  C   UNL     1     -52.595  94.146   0.517  0.00  0.00    +0.000 C 
ATOM     28  C   UNL     1     -52.684  93.639   1.932  0.00  0.00    +0.000 C 
ATOM     29  C   UNL     1     -50.011  95.819   3.382  0.00  0.00    +0.000 A 
ATOM     30  C   UNL     1     -48.848  97.352   1.752  0.00  0.00    +0.000 A 
ATOM     31  C   UNL     1     -50.857  94.417  -1.201  0.00  0.00    +0.000 C 
ATOM     32  C   UNL     1     -52.566  96.285  -0.685  0.00  0.00    +0.000 C 
ATOM     33  C   UNL     1     -49.047  96.881   2.941  0.00  0.00    +0.000 A 
ATOM     34  C   UNL     1     -51.076  92.864   3.662  0.00  0.00    +0.000 C 
ATOM     35  C   UNL     1     -47.720  98.310   1.505  0.00  0.00    +0.000 C 
BRANCH  26  36
ATOM     36  O   UNL     1     -52.657  94.561   4.075  0.00  0.00    +0.000 OA
ATOM     37  H   UNL     1     -53.539  94.253   3.797  0.00  0.00    +0.000 HD
ENDBRANCH  26  36
ENDBRANCH  21  25
ENDBRANCH   3  20
TORSDOF 5
ENDMDL
MODEL 8
REMARK VINA RESULT:      -5.5     17.708     21.056
REMARK  Name = 44234954_SipholenolL.pdbqt.pdb
REMARK  5 active torsions:
REMARK  status: ('A' for Active; 'I' for Inactive)
REMARK    1  A    between atoms: C_3  and  C_20
REMARK    2  A    between atoms: C_4  and  O_16
REMARK    3  A    between atoms: C_13  and  O_18
REMARK    4  A    between atoms: C_21  and  C_25
REMARK    5  A    between atoms: C_26  and  O_36
REMARK                            x       y       z     vdW  Elec       q    Type
REMARK                         _______ _______ _______ _____ _____    ______ ____
ROOT
ATOM      1  O   UNL     1     -29.730 110.830   1.707  0.00  0.00    +0.000 OA
ATOM      2  C   UNL     1     -27.663 109.493   0.852  0.00  0.00    +0.000 C 
ATOM      3  C   UNL     1     -27.120 108.717  -0.350  0.00  0.00    +0.000 C 
ATOM      4  C   UNL     1     -27.244 109.310  -1.742  0.00  0.00    +0.000 C 
ATOM      5  C   UNL     1     -29.039 110.263   0.631  0.00  0.00    +0.000 C 
ATOM      6  C   UNL     1     -28.026 108.583   1.949  0.00  0.00    +0.000 C 
ATOM      7  C   UNL     1     -28.362 110.235  -1.752  0.00  0.00    +0.000 C 
ATOM      8  C   UNL     1     -29.271 110.733  -0.677  0.00  0.00    +0.000 C 
ATOM      9  C   UNL     1     -26.603 110.515   1.339  0.00  0.00    +0.000 C 
ATOM     10  C   UNL     1     -29.115 108.346   2.965  0.00  0.00    +0.000 C 
ATOM     11  C   UNL     1     -30.856 110.100   2.315  0.00  0.00    +0.000 C 
ATOM     12  C   UNL     1     -25.928 109.912  -2.227  0.00  0.00    +0.000 C 
ATOM     13  C   UNL     1     -30.367 108.940   3.245  0.00  0.00    +0.000 C 
ATOM     14  C   UNL     1     -31.617 111.147   3.173  0.00  0.00    +0.000 C 
ATOM     15  C   UNL     1     -31.794 109.503   1.220  0.00  0.00    +0.000 C 
ENDROOT
BRANCH   4  16
ATOM     16  O   UNL     1     -27.527 108.270  -2.655  0.00  0.00    +0.000 OA
ATOM     17  H   UNL     1     -28.478 108.134  -2.488  0.00  0.00    +0.000 HD
ENDBRANCH   4  16
BRANCH  13  18
ATOM     18  O   UNL     1     -31.206 108.339   4.175  0.00  0.00    +0.000 OA
ATOM     19  H   UNL     1     -31.486 108.954   4.875  0.00  0.00    +0.000 HD
ENDBRANCH  13  18
BRANCH   3  20
ATOM     20  C   UNL     1     -26.440 107.463  -0.171  0.00  0.00    +0.000 C 
ATOM     21  C   UNL     1     -25.687 106.144   0.031  0.00  0.00    +0.000 C 
BRANCH  21  25
ATOM     22  C   UNL     1     -24.558 104.511   1.681  0.00  0.00    +0.000 A 
ATOM     23  C   UNL     1     -23.771 103.160   1.896  0.00  0.00    +0.000 A 
ATOM     24  C   UNL     1     -24.937 105.457   2.894  0.00  0.00    +0.000 C 
ATOM     25  C   UNL     1     -24.951 104.939   0.250  0.00  0.00    +0.000 A 
ATOM     26  C   UNL     1     -23.303 102.530   3.228  0.00  0.00    +0.000 C 
ATOM     27  C   UNL     1     -24.398 104.785   4.081  0.00  0.00    +0.000 C 
ATOM     28  C   UNL     1     -23.662 103.485   4.260  0.00  0.00    +0.000 C 
ATOM     29  C   UNL     1     -23.478 102.546   0.643  0.00  0.00    +0.000 A 
ATOM     30  C   UNL     1     -24.584 104.150  -0.959  0.00  0.00    +0.000 A 
ATOM     31  C   UNL     1     -26.477 105.555   3.017  0.00  0.00    +0.000 C 
ATOM     32  C   UNL     1     -24.247 106.828   2.731  0.00  0.00    +0.000 C 
ATOM     33  C   UNL     1     -23.906 103.080  -0.693  0.00  0.00    +0.000 A 
ATOM     34  C   UNL     1     -23.918 101.153   3.437  0.00  0.00    +0.000 C 
ATOM     35  C   UNL     1     -25.038 104.419  -2.364  0.00  0.00    +0.000 C 
BRANCH  26  36
ATOM     36  O   UNL     1     -21.909 102.362   3.205  0.00  0.00    +0.000 OA
ATOM     37  H   UNL     1     -21.672 102.652   4.105  0.00  0.00    +0.000 HD
ENDBRANCH  26  36
ENDBRANCH  21  25
ENDBRANCH   3  20
TORSDOF 5
ENDMDL
MODEL 9
REMARK VINA RESULT:      -5.3     15.569     18.711
REMARK  Name = 44234954_SipholenolL.pdbqt.pdb
REMARK  5 active torsions:
REMARK  status: ('A' for Active; 'I' for Inactive)
REMARK    1  A    between atoms: C_3  and  C_20
REMARK    2  A    between atoms: C_4  and  O_16
REMARK    3  A    between atoms: C_13  and  O_18
REMARK    4  A    between atoms: C_21  and  C_25
REMARK    5  A    between atoms: C_26  and  O_36
REMARK                            x       y       z     vdW  Elec       q    Type
REMARK                         _______ _______ _______ _____ _____    ______ ____
ROOT
ATOM      1  O   UNL     1     -24.246 107.643   4.487  0.00  0.00    +0.000 OA
ATOM      2  C   UNL     1     -23.127 105.290   4.406  0.00  0.00    +0.000 C 
ATOM      3  C   UNL     1     -23.433 103.792   4.334  0.00  0.00    +0.000 C 
ATOM      4  C   UNL     1     -24.449 103.283   3.329  0.00  0.00    +0.000 C 
ATOM      5  C   UNL     1     -24.368 106.272   4.235  0.00  0.00    +0.000 C 
ATOM      6  C   UNL     1     -22.654 105.669   5.746  0.00  0.00    +0.000 C 
ATOM      7  C   UNL     1     -25.367 104.362   3.014  0.00  0.00    +0.000 C 
ATOM      8  C   UNL     1     -25.408 105.802   3.408  0.00  0.00    +0.000 C 
ATOM      9  C   UNL     1     -22.061 105.660   3.343  0.00  0.00    +0.000 C 
ATOM     10  C   UNL     1     -22.828 106.742   6.792  0.00  0.00    +0.000 C 
ATOM     11  C   UNL     1     -24.680 108.187   5.785  0.00  0.00    +0.000 C 
ATOM     12  C   UNL     1     -23.783 102.652   2.110  0.00  0.00    +0.000 C 
ATOM     13  C   UNL     1     -23.645 107.889   6.920  0.00  0.00    +0.000 C 
ATOM     14  C   UNL     1     -24.776 109.723   5.582  0.00  0.00    +0.000 C 
ATOM     15  C   UNL     1     -26.065 107.601   6.203  0.00  0.00    +0.000 C 
ENDROOT
BRANCH   4  16
ATOM     16  O   UNL     1     -25.190 102.236   3.922  0.00  0.00    +0.000 OA
ATOM     17  H   UNL     1     -26.048 102.679   4.065  0.00  0.00    +0.000 HD
ENDBRANCH   4  16
BRANCH  13  18
ATOM     18  O   UNL     1     -23.662 108.573   8.129  0.00  0.00    +0.000 OA
ATOM     19  H   UNL     1     -23.823 107.984   8.888  0.00  0.00    +0.000 HD
ENDBRANCH  13  18
BRANCH   3  20
ATOM     20  C   UNL     1     -22.725 102.855   5.164  0.00  0.00    +0.000 C 
ATOM     21  C   UNL     1     -21.991 101.866   6.074  0.00  0.00    +0.000 C 
BRANCH  21  25
ATOM     22  C   UNL     1     -20.831 101.409   8.335  0.00  0.00    +0.000 A 
ATOM     23  C   UNL     1     -20.149 100.363   9.300  0.00  0.00    +0.000 A 
ATOM     24  C   UNL     1     -20.984 102.935   8.735  0.00  0.00    +0.000 C 
ATOM     25  C   UNL     1     -21.346 100.944   6.956  0.00  0.00    +0.000 A 
ATOM     26  C   UNL     1     -19.590 100.600  10.722  0.00  0.00    +0.000 C 
ATOM     27  C   UNL     1     -20.375 103.041  10.064  0.00  0.00    +0.000 C 
ATOM     28  C   UNL     1     -19.742 102.020  10.971  0.00  0.00    +0.000 C 
ATOM     29  C   UNL     1     -20.057  99.087   8.670  0.00  0.00    +0.000 A 
ATOM     30  C   UNL     1     -21.191  99.546   6.465  0.00  0.00    +0.000 A 
ATOM     31  C   UNL     1     -22.484 103.302   8.829  0.00  0.00    +0.000 C 
ATOM     32  C   UNL     1     -20.197 103.821   7.745  0.00  0.00    +0.000 C 
ATOM     33  C   UNL     1     -20.585  98.767   7.303  0.00  0.00    +0.000 A 
ATOM     34  C   UNL     1     -20.297  99.726  11.749  0.00  0.00    +0.000 C 
ATOM     35  C   UNL     1     -21.777  98.980   5.205  0.00  0.00    +0.000 C 
BRANCH  26  36
ATOM     36  O   UNL     1     -18.229 100.257  10.755  0.00  0.00    +0.000 OA
ATOM     37  H   UNL     1     -18.283  99.301  10.938  0.00  0.00    +0.000 HD
ENDBRANCH  26  36
ENDBRANCH  21  25
ENDBRANCH   3  20
TORSDOF 5
ENDMDL
