MODEL 1
REMARK VINA RESULT:      -5.4      0.000      0.000
REMARK  Name = 442793_6gingerol.pdbqt.pdb
REMARK  7 active torsions:
REMARK  status: ('A' for Active; 'I' for Inactive)
REMARK    1  A    between atoms: C_1  and  C_3
REMARK    2  A    between atoms: C_5  and  O_6
REMARK    3  A    between atoms: C_5  and  C_8
REMARK    4  A    between atoms: C_9  and  C_10
REMARK    5  A    between atoms: C_13  and  C_14
REMARK    6  A    between atoms: C_17  and  O_20
REMARK    7  A    between atoms: C_19  and  O_22
REMARK                            x       y       z     vdW  Elec       q    Type
REMARK                         _______ _______ _______ _____ _____    ______ ____
ROOT
ATOM      1  C   UNL     1     -23.508 103.475  -3.374  0.00  0.00    +0.000 C 
ATOM      2  C   UNL     1     -23.915 103.690  -1.911  0.00  0.00    +0.000 C 
ENDROOT
BRANCH   2   3
ATOM      3  C   UNL     1     -24.291 103.892  -0.552  0.00  0.00    +0.000 A 
ATOM      4  C   UNL     1     -23.888 102.980   0.421  0.00  0.00    +0.000 A 
ATOM      5  C   UNL     1     -25.059 104.998  -0.202  0.00  0.00    +0.000 A 
ATOM      6  C   UNL     1     -24.249 103.164   1.759  0.00  0.00    +0.000 A 
ATOM      7  C   UNL     1     -25.427 105.194   1.127  0.00  0.00    +0.000 A 
ATOM      8  C   UNL     1     -25.022 104.279   2.098  0.00  0.00    +0.000 A 
BRANCH   6   9
ATOM      9  O   UNL     1     -23.897 102.316   2.780  0.00  0.00    +0.000 OA
ATOM     10  C   UNL     1     -23.283 101.116   2.388  0.00  0.00    +0.000 C 
ENDBRANCH   6   9
BRANCH   8  11
ATOM     11  O   UNL     1     -25.386 104.477   3.401  0.00  0.00    +0.000 OA
ATOM     12  H   UNL     1     -24.851 105.206   3.768  0.00  0.00    +0.000 HD
ENDBRANCH   8  11
ENDBRANCH   2   3
BRANCH   1  14
ATOM     13  O   UNL     1     -22.202 103.915  -5.231  0.00  0.00    +0.000 OA
ATOM     14  C   UNL     1     -23.125 103.276  -4.749  0.00  0.00    +0.000 C 
ATOM     15  C   UNL     1     -23.839 102.321  -5.551  0.00  0.00    +0.000 C 
ATOM     16  C   UNL     1     -24.539 101.386  -6.344  0.00  0.00    +0.000 C 
BRANCH  16  17
ATOM     17  O   UNL     1     -25.382 100.515  -5.697  0.00  0.00    +0.000 OA
ATOM     18  H   UNL     1     -26.317 100.737  -5.849  0.00  0.00    +0.000 HD
ENDBRANCH  16  17
BRANCH  16  19
ATOM     19  C   UNL     1     -24.418 101.305  -7.752  0.00  0.00    +0.000 C 
ATOM     20  C   UNL     1     -24.278 101.222  -9.276  0.00  0.00    +0.000 C 
BRANCH  20  21
ATOM     21  C   UNL     1     -24.134 101.145 -10.799  0.00  0.00    +0.000 C 
ATOM     22  C   UNL     1     -23.989 101.067 -12.322  0.00  0.00    +0.000 C 
ATOM     23  C   UNL     1     -23.836 100.985 -13.845  0.00  0.00    +0.000 C 
ENDBRANCH  20  21
ENDBRANCH  16  19
ENDBRANCH   1  14
TORSDOF 7
ENDMDL
MODEL 2
REMARK VINA RESULT:      -5.3     19.279     21.837
REMARK  Name = 442793_6gingerol.pdbqt.pdb
REMARK  7 active torsions:
REMARK  status: ('A' for Active; 'I' for Inactive)
REMARK    1  A    between atoms: C_1  and  C_3
REMARK    2  A    between atoms: C_5  and  O_6
REMARK    3  A    between atoms: C_5  and  C_8
REMARK    4  A    between atoms: C_9  and  C_10
REMARK    5  A    between atoms: C_13  and  C_14
REMARK    6  A    between atoms: C_17  and  O_20
REMARK    7  A    between atoms: C_19  and  O_22
REMARK                            x       y       z     vdW  Elec       q    Type
REMARK                         _______ _______ _______ _____ _____    ______ ____
ROOT
ATOM      1  C   UNL     1     -33.422 101.438  13.653  0.00  0.00    +0.000 C 
ATOM      2  C   UNL     1     -31.987 101.471  14.193  0.00  0.00    +0.000 C 
ENDROOT
BRANCH   2   3
ATOM      3  C   UNL     1     -30.654 101.499  14.692  0.00  0.00    +0.000 A 
ATOM      4  C   UNL     1     -30.323 100.763  15.828  0.00  0.00    +0.000 A 
ATOM      5  C   UNL     1     -29.686 102.262  14.044  0.00  0.00    +0.000 A 
ATOM      6  C   UNL     1     -29.019 100.782  16.331  0.00  0.00    +0.000 A 
ATOM      7  C   UNL     1     -28.382 102.289  14.534  0.00  0.00    +0.000 A 
ATOM      8  C   UNL     1     -28.056 101.552  15.671  0.00  0.00    +0.000 A 
BRANCH   6   9
ATOM      9  O   UNL     1     -28.607 100.089  17.443  0.00  0.00    +0.000 OA
ATOM     10  C   UNL     1     -29.526  99.157  17.950  0.00  0.00    +0.000 C 
ENDBRANCH   6   9
BRANCH   8  11
ATOM     11  O   UNL     1     -26.774 101.583  16.147  0.00  0.00    +0.000 OA
ATOM     12  H   UNL     1     -26.205 102.015  15.483  0.00  0.00    +0.000 HD
ENDBRANCH   8  11
ENDBRANCH   2   3
BRANCH   1  14
ATOM     13  O   UNL     1     -34.975 101.265  11.948  0.00  0.00    +0.000 OA
ATOM     14  C   UNL     1     -34.770 101.404  13.144  0.00  0.00    +0.000 C 
ATOM     15  C   UNL     1     -35.873 101.539  14.055  0.00  0.00    +0.000 C 
ATOM     16  C   UNL     1     -36.960 101.674  14.946  0.00  0.00    +0.000 C 
BRANCH  16  17
ATOM     17  O   UNL     1     -36.694 101.565  16.289  0.00  0.00    +0.000 OA
ATOM     18  H   UNL     1     -36.263 102.364  16.639  0.00  0.00    +0.000 HD
ENDBRANCH  16  17
BRANCH  16  19
ATOM     19  C   UNL     1     -38.292 101.915  14.528  0.00  0.00    +0.000 C 
ATOM     20  C   UNL     1     -39.736 102.167  14.080  0.00  0.00    +0.000 C 
BRANCH  20  21
ATOM     21  C   UNL     1     -41.180 102.413  13.634  0.00  0.00    +0.000 C 
ATOM     22  C   UNL     1     -42.625 102.660  13.190  0.00  0.00    +0.000 C 
ATOM     23  C   UNL     1     -44.071 102.913  12.751  0.00  0.00    +0.000 C 
ENDBRANCH  20  21
ENDBRANCH  16  19
ENDBRANCH   1  14
TORSDOF 7
ENDMDL
MODEL 3
REMARK VINA RESULT:      -5.2     22.655     24.243
REMARK  Name = 442793_6gingerol.pdbqt.pdb
REMARK  7 active torsions:
REMARK  status: ('A' for Active; 'I' for Inactive)
REMARK    1  A    between atoms: C_1  and  C_3
REMARK    2  A    between atoms: C_5  and  O_6
REMARK    3  A    between atoms: C_5  and  C_8
REMARK    4  A    between atoms: C_9  and  C_10
REMARK    5  A    between atoms: C_13  and  C_14
REMARK    6  A    between atoms: C_17  and  O_20
REMARK    7  A    between atoms: C_19  and  O_22
REMARK                            x       y       z     vdW  Elec       q    Type
REMARK                         _______ _______ _______ _____ _____    ______ ____
ROOT
ATOM      1  C   UNL     1     -40.847  86.892  -1.229  0.00  0.00    +0.000 C 
ATOM      2  C   UNL     1     -39.381  86.514  -1.475  0.00  0.00    +0.000 C 
ENDROOT
BRANCH   2   3
ATOM      3  C   UNL     1     -38.020  86.164  -1.701  0.00  0.00    +0.000 A 
ATOM      4  C   UNL     1     -37.468  85.064  -1.045  0.00  0.00    +0.000 A 
ATOM      5  C   UNL     1     -37.244  86.921  -2.574  0.00  0.00    +0.000 A 
ATOM      6  C   UNL     1     -36.133  84.709  -1.256  0.00  0.00    +0.000 A 
ATOM      7  C   UNL     1     -35.912  86.577  -2.794  0.00  0.00    +0.000 A 
ATOM      8  C   UNL     1     -35.365  85.477  -2.136  0.00  0.00    +0.000 A 
BRANCH   6   9
ATOM      9  O   UNL     1     -35.511  83.643  -0.652  0.00  0.00    +0.000 OA
ATOM     10  C   UNL     1     -36.352  82.771   0.055  0.00  0.00    +0.000 C 
ENDBRANCH   6   9
BRANCH   8  11
ATOM     11  O   UNL     1     -34.056  85.145  -2.356  0.00  0.00    +0.000 OA
ATOM     12  H   UNL     1     -33.835  84.369  -1.808  0.00  0.00    +0.000 HD
ENDBRANCH   8  11
ENDBRANCH   2   3
BRANCH   1  14
ATOM     13  O   UNL     1     -42.810  86.832  -0.007  0.00  0.00    +0.000 OA
ATOM     14  C   UNL     1     -42.224  87.249  -0.994  0.00  0.00    +0.000 C 
ATOM     15  C   UNL     1     -42.904  88.097  -1.934  0.00  0.00    +0.000 C 
ATOM     16  C   UNL     1     -43.577  88.928  -2.855  0.00  0.00    +0.000 C 
BRANCH  16  17
ATOM     17  O   UNL     1     -42.815  89.577  -3.796  0.00  0.00    +0.000 OA
ATOM     18  H   UNL     1     -42.567  88.987  -4.529  0.00  0.00    +0.000 HD
ENDBRANCH  16  17
BRANCH  16  19
ATOM     19  C   UNL     1     -44.981  89.121  -2.858  0.00  0.00    +0.000 C 
ATOM     20  C   UNL     1     -46.498  89.334  -2.869  0.00  0.00    +0.000 C 
BRANCH  20  21
ATOM     21  C   UNL     1     -48.014  89.552  -2.886  0.00  0.00    +0.000 C 
ATOM     22  C   UNL     1     -49.531  89.769  -2.904  0.00  0.00    +0.000 C 
ATOM     23  C   UNL     1     -51.047  89.983  -2.929  0.00  0.00    +0.000 C 
ENDBRANCH  20  21
ENDBRANCH  16  19
ENDBRANCH   1  14
TORSDOF 7
ENDMDL
MODEL 4
REMARK VINA RESULT:      -5.1      0.764      2.083
REMARK  Name = 442793_6gingerol.pdbqt.pdb
REMARK  7 active torsions:
REMARK  status: ('A' for Active; 'I' for Inactive)
REMARK    1  A    between atoms: C_1  and  C_3
REMARK    2  A    between atoms: C_5  and  O_6
REMARK    3  A    between atoms: C_5  and  C_8
REMARK    4  A    between atoms: C_9  and  C_10
REMARK    5  A    between atoms: C_13  and  C_14
REMARK    6  A    between atoms: C_17  and  O_20
REMARK    7  A    between atoms: C_19  and  O_22
REMARK                            x       y       z     vdW  Elec       q    Type
REMARK                         _______ _______ _______ _____ _____    ______ ____
ROOT
ATOM      1  C   UNL     1     -23.497 103.528  -3.443  0.00  0.00    +0.000 C 
ATOM      2  C   UNL     1     -23.881 103.708  -1.969  0.00  0.00    +0.000 C 
ENDROOT
BRANCH   2   3
ATOM      3  C   UNL     1     -24.237 103.877  -0.601  0.00  0.00    +0.000 A 
ATOM      4  C   UNL     1     -25.060 104.937  -0.224  0.00  0.00    +0.000 A 
ATOM      5  C   UNL     1     -23.761 102.985   0.355  0.00  0.00    +0.000 A 
ATOM      6  C   UNL     1     -25.416 105.117   1.115  0.00  0.00    +0.000 A 
ATOM      7  C   UNL     1     -24.109 103.152   1.693  0.00  0.00    +0.000 A 
ATOM      8  C   UNL     1     -24.932 104.214   2.066  0.00  0.00    +0.000 A 
BRANCH   6   9
ATOM      9  O   UNL     1     -26.220 106.133   1.573  0.00  0.00    +0.000 OA
ATOM     10  C   UNL     1     -25.648 107.414   1.555  0.00  0.00    +0.000 C 
ENDBRANCH   6   9
BRANCH   8  11
ATOM     11  O   UNL     1     -25.270 104.372   3.382  0.00  0.00    +0.000 OA
ATOM     12  H   UNL     1     -24.916 105.226   3.694  0.00  0.00    +0.000 HD
ENDBRANCH   8  11
ENDBRANCH   2   3
BRANCH   1  14
ATOM     13  O   UNL     1     -22.254 104.050  -5.323  0.00  0.00    +0.000 OA
ATOM     14  C   UNL     1     -23.135 103.362  -4.829  0.00  0.00    +0.000 C 
ATOM     15  C   UNL     1     -23.819 102.383  -5.625  0.00  0.00    +0.000 C 
ATOM     16  C   UNL     1     -24.490 101.422  -6.414  0.00  0.00    +0.000 C 
BRANCH  16  17
ATOM     17  O   UNL     1     -25.276 100.505  -5.759  0.00  0.00    +0.000 OA
ATOM     18  H   UNL     1     -26.206 100.559  -6.041  0.00  0.00    +0.000 HD
ENDBRANCH  16  17
BRANCH  16  19
ATOM     19  C   UNL     1     -24.396 101.362  -7.825  0.00  0.00    +0.000 C 
ATOM     20  C   UNL     1     -24.303 101.291  -9.353  0.00  0.00    +0.000 C 
BRANCH  20  21
ATOM     21  C   UNL     1     -24.214 101.217 -10.881  0.00  0.00    +0.000 C 
ATOM     22  C   UNL     1     -24.128 101.144 -12.409  0.00  0.00    +0.000 C 
ATOM     23  C   UNL     1     -24.047 101.075 -13.937  0.00  0.00    +0.000 C 
ENDBRANCH  20  21
ENDBRANCH  16  19
ENDBRANCH   1  14
TORSDOF 7
ENDMDL
MODEL 5
REMARK VINA RESULT:      -5.1     17.197     19.381
REMARK  Name = 442793_6gingerol.pdbqt.pdb
REMARK  7 active torsions:
REMARK  status: ('A' for Active; 'I' for Inactive)
REMARK    1  A    between atoms: C_1  and  C_3
REMARK    2  A    between atoms: C_5  and  O_6
REMARK    3  A    between atoms: C_5  and  C_8
REMARK    4  A    between atoms: C_9  and  C_10
REMARK    5  A    between atoms: C_13  and  C_14
REMARK    6  A    between atoms: C_17  and  O_20
REMARK    7  A    between atoms: C_19  and  O_22
REMARK                            x       y       z     vdW  Elec       q    Type
REMARK                         _______ _______ _______ _____ _____    ______ ____
ROOT
ATOM      1  C   UNL     1     -40.893 101.514   1.331  0.00  0.00    +0.000 C 
ATOM      2  C   UNL     1     -39.646 102.191   1.913  0.00  0.00    +0.000 C 
ENDROOT
BRANCH   2   3
ATOM      3  C   UNL     1     -38.489 102.818   2.456  0.00  0.00    +0.000 A 
ATOM      4  C   UNL     1     -37.928 103.918   1.809  0.00  0.00    +0.000 A 
ATOM      5  C   UNL     1     -37.922 102.332   3.630  0.00  0.00    +0.000 A 
ATOM      6  C   UNL     1     -36.792 104.544   2.329  0.00  0.00    +0.000 A 
ATOM      7  C   UNL     1     -36.790 102.946   4.160  0.00  0.00    +0.000 A 
ATOM      8  C   UNL     1     -36.232 104.046   3.509  0.00  0.00    +0.000 A 
BRANCH   6   9
ATOM      9  O   UNL     1     -36.175 105.630   1.757  0.00  0.00    +0.000 OA
ATOM     10  C   UNL     1     -35.512 105.382   0.546  0.00  0.00    +0.000 C 
ENDBRANCH   6   9
BRANCH   8  11
ATOM     11  O   UNL     1     -35.120 104.644   4.035  0.00  0.00    +0.000 OA
ATOM     12  H   UNL     1     -34.440 104.706   3.339  0.00  0.00    +0.000 HD
ENDBRANCH   8  11
ENDBRANCH   2   3
BRANCH   1  14
ATOM     13  O   UNL     1     -42.056 100.439  -0.355  0.00  0.00    +0.000 OA
ATOM     14  C   UNL     1     -42.065 100.876   0.786  0.00  0.00    +0.000 C 
ATOM     15  C   UNL     1     -43.246 100.760   1.595  0.00  0.00    +0.000 C 
ATOM     16  C   UNL     1     -44.411 100.645   2.385  0.00  0.00    +0.000 C 
BRANCH  16  17
ATOM     17  O   UNL     1     -44.292 100.908   3.728  0.00  0.00    +0.000 OA
ATOM     18  H   UNL     1     -43.939 100.144   4.217  0.00  0.00    +0.000 HD
ENDBRANCH  16  17
BRANCH  16  19
ATOM     19  C   UNL     1     -45.678 100.279   1.867  0.00  0.00    +0.000 C 
ATOM     20  C   UNL     1     -47.047  99.874   1.312  0.00  0.00    +0.000 C 
BRANCH  20  21
ATOM     21  C   UNL     1     -48.415  99.464   0.759  0.00  0.00    +0.000 C 
ATOM     22  C   UNL     1     -49.783  99.053   0.203  0.00  0.00    +0.000 C 
ATOM     23  C   UNL     1     -51.147  98.641  -0.358  0.00  0.00    +0.000 C 
ENDBRANCH  20  21
ENDBRANCH  16  19
ENDBRANCH   1  14
TORSDOF 7
ENDMDL
MODEL 6
REMARK VINA RESULT:      -4.8     24.173     28.613
REMARK  Name = 442793_6gingerol.pdbqt.pdb
REMARK  7 active torsions:
REMARK  status: ('A' for Active; 'I' for Inactive)
REMARK    1  A    between atoms: C_1  and  C_3
REMARK    2  A    between atoms: C_5  and  O_6
REMARK    3  A    between atoms: C_5  and  C_8
REMARK    4  A    between atoms: C_9  and  C_10
REMARK    5  A    between atoms: C_13  and  C_14
REMARK    6  A    between atoms: C_17  and  O_20
REMARK    7  A    between atoms: C_19  and  O_22
REMARK                            x       y       z     vdW  Elec       q    Type
REMARK                         _______ _______ _______ _____ _____    ______ ____
ROOT
ATOM      1  C   UNL     1     -31.961  85.321  17.359  0.00  0.00    +0.000 C 
ATOM      2  C   UNL     1     -31.239  86.642  17.064  0.00  0.00    +0.000 C 
ENDROOT
BRANCH   2   3
ATOM      3  C   UNL     1     -30.567  87.867  16.787  0.00  0.00    +0.000 A 
ATOM      4  C   UNL     1     -29.380  87.858  16.056  0.00  0.00    +0.000 A 
ATOM      5  C   UNL     1     -31.098  89.069  17.246  0.00  0.00    +0.000 A 
ATOM      6  C   UNL     1     -28.709  89.052  15.778  0.00  0.00    +0.000 A 
ATOM      7  C   UNL     1     -30.440  90.266  16.975  0.00  0.00    +0.000 A 
ATOM      8  C   UNL     1     -29.252  90.252  16.245  0.00  0.00    +0.000 A 
BRANCH   6   9
ATOM      9  O   UNL     1     -27.536  89.133  15.067  0.00  0.00    +0.000 OA
ATOM     10  C   UNL     1     -26.712  87.999  15.126  0.00  0.00    +0.000 C 
ENDBRANCH   6   9
BRANCH   8  11
ATOM     11  O   UNL     1     -28.611  91.431  15.982  0.00  0.00    +0.000 OA
ATOM     12  H   UNL     1     -29.234  92.031  15.532  0.00  0.00    +0.000 HD
ENDBRANCH   8  11
ENDBRANCH   2   3
BRANCH   1  14
ATOM     13  O   UNL     1     -32.212  83.320  18.490  0.00  0.00    +0.000 OA
ATOM     14  C   UNL     1     -32.639  84.080  17.634  0.00  0.00    +0.000 C 
ATOM     15  C   UNL     1     -33.820  83.740  16.891  0.00  0.00    +0.000 C 
ATOM     16  C   UNL     1     -34.981  83.401  16.162  0.00  0.00    +0.000 C 
BRANCH  16  17
ATOM     17  O   UNL     1     -35.565  84.390  15.407  0.00  0.00    +0.000 OA
ATOM     18  H   UNL     1     -35.357  84.293  14.462  0.00  0.00    +0.000 HD
ENDBRANCH  16  17
BRANCH  16  19
ATOM     19  C   UNL     1     -35.562  82.109  16.169  0.00  0.00    +0.000 C 
ATOM     20  C   UNL     1     -36.188  80.711  16.167  0.00  0.00    +0.000 C 
BRANCH  20  21
ATOM     21  C   UNL     1     -36.812  79.312  16.159  0.00  0.00    +0.000 C 
ATOM     22  C   UNL     1     -37.438  77.913  16.149  0.00  0.00    +0.000 C 
ATOM     23  C   UNL     1     -38.064  76.515  16.131  0.00  0.00    +0.000 C 
ENDBRANCH  20  21
ENDBRANCH  16  19
ENDBRANCH   1  14
TORSDOF 7
ENDMDL
MODEL 7
REMARK VINA RESULT:      -4.6     19.863     27.056
REMARK  Name = 442793_6gingerol.pdbqt.pdb
REMARK  7 active torsions:
REMARK  status: ('A' for Active; 'I' for Inactive)
REMARK    1  A    between atoms: C_1  and  C_3
REMARK    2  A    between atoms: C_5  and  O_6
REMARK    3  A    between atoms: C_5  and  C_8
REMARK    4  A    between atoms: C_9  and  C_10
REMARK    5  A    between atoms: C_13  and  C_14
REMARK    6  A    between atoms: C_17  and  O_20
REMARK    7  A    between atoms: C_19  and  O_22
REMARK                            x       y       z     vdW  Elec       q    Type
REMARK                         _______ _______ _______ _____ _____    ______ ____
ROOT
ATOM      1  C   UNL     1     -28.864  99.935  21.130  0.00  0.00    +0.000 C 
ATOM      2  C   UNL     1     -29.179  99.852  19.631  0.00  0.00    +0.000 C 
ENDROOT
BRANCH   2   3
ATOM      3  C   UNL     1     -29.474  99.773  18.240  0.00  0.00    +0.000 A 
ATOM      4  C   UNL     1     -28.949 100.722  17.365  0.00  0.00    +0.000 A 
ATOM      5  C   UNL     1     -30.286  98.749  17.760  0.00  0.00    +0.000 A 
ATOM      6  C   UNL     1     -29.231 100.658  15.997  0.00  0.00    +0.000 A 
ATOM      7  C   UNL     1     -30.574  98.673  16.399  0.00  0.00    +0.000 A 
ATOM      8  C   UNL     1     -30.047  99.625  15.527  0.00  0.00    +0.000 A 
BRANCH   6   9
ATOM      9  O   UNL     1     -28.757 101.550  15.066  0.00  0.00    +0.000 OA
ATOM     10  C   UNL     1     -27.370 101.525  14.854  0.00  0.00    +0.000 C 
ENDBRANCH   6   9
BRANCH   8  11
ATOM     11  O   UNL     1     -30.334  99.545  14.193  0.00  0.00    +0.000 OA
ATOM     12  H   UNL     1     -29.618  99.980  13.693  0.00  0.00    +0.000 HD
ENDBRANCH   8  11
ENDBRANCH   2   3
BRANCH   1  14
ATOM     13  O   UNL     1     -29.038 100.911  23.219  0.00  0.00    +0.000 OA
ATOM     14  C   UNL     1     -28.569 100.011  22.539  0.00  0.00    +0.000 C 
ATOM     15  C   UNL     1     -27.717  99.021  23.137  0.00  0.00    +0.000 C 
ATOM     16  C   UNL     1     -26.878  98.052  23.729  0.00  0.00    +0.000 C 
BRANCH  16  17
ATOM     17  O   UNL     1     -26.593  96.928  22.992  0.00  0.00    +0.000 OA
ATOM     18  H   UNL     1     -25.975  96.338  23.458  0.00  0.00    +0.000 HD
ENDBRANCH  16  17
BRANCH  16  19
ATOM     19  C   UNL     1     -26.323  98.182  25.025  0.00  0.00    +0.000 C 
ATOM     20  C   UNL     1     -25.720  98.332  26.426  0.00  0.00    +0.000 C 
BRANCH  20  21
ATOM     21  C   UNL     1     -25.116  98.488  27.825  0.00  0.00    +0.000 C 
ATOM     22  C   UNL     1     -24.511  98.642  29.224  0.00  0.00    +0.000 C 
ATOM     23  C   UNL     1     -23.902  98.790  30.622  0.00  0.00    +0.000 C 
ENDBRANCH  20  21
ENDBRANCH  16  19
ENDBRANCH   1  14
TORSDOF 7
ENDMDL
MODEL 8
REMARK VINA RESULT:      -4.6     20.007     24.590
REMARK  Name = 442793_6gingerol.pdbqt.pdb
REMARK  7 active torsions:
REMARK  status: ('A' for Active; 'I' for Inactive)
REMARK    1  A    between atoms: C_1  and  C_3
REMARK    2  A    between atoms: C_5  and  O_6
REMARK    3  A    between atoms: C_5  and  C_8
REMARK    4  A    between atoms: C_9  and  C_10
REMARK    5  A    between atoms: C_13  and  C_14
REMARK    6  A    between atoms: C_17  and  O_20
REMARK    7  A    between atoms: C_19  and  O_22
REMARK                            x       y       z     vdW  Elec       q    Type
REMARK                         _______ _______ _______ _____ _____    ______ ____
ROOT
ATOM      1  C   UNL     1     -36.187  99.314  15.058  0.00  0.00    +0.000 C 
ATOM      2  C   UNL     1     -34.655  99.392  15.039  0.00  0.00    +0.000 C 
ENDROOT
BRANCH   2   3
ATOM      3  C   UNL     1     -33.233  99.462  15.021  0.00  0.00    +0.000 A 
ATOM      4  C   UNL     1     -32.601 100.613  14.555  0.00  0.00    +0.000 A 
ATOM      5  C   UNL     1     -32.479  98.380  15.468  0.00  0.00    +0.000 A 
ATOM      6  C   UNL     1     -31.206 100.696  14.531  0.00  0.00    +0.000 A 
ATOM      7  C   UNL     1     -31.089  98.449  15.449  0.00  0.00    +0.000 A 
ATOM      8  C   UNL     1     -30.460  99.603  14.982  0.00  0.00    +0.000 A 
BRANCH   6   9
ATOM      9  O   UNL     1     -30.502 101.790  14.088  0.00  0.00    +0.000 OA
ATOM     10  C   UNL     1     -30.155 102.726  15.074  0.00  0.00    +0.000 C 
ENDBRANCH   6   9
BRANCH   8  11
ATOM     11  O   UNL     1     -29.094  99.664  14.966  0.00  0.00    +0.000 OA
ATOM     12  H   UNL     1     -28.760  99.021  14.313  0.00  0.00    +0.000 HD
ENDBRANCH   8  11
ENDBRANCH   2   3
BRANCH   1  14
ATOM     13  O   UNL     1     -38.245  99.027  14.044  0.00  0.00    +0.000 OA
ATOM     14  C   UNL     1     -37.626  99.238  15.076  0.00  0.00    +0.000 C 
ATOM     15  C   UNL     1     -38.328  99.415  16.317  0.00  0.00    +0.000 C 
ATOM     16  C   UNL     1     -39.022  99.590  17.533  0.00  0.00    +0.000 C 
BRANCH  16  17
ATOM     17  O   UNL     1     -38.285  99.562  18.692  0.00  0.00    +0.000 OA
ATOM     18  H   UNL     1     -38.303  98.684  19.111  0.00  0.00    +0.000 HD
ENDBRANCH  16  17
BRANCH  16  19
ATOM     19  C   UNL     1     -40.422  99.793  17.616  0.00  0.00    +0.000 C 
ATOM     20  C   UNL     1     -41.935 100.020  17.699  0.00  0.00    +0.000 C 
BRANCH  20  21
ATOM     21  C   UNL     1     -43.446 100.253  17.780  0.00  0.00    +0.000 C 
ATOM     22  C   UNL     1     -44.959 100.487  17.859  0.00  0.00    +0.000 C 
ATOM     23  C   UNL     1     -46.471 100.721  17.931  0.00  0.00    +0.000 C 
ENDBRANCH  20  21
ENDBRANCH  16  19
ENDBRANCH   1  14
TORSDOF 7
ENDMDL
MODEL 9
REMARK VINA RESULT:      -4.5     14.973     18.284
REMARK  Name = 442793_6gingerol.pdbqt.pdb
REMARK  7 active torsions:
REMARK  status: ('A' for Active; 'I' for Inactive)
REMARK    1  A    between atoms: C_1  and  C_3
REMARK    2  A    between atoms: C_5  and  O_6
REMARK    3  A    between atoms: C_5  and  C_8
REMARK    4  A    between atoms: C_9  and  C_10
REMARK    5  A    between atoms: C_13  and  C_14
REMARK    6  A    between atoms: C_17  and  O_20
REMARK    7  A    between atoms: C_19  and  O_22
REMARK                            x       y       z     vdW  Elec       q    Type
REMARK                         _______ _______ _______ _____ _____    ______ ____
ROOT
ATOM      1  C   UNL     1     -38.810 102.936   2.171  0.00  0.00    +0.000 C 
ATOM      2  C   UNL     1     -37.506 103.743   2.152  0.00  0.00    +0.000 C 
ENDROOT
BRANCH   2   3
ATOM      3  C   UNL     1     -36.294 104.490   2.135  0.00  0.00    +0.000 A 
ATOM      4  C   UNL     1     -35.826 105.025   0.936  0.00  0.00    +0.000 A 
ATOM      5  C   UNL     1     -35.581 104.683   3.314  0.00  0.00    +0.000 A 
ATOM      6  C   UNL     1     -34.637 105.760   0.903  0.00  0.00    +0.000 A 
ATOM      7  C   UNL     1     -34.395 105.413   3.296  0.00  0.00    +0.000 A 
ATOM      8  C   UNL     1     -33.930 105.946   2.094  0.00  0.00    +0.000 A 
BRANCH   6   9
ATOM      9  O   UNL     1     -34.105 106.320  -0.233  0.00  0.00    +0.000 OA
ATOM     10  C   UNL     1     -34.829 107.392  -0.776  0.00  0.00    +0.000 C 
ENDBRANCH   6   9
BRANCH   8  11
ATOM     11  O   UNL     1     -32.765 106.662   2.083  0.00  0.00    +0.000 OA
ATOM     12  H   UNL     1     -32.193 106.339   2.804  0.00  0.00    +0.000 HD
ENDBRANCH   8  11
ENDBRANCH   2   3
BRANCH   1  14
ATOM     13  O   UNL     1     -40.334 101.466   1.239  0.00  0.00    +0.000 OA
ATOM     14  C   UNL     1     -40.034 102.175   2.188  0.00  0.00    +0.000 C 
ATOM     15  C   UNL     1     -40.902 102.258   3.330  0.00  0.00    +0.000 C 
ATOM     16  C   UNL     1     -41.759 102.337   4.449  0.00  0.00    +0.000 C 
BRANCH  16  17
ATOM     17  O   UNL     1     -41.262 102.929   5.585  0.00  0.00    +0.000 OA
ATOM     18  H   UNL     1     -40.706 102.317   6.098  0.00  0.00    +0.000 HD
ENDBRANCH  16  17
BRANCH  16  19
ATOM     19  C   UNL     1     -43.087 101.845   4.457  0.00  0.00    +0.000 C 
ATOM     20  C   UNL     1     -44.525 101.315   4.455  0.00  0.00    +0.000 C 
BRANCH  20  21
ATOM     21  C   UNL     1     -45.962 100.787   4.447  0.00  0.00    +0.000 C 
ATOM     22  C   UNL     1     -47.400 100.257   4.438  0.00  0.00    +0.000 C 
ATOM     23  C   UNL     1     -48.835  99.720   4.428  0.00  0.00    +0.000 C 
ENDBRANCH  20  21
ENDBRANCH  16  19
ENDBRANCH   1  14
TORSDOF 7
ENDMDL
