MODEL 1
REMARK VINA RESULT:      -6.9      0.000      0.000
REMARK  Name = 44423609_SipholenoneA.pdbqt.pdb
REMARK  4 active torsions:
REMARK  status: ('A' for Active; 'I' for Inactive)
REMARK    1  A    between atoms: C_3  and  C_19
REMARK    2  A    between atoms: C_5  and  O_17
REMARK    3  A    between atoms: C_20  and  C_24
REMARK    4  A    between atoms: C_25  and  O_35
REMARK                            x       y       z     vdW  Elec       q    Type
REMARK                         _______ _______ _______ _____ _____    ______ ____
ROOT
ATOM      1  O   UNL     1     -39.512 103.329  15.277  0.00  0.00    +0.000 OA
ATOM      2  O   UNL     1     -37.817 106.433  16.368  0.00  0.00    +0.000 OA
ATOM      3  C   UNL     1     -36.621 100.742  14.527  0.00  0.00    +0.000 C 
ATOM      4  C   UNL     1     -37.524 101.652  15.358  0.00  0.00    +0.000 C 
ATOM      5  C   UNL     1     -37.197  99.950  13.366  0.00  0.00    +0.000 C 
ATOM      6  C   UNL     1     -38.754 102.343  14.636  0.00  0.00    +0.000 C 
ATOM      7  C   UNL     1     -38.493 100.500  13.019  0.00  0.00    +0.000 C 
ATOM      8  C   UNL     1     -39.305 101.633  13.551  0.00  0.00    +0.000 C 
ATOM      9  C   UNL     1     -36.780 102.832  15.830  0.00  0.00    +0.000 C 
ATOM     10  C   UNL     1     -38.073 100.862  16.580  0.00  0.00    +0.000 C 
ATOM     11  C   UNL     1     -36.241  99.961  12.168  0.00  0.00    +0.000 C 
ATOM     12  C   UNL     1     -36.973 104.312  16.080  0.00  0.00    +0.000 C 
ATOM     13  C   UNL     1     -39.227 104.747  15.033  0.00  0.00    +0.000 C 
ATOM     14  C   UNL     1     -37.998 105.314  15.903  0.00  0.00    +0.000 C 
ATOM     15  C   UNL     1     -40.546 105.492  15.421  0.00  0.00    +0.000 C 
ATOM     16  C   UNL     1     -38.932 104.994  13.507  0.00  0.00    +0.000 C 
ENDROOT
BRANCH   5  17
ATOM     17  O   UNL     1     -37.337  98.601  13.735  0.00  0.00    +0.000 OA
ATOM     18  H   UNL     1     -36.462  98.248  13.492  0.00  0.00    +0.000 HD
ENDBRANCH   5  17
BRANCH   3  19
ATOM     19  C   UNL     1     -35.296 100.441  15.005  0.00  0.00    +0.000 C 
ATOM     20  C   UNL     1     -33.882 100.129  15.503  0.00  0.00    +0.000 C 
BRANCH  20  24
ATOM     21  C   UNL     1     -30.490 101.413  15.634  0.00  0.00    +0.000 C 
ATOM     22  C   UNL     1     -31.297 100.190  15.132  0.00  0.00    +0.000 C 
ATOM     23  C   UNL     1     -29.761 101.507  16.949  0.00  0.00    +0.000 C 
ATOM     24  C   UNL     1     -32.555  99.833  15.961  0.00  0.00    +0.000 C 
ATOM     25  C   UNL     1     -29.031 102.842  17.103  0.00  0.00    +0.000 C 
ATOM     26  C   UNL     1     -30.231 102.630  14.939  0.00  0.00    +0.000 C 
ATOM     27  C   UNL     1     -29.351 103.466  15.825  0.00  0.00    +0.000 C 
ATOM     28  C   UNL     1     -30.274 100.684  17.973  0.00  0.00    +0.000 C 
ATOM     29  C   UNL     1     -32.404  99.258  17.299  0.00  0.00    +0.000 C 
ATOM     30  C   UNL     1     -31.733 100.475  13.643  0.00  0.00    +0.000 C 
ATOM     31  C   UNL     1     -30.336  98.955  15.069  0.00  0.00    +0.000 C 
ATOM     32  C   UNL     1     -31.434  99.725  18.020  0.00  0.00    +0.000 C 
ATOM     33  C   UNL     1     -27.554 102.654  17.406  0.00  0.00    +0.000 C 
ATOM     34  C   UNL     1     -33.500  98.523  18.026  0.00  0.00    +0.000 C 
BRANCH  25  35
ATOM     35  O   UNL     1     -29.581 103.585  18.163  0.00  0.00    +0.000 OA
ATOM     36  H   UNL     1     -28.792 103.724  18.715  0.00  0.00    +0.000 HD
ENDBRANCH  25  35
ENDBRANCH  20  24
ENDBRANCH   3  19
TORSDOF 4
ENDMDL
MODEL 2
REMARK VINA RESULT:      -6.4     14.858     18.529
REMARK  Name = 44423609_SipholenoneA.pdbqt.pdb
REMARK  4 active torsions:
REMARK  status: ('A' for Active; 'I' for Inactive)
REMARK    1  A    between atoms: C_3  and  C_19
REMARK    2  A    between atoms: C_5  and  O_17
REMARK    3  A    between atoms: C_20  and  C_24
REMARK    4  A    between atoms: C_25  and  O_35
REMARK                            x       y       z     vdW  Elec       q    Type
REMARK                         _______ _______ _______ _____ _____    ______ ____
ROOT
ATOM      1  O   UNL     1     -33.569 106.886  -3.890  0.00  0.00    +0.000 OA
ATOM      2  O   UNL     1     -36.640 107.750  -5.765  0.00  0.00    +0.000 OA
ATOM      3  C   UNL     1     -34.776 105.926  -0.252  0.00  0.00    +0.000 C 
ATOM      4  C   UNL     1     -34.604 105.799  -1.765  0.00  0.00    +0.000 C 
ATOM      5  C   UNL     1     -33.627 106.429   0.606  0.00  0.00    +0.000 C 
ATOM      6  C   UNL     1     -33.634 106.819  -2.494  0.00  0.00    +0.000 C 
ATOM      7  C   UNL     1     -32.643 107.063  -0.250  0.00  0.00    +0.000 C 
ATOM      8  C   UNL     1     -32.564 107.306  -1.720  0.00  0.00    +0.000 C 
ATOM      9  C   UNL     1     -35.874 106.078  -2.457  0.00  0.00    +0.000 C 
ATOM     10  C   UNL     1     -34.130 104.360  -2.113  0.00  0.00    +0.000 C 
ATOM     11  C   UNL     1     -34.132 107.387   1.690  0.00  0.00    +0.000 C 
ATOM     12  C   UNL     1     -36.398 106.736  -3.715  0.00  0.00    +0.000 C 
ATOM     13  C   UNL     1     -34.347 107.898  -4.613  0.00  0.00    +0.000 C 
ATOM     14  C   UNL     1     -35.885 107.486  -4.838  0.00  0.00    +0.000 C 
ATOM     15  C   UNL     1     -33.625 108.046  -5.992  0.00  0.00    +0.000 C 
ATOM     16  C   UNL     1     -34.290 109.278  -3.857  0.00  0.00    +0.000 C 
ENDROOT
BRANCH   5  17
ATOM     17  O   UNL     1     -33.039 105.351   1.289  0.00  0.00    +0.000 OA
ATOM     18  H   UNL     1     -32.572 105.815   2.008  0.00  0.00    +0.000 HD
ENDBRANCH   5  17
BRANCH   3  19
ATOM     19  C   UNL     1     -35.925 105.329   0.378  0.00  0.00    +0.000 C 
ATOM     20  C   UNL     1     -37.154 104.703   1.043  0.00  0.00    +0.000 C 
BRANCH  20  24
ATOM     21  C   UNL     1     -40.662 103.922   0.536  0.00  0.00    +0.000 C 
ATOM     22  C   UNL     1     -39.729 104.713   1.486  0.00  0.00    +0.000 C 
ATOM     23  C   UNL     1     -41.172 102.523   0.769  0.00  0.00    +0.000 C 
ATOM     24  C   UNL     1     -38.308 104.126   1.670  0.00  0.00    +0.000 C 
ATOM     25  C   UNL     1     -42.109 102.064  -0.350  0.00  0.00    +0.000 C 
ATOM     26  C   UNL     1     -41.258 104.374  -0.676  0.00  0.00    +0.000 C 
ATOM     27  C   UNL     1     -42.126 103.258  -1.185  0.00  0.00    +0.000 C 
ATOM     28  C   UNL     1     -40.352 101.719   1.588  0.00  0.00    +0.000 C 
ATOM     29  C   UNL     1     -38.127 102.888   2.430  0.00  0.00    +0.000 C 
ATOM     30  C   UNL     1     -39.603 106.183   0.927  0.00  0.00    +0.000 C 
ATOM     31  C   UNL     1     -40.434 104.842   2.878  0.00  0.00    +0.000 C 
ATOM     32  C   UNL     1     -39.039 101.979   2.276  0.00  0.00    +0.000 C 
ATOM     33  C   UNL     1     -43.454 101.601   0.185  0.00  0.00    +0.000 C 
ATOM     34  C   UNL     1     -36.808 102.438   3.002  0.00  0.00    +0.000 C 
BRANCH  25  35
ATOM     35  O   UNL     1     -41.547 100.982  -1.051  0.00  0.00    +0.000 OA
ATOM     36  H   UNL     1     -42.319 100.396  -1.130  0.00  0.00    +0.000 HD
ENDBRANCH  25  35
ENDBRANCH  20  24
ENDBRANCH   3  19
TORSDOF 4
ENDMDL
MODEL 3
REMARK VINA RESULT:      -6.3     16.589     21.217
REMARK  Name = 44423609_SipholenoneA.pdbqt.pdb
REMARK  4 active torsions:
REMARK  status: ('A' for Active; 'I' for Inactive)
REMARK    1  A    between atoms: C_3  and  C_19
REMARK    2  A    between atoms: C_5  and  O_17
REMARK    3  A    between atoms: C_20  and  C_24
REMARK    4  A    between atoms: C_25  and  O_35
REMARK                            x       y       z     vdW  Elec       q    Type
REMARK                         _______ _______ _______ _____ _____    ______ ____
ROOT
ATOM      1  O   UNL     1     -22.028  83.639   6.460  0.00  0.00    +0.000 OA
ATOM      2  O   UNL     1     -23.132  86.897   5.095  0.00  0.00    +0.000 OA
ATOM      3  C   UNL     1     -23.614  83.403  10.071  0.00  0.00    +0.000 C 
ATOM      4  C   UNL     1     -23.574  83.453   8.545  0.00  0.00    +0.000 C 
ATOM      5  C   UNL     1     -22.544  82.643  10.839  0.00  0.00    +0.000 C 
ATOM      6  C   UNL     1     -22.157  83.411   7.834  0.00  0.00    +0.000 C 
ATOM      7  C   UNL     1     -21.425  82.386   9.953  0.00  0.00    +0.000 C 
ATOM      8  C   UNL     1     -21.145  82.718   8.526  0.00  0.00    +0.000 C 
ATOM      9  C   UNL     1     -24.095  84.739   8.053  0.00  0.00    +0.000 C 
ATOM     10  C   UNL     1     -24.430  82.291   7.966  0.00  0.00    +0.000 C 
ATOM     11  C   UNL     1     -22.109  83.420  12.086  0.00  0.00    +0.000 C 
ATOM     12  C   UNL     1     -23.850  85.757   6.960  0.00  0.00    +0.000 C 
ATOM     13  C   UNL     1     -21.667  84.973   5.968  0.00  0.00    +0.000 C 
ATOM     14  C   UNL     1     -22.914  85.986   5.884  0.00  0.00    +0.000 C 
ATOM     15  C   UNL     1     -21.080  84.727   4.540  0.00  0.00    +0.000 C 
ATOM     16  C   UNL     1     -20.550  85.610   6.876  0.00  0.00    +0.000 C 
ENDROOT
BRANCH   5  17
ATOM     17  O   UNL     1     -23.071  81.427  11.306  0.00  0.00    +0.000 OA
ATOM     18  H   UNL     1     -22.459  80.788  10.899  0.00  0.00    +0.000 HD
ENDBRANCH   5  17
BRANCH   3  19
ATOM     19  C   UNL     1     -24.797  83.852  10.759  0.00  0.00    +0.000 C 
ATOM     20  C   UNL     1     -26.061  84.330  11.479  0.00  0.00    +0.000 C 
BRANCH  20  24
ATOM     21  C   UNL     1     -27.247  86.249  14.322  0.00  0.00    +0.000 C 
ATOM     22  C   UNL     1     -27.354  84.839  13.691  0.00  0.00    +0.000 C 
ATOM     23  C   UNL     1     -28.226  87.378  14.124  0.00  0.00    +0.000 C 
ATOM     24  C   UNL     1     -27.245  84.786  12.147  0.00  0.00    +0.000 C 
ATOM     25  C   UNL     1     -27.838  88.618  14.930  0.00  0.00    +0.000 C 
ATOM     26  C   UNL     1     -26.265  86.721  15.240  0.00  0.00    +0.000 C 
ATOM     27  C   UNL     1     -26.639  88.131  15.601  0.00  0.00    +0.000 C 
ATOM     28  C   UNL     1     -28.953  87.330  12.916  0.00  0.00    +0.000 C 
ATOM     29  C   UNL     1     -28.342  85.300  11.325  0.00  0.00    +0.000 C 
ATOM     30  C   UNL     1     -26.213  83.944  14.312  0.00  0.00    +0.000 C 
ATOM     31  C   UNL     1     -28.705  84.192  14.150  0.00  0.00    +0.000 C 
ATOM     32  C   UNL     1     -28.935  86.368  11.758  0.00  0.00    +0.000 C 
ATOM     33  C   UNL     1     -28.966  89.089  15.832  0.00  0.00    +0.000 C 
ATOM     34  C   UNL     1     -28.532  84.959   9.869  0.00  0.00    +0.000 C 
BRANCH  25  35
ATOM     35  O   UNL     1     -27.521  89.685  14.070  0.00  0.00    +0.000 OA
ATOM     36  H   UNL     1     -26.637  89.415  13.765  0.00  0.00    +0.000 HD
ENDBRANCH  25  35
ENDBRANCH  20  24
ENDBRANCH   3  19
TORSDOF 4
ENDMDL
MODEL 4
REMARK VINA RESULT:      -6.3      3.648      6.467
REMARK  Name = 44423609_SipholenoneA.pdbqt.pdb
REMARK  4 active torsions:
REMARK  status: ('A' for Active; 'I' for Inactive)
REMARK    1  A    between atoms: C_3  and  C_19
REMARK    2  A    between atoms: C_5  and  O_17
REMARK    3  A    between atoms: C_20  and  C_24
REMARK    4  A    between atoms: C_25  and  O_35
REMARK                            x       y       z     vdW  Elec       q    Type
REMARK                         _______ _______ _______ _____ _____    ______ ____
ROOT
ATOM      1  O   UNL     1     -36.777  96.245  20.700  0.00  0.00    +0.000 OA
ATOM      2  O   UNL     1     -33.778  96.754  22.807  0.00  0.00    +0.000 OA
ATOM      3  C   UNL     1     -36.716  99.163  18.036  0.00  0.00    +0.000 C 
ATOM      4  C   UNL     1     -36.266  97.888  18.747  0.00  0.00    +0.000 C 
ATOM      5  C   UNL     1     -38.196  99.447  17.843  0.00  0.00    +0.000 C 
ATOM      6  C   UNL     1     -37.204  97.295  19.880  0.00  0.00    +0.000 C 
ATOM      7  C   UNL     1     -38.959  98.586  18.725  0.00  0.00    +0.000 C 
ATOM      8  C   UNL     1     -38.582  97.549  19.729  0.00  0.00    +0.000 C 
ATOM      9  C   UNL     1     -35.028  98.127  19.508  0.00  0.00    +0.000 C 
ATOM     10  C   UNL     1     -36.022  96.768  17.698  0.00  0.00    +0.000 C 
ATOM     11  C   UNL     1     -38.507 100.927  18.092  0.00  0.00    +0.000 C 
ATOM     12  C   UNL     1     -34.362  97.732  20.808  0.00  0.00    +0.000 C 
ATOM     13  C   UNL     1     -36.216  96.531  22.025  0.00  0.00    +0.000 C 
ATOM     14  C   UNL     1     -34.666  96.956  21.988  0.00  0.00    +0.000 C 
ATOM     15  C   UNL     1     -36.387  95.199  22.826  0.00  0.00    +0.000 C 
ATOM     16  C   UNL     1     -37.043  97.665  22.738  0.00  0.00    +0.000 C 
ENDROOT
BRANCH   5  17
ATOM     17  O   UNL     1     -38.556  99.198  16.507  0.00  0.00    +0.000 OA
ATOM     18  H   UNL     1     -38.515  98.225  16.479  0.00  0.00    +0.000 HD
ENDBRANCH   5  17
BRANCH   3  19
ATOM     19  C   UNL     1     -35.743  99.955  17.328  0.00  0.00    +0.000 C 
ATOM     20  C   UNL     1     -34.702 100.785  16.573  0.00  0.00    +0.000 C 
BRANCH  20  24
ATOM     21  C   UNL     1     -31.167 101.601  16.465  0.00  0.00    +0.000 C 
ATOM     22  C   UNL     1     -32.556 102.274  16.601  0.00  0.00    +0.000 C 
ATOM     23  C   UNL     1     -30.387 101.443  15.185  0.00  0.00    +0.000 C 
ATOM     24  C   UNL     1     -33.719 101.560  15.871  0.00  0.00    +0.000 C 
ATOM     25  C   UNL     1     -29.033 100.772  15.421  0.00  0.00    +0.000 C 
ATOM     26  C   UNL     1     -30.349 101.075  17.506  0.00  0.00    +0.000 C 
ATOM     27  C   UNL     1     -29.076 100.595  16.868  0.00  0.00    +0.000 C 
ATOM     28  C   UNL     1     -31.170 101.413  14.012  0.00  0.00    +0.000 C 
ATOM     29  C   UNL     1     -33.784 101.586  14.408  0.00  0.00    +0.000 C 
ATOM     30  C   UNL     1     -32.900 102.368  18.137  0.00  0.00    +0.000 C 
ATOM     31  C   UNL     1     -32.441 103.752  16.095  0.00  0.00    +0.000 C 
ATOM     32  C   UNL     1     -32.655 101.494  13.780  0.00  0.00    +0.000 C 
ATOM     33  C   UNL     1     -27.882 101.602  14.882  0.00  0.00    +0.000 C 
ATOM     34  C   UNL     1     -35.030 101.283  13.617  0.00  0.00    +0.000 C 
BRANCH  25  35
ATOM     35  O   UNL     1     -28.984  99.523  14.775  0.00  0.00    +0.000 OA
ATOM     36  H   UNL     1     -29.738  99.605  14.167  0.00  0.00    +0.000 HD
ENDBRANCH  25  35
ENDBRANCH  20  24
ENDBRANCH   3  19
TORSDOF 4
ENDMDL
MODEL 5
REMARK VINA RESULT:      -6.2      4.632     10.380
REMARK  Name = 44423609_SipholenoneA.pdbqt.pdb
REMARK  4 active torsions:
REMARK  status: ('A' for Active; 'I' for Inactive)
REMARK    1  A    between atoms: C_3  and  C_19
REMARK    2  A    between atoms: C_5  and  O_17
REMARK    3  A    between atoms: C_20  and  C_24
REMARK    4  A    between atoms: C_25  and  O_35
REMARK                            x       y       z     vdW  Elec       q    Type
REMARK                         _______ _______ _______ _____ _____    ______ ____
ROOT
ATOM      1  O   UNL     1     -28.796  99.785  24.764  0.00  0.00    +0.000 OA
ATOM      2  O   UNL     1     -26.975  96.660  23.977  0.00  0.00    +0.000 OA
ATOM      3  C   UNL     1     -29.312 101.618  21.302  0.00  0.00    +0.000 C 
ATOM      4  C   UNL     1     -29.487 100.543  22.372  0.00  0.00    +0.000 C 
ATOM      5  C   UNL     1     -29.212 103.081  21.699  0.00  0.00    +0.000 C 
ATOM      6  C   UNL     1     -28.839 100.795  23.797  0.00  0.00    +0.000 C 
ATOM      7  C   UNL     1     -28.933 103.164  23.120  0.00  0.00    +0.000 C 
ATOM      8  C   UNL     1     -28.728 102.144  24.189  0.00  0.00    +0.000 C 
ATOM      9  C   UNL     1     -28.809  99.298  21.974  0.00  0.00    +0.000 C 
ATOM     10  C   UNL     1     -31.002 100.263  22.583  0.00  0.00    +0.000 C 
ATOM     11  C   UNL     1     -28.142 103.802  20.872  0.00  0.00    +0.000 C 
ATOM     12  C   UNL     1     -28.014  98.157  22.574  0.00  0.00    +0.000 C 
ATOM     13  C   UNL     1     -27.584  98.972  24.921  0.00  0.00    +0.000 C 
ATOM     14  C   UNL     1     -27.472  97.773  23.856  0.00  0.00    +0.000 C 
ATOM     15  C   UNL     1     -27.678  98.393  26.370  0.00  0.00    +0.000 C 
ATOM     16  C   UNL     1     -26.299  99.875  24.816  0.00  0.00    +0.000 C 
ENDROOT
BRANCH   5  17
ATOM     17  O   UNL     1     -30.424 103.734  21.414  0.00  0.00    +0.000 OA
ATOM     18  H   UNL     1     -30.109 104.631  21.203  0.00  0.00    +0.000 HD
ENDBRANCH   5  17
BRANCH   3  19
ATOM     19  C   UNL     1     -29.502 101.270  19.917  0.00  0.00    +0.000 C 
ATOM     20  C   UNL     1     -29.700 100.912  18.442  0.00  0.00    +0.000 C 
BRANCH  20  24
ATOM     21  C   UNL     1     -32.234 100.254  15.928  0.00  0.00    +0.000 C 
ATOM     22  C   UNL     1     -30.994  99.602  16.588  0.00  0.00    +0.000 C 
ATOM     23  C   UNL     1     -32.238 101.022  14.631  0.00  0.00    +0.000 C 
ATOM     24  C   UNL     1     -29.893 100.583  17.059  0.00  0.00    +0.000 C 
ATOM     25  C   UNL     1     -33.644 101.489  14.250  0.00  0.00    +0.000 C 
ATOM     26  C   UNL     1     -33.587 100.198  16.371  0.00  0.00    +0.000 C 
ATOM     27  C   UNL     1     -34.415 100.931  15.353  0.00  0.00    +0.000 C 
ATOM     28  C   UNL     1     -31.009 101.626  14.294  0.00  0.00    +0.000 C 
ATOM     29  C   UNL     1     -29.071 101.280  16.068  0.00  0.00    +0.000 C 
ATOM     30  C   UNL     1     -31.491  98.763  17.828  0.00  0.00    +0.000 C 
ATOM     31  C   UNL     1     -30.386  98.564  15.584  0.00  0.00    +0.000 C 
ATOM     32  C   UNL     1     -29.675 101.670  14.990  0.00  0.00    +0.000 C 
ATOM     33  C   UNL     1     -34.039 101.032  12.856  0.00  0.00    +0.000 C 
ATOM     34  C   UNL     1     -27.750 101.935  16.382  0.00  0.00    +0.000 C 
BRANCH  25  35
ATOM     35  O   UNL     1     -33.715 102.894  14.262  0.00  0.00    +0.000 OA
ATOM     36  H   UNL     1     -34.634 103.025  14.554  0.00  0.00    +0.000 HD
ENDBRANCH  25  35
ENDBRANCH  20  24
ENDBRANCH   3  19
TORSDOF 4
ENDMDL
MODEL 6
REMARK VINA RESULT:      -6.1     13.928     16.648
REMARK  Name = 44423609_SipholenoneA.pdbqt.pdb
REMARK  4 active torsions:
REMARK  status: ('A' for Active; 'I' for Inactive)
REMARK    1  A    between atoms: C_3  and  C_19
REMARK    2  A    between atoms: C_5  and  O_17
REMARK    3  A    between atoms: C_20  and  C_24
REMARK    4  A    between atoms: C_25  and  O_35
REMARK                            x       y       z     vdW  Elec       q    Type
REMARK                         _______ _______ _______ _____ _____    ______ ____
ROOT
ATOM      1  O   UNL     1     -42.723 106.419  -3.491  0.00  0.00    +0.000 OA
ATOM      2  O   UNL     1     -39.532 107.973  -4.540  0.00  0.00    +0.000 OA
ATOM      3  C   UNL     1     -41.761 103.781  -0.711  0.00  0.00    +0.000 C 
ATOM      4  C   UNL     1     -41.951 105.155  -1.352  0.00  0.00    +0.000 C 
ATOM      5  C   UNL     1     -42.778 102.678  -0.955  0.00  0.00    +0.000 C 
ATOM      6  C   UNL     1     -42.678 105.228  -2.759  0.00  0.00    +0.000 C 
ATOM      7  C   UNL     1     -43.600 103.040  -2.093  0.00  0.00    +0.000 C 
ATOM      8  C   UNL     1     -43.621 104.213  -3.014  0.00  0.00    +0.000 C 
ATOM      9  C   UNL     1     -40.650 105.760  -1.679  0.00  0.00    +0.000 C 
ATOM     10  C   UNL     1     -42.723 106.082  -0.371  0.00  0.00    +0.000 C 
ATOM     11  C   UNL     1     -42.082 101.329  -1.168  0.00  0.00    +0.000 C 
ATOM     12  C   UNL     1     -39.993 106.614  -2.742  0.00  0.00    +0.000 C 
ATOM     13  C   UNL     1     -41.744 106.662  -4.556  0.00  0.00    +0.000 C 
ATOM     14  C   UNL     1     -40.329 107.204  -4.016  0.00  0.00    +0.000 C 
ATOM     15  C   UNL     1     -42.413 107.736  -5.475  0.00  0.00    +0.000 C 
ATOM     16  C   UNL     1     -41.506 105.351  -5.394  0.00  0.00    +0.000 C 
ENDROOT
BRANCH   5  17
ATOM     17  O   UNL     1     -43.586 102.519   0.184  0.00  0.00    +0.000 OA
ATOM     18  H   UNL     1     -43.245 101.679   0.541  0.00  0.00    +0.000 HD
ENDBRANCH   5  17
BRANCH   3  19
ATOM     19  C   UNL     1     -40.768 103.617   0.320  0.00  0.00    +0.000 C 
ATOM     20  C   UNL     1     -39.711 103.431   1.411  0.00  0.00    +0.000 C 
BRANCH  20  24
ATOM     21  C   UNL     1     -37.023 105.089   3.199  0.00  0.00    +0.000 C 
ATOM     22  C   UNL     1     -37.299 103.839   2.328  0.00  0.00    +0.000 C 
ATOM     23  C   UNL     1     -37.021 105.129   4.705  0.00  0.00    +0.000 C 
ATOM     24  C   UNL     1     -38.726 103.248   2.438  0.00  0.00    +0.000 C 
ATOM     25  C   UNL     1     -36.665 106.518   5.239  0.00  0.00    +0.000 C 
ATOM     26  C   UNL     1     -36.661 106.395   2.758  0.00  0.00    +0.000 C 
ATOM     27  C   UNL     1     -36.441 107.231   3.987  0.00  0.00    +0.000 C 
ATOM     28  C   UNL     1     -37.819 104.147   5.327  0.00  0.00    +0.000 C 
ATOM     29  C   UNL     1     -39.133 102.557   3.663  0.00  0.00    +0.000 C 
ATOM     30  C   UNL     1     -37.024 104.226   0.824  0.00  0.00    +0.000 C 
ATOM     31  C   UNL     1     -36.242 102.741   2.689  0.00  0.00    +0.000 C 
ATOM     32  C   UNL     1     -38.700 103.057   4.777  0.00  0.00    +0.000 C 
ATOM     33  C   UNL     1     -35.494 106.476   6.206  0.00  0.00    +0.000 C 
ATOM     34  C   UNL     1     -40.313 101.623   3.749  0.00  0.00    +0.000 C 
BRANCH  25  35
ATOM     35  O   UNL     1     -37.756 107.073   5.931  0.00  0.00    +0.000 OA
ATOM     36  H   UNL     1     -37.880 107.903   5.438  0.00  0.00    +0.000 HD
ENDBRANCH  25  35
ENDBRANCH  20  24
ENDBRANCH   3  19
TORSDOF 4
ENDMDL
MODEL 7
REMARK VINA RESULT:      -6.1      2.476      8.793
REMARK  Name = 44423609_SipholenoneA.pdbqt.pdb
REMARK  4 active torsions:
REMARK  status: ('A' for Active; 'I' for Inactive)
REMARK    1  A    between atoms: C_3  and  C_19
REMARK    2  A    between atoms: C_5  and  O_17
REMARK    3  A    between atoms: C_20  and  C_24
REMARK    4  A    between atoms: C_25  and  O_35
REMARK                            x       y       z     vdW  Elec       q    Type
REMARK                         _______ _______ _______ _____ _____    ______ ____
ROOT
ATOM      1  O   UNL     1     -28.811 100.198  19.681  0.00  0.00    +0.000 OA
ATOM      2  O   UNL     1     -30.439 101.759  22.614  0.00  0.00    +0.000 OA
ATOM      3  C   UNL     1     -31.511 100.274  16.797  0.00  0.00    +0.000 C 
ATOM      4  C   UNL     1     -30.509 100.823  17.810  0.00  0.00    +0.000 C 
ATOM      5  C   UNL     1     -31.210  98.988  16.046  0.00  0.00    +0.000 C 
ATOM      6  C   UNL     1     -29.613  99.788  18.610  0.00  0.00    +0.000 C 
ATOM      7  C   UNL     1     -30.130  98.292  16.719  0.00  0.00    +0.000 C 
ATOM      8  C   UNL     1     -29.323  98.584  17.940  0.00  0.00    +0.000 C 
ATOM      9  C   UNL     1     -31.206 101.500  18.916  0.00  0.00    +0.000 C 
ATOM     10  C   UNL     1     -29.557 101.830  17.105  0.00  0.00    +0.000 C 
ATOM     11  C   UNL     1     -32.462  98.112  15.935  0.00  0.00    +0.000 C 
ATOM     12  C   UNL     1     -31.105 101.700  20.413  0.00  0.00    +0.000 C 
ATOM     13  C   UNL     1     -29.299 100.061  21.057  0.00  0.00    +0.000 C 
ATOM     14  C   UNL     1     -30.282 101.251  21.512  0.00  0.00    +0.000 C 
ATOM     15  C   UNL     1     -28.009 100.066  21.940  0.00  0.00    +0.000 C 
ATOM     16  C   UNL     1     -30.039  98.684  21.243  0.00  0.00    +0.000 C 
ENDROOT
BRANCH   5  17
ATOM     17  O   UNL     1     -30.832  99.288  14.726  0.00  0.00    +0.000 OA
ATOM     18  H   UNL     1     -30.114  99.930  14.876  0.00  0.00    +0.000 HD
ENDBRANCH   5  17
BRANCH   3  19
ATOM     19  C   UNL     1     -32.607 101.105  16.370  0.00  0.00    +0.000 C 
ATOM     20  C   UNL     1     -33.771 101.984  15.905  0.00  0.00    +0.000 C 
BRANCH  20  24
ATOM     21  C   UNL     1     -36.843 101.980  13.972  0.00  0.00    +0.000 C 
ATOM     22  C   UNL     1     -35.467 102.687  14.046  0.00  0.00    +0.000 C 
ATOM     23  C   UNL     1     -38.126 102.487  14.579  0.00  0.00    +0.000 C 
ATOM     24  C   UNL     1     -34.855 102.814  15.462  0.00  0.00    +0.000 C 
ATOM     25  C   UNL     1     -39.305 101.561  14.276  0.00  0.00    +0.000 C 
ATOM     26  C   UNL     1     -37.170 100.780  13.278  0.00  0.00    +0.000 C 
ATOM     27  C   UNL     1     -38.644 100.550  13.460  0.00  0.00    +0.000 C 
ATOM     28  C   UNL     1     -37.962 103.334  15.695  0.00  0.00    +0.000 C 
ATOM     29  C   UNL     1     -35.448 103.740  16.429  0.00  0.00    +0.000 C 
ATOM     30  C   UNL     1     -34.463 101.888  13.128  0.00  0.00    +0.000 C 
ATOM     31  C   UNL     1     -35.604 104.107  13.398  0.00  0.00    +0.000 C 
ATOM     32  C   UNL     1     -36.740 103.831  16.422  0.00  0.00    +0.000 C 
ATOM     33  C   UNL     1     -40.459 102.301  13.622  0.00  0.00    +0.000 C 
ATOM     34  C   UNL     1     -34.737 104.236  17.662  0.00  0.00    +0.000 C 
BRANCH  25  35
ATOM     35  O   UNL     1     -39.799 100.988  15.463  0.00  0.00    +0.000 OA
ATOM     36  H   UNL     1     -40.150 101.777  15.911  0.00  0.00    +0.000 HD
ENDBRANCH  25  35
ENDBRANCH  20  24
ENDBRANCH   3  19
TORSDOF 4
ENDMDL
MODEL 8
REMARK VINA RESULT:      -6.0      1.991      2.405
REMARK  Name = 44423609_SipholenoneA.pdbqt.pdb
REMARK  4 active torsions:
REMARK  status: ('A' for Active; 'I' for Inactive)
REMARK    1  A    between atoms: C_3  and  C_19
REMARK    2  A    between atoms: C_5  and  O_17
REMARK    3  A    between atoms: C_20  and  C_24
REMARK    4  A    between atoms: C_25  and  O_35
REMARK                            x       y       z     vdW  Elec       q    Type
REMARK                         _______ _______ _______ _____ _____    ______ ____
ROOT
ATOM      1  O   UNL     1     -39.409 100.939  18.027  0.00  0.00    +0.000 OA
ATOM      2  O   UNL     1     -38.078 103.174  20.658  0.00  0.00    +0.000 OA
ATOM      3  C   UNL     1     -36.315 100.012  15.750  0.00  0.00    +0.000 C 
ATOM      4  C   UNL     1     -37.191 100.044  17.001  0.00  0.00    +0.000 C 
ATOM      5  C   UNL     1     -36.953  99.908  14.375  0.00  0.00    +0.000 C 
ATOM      6  C   UNL     1     -38.628 100.705  16.889  0.00  0.00    +0.000 C 
ATOM      7  C   UNL     1     -38.363 100.229  14.485  0.00  0.00    +0.000 C 
ATOM      8  C   UNL     1     -39.240 100.628  15.623  0.00  0.00    +0.000 C 
ATOM      9  C   UNL     1     -36.578 100.885  18.043  0.00  0.00    +0.000 C 
ATOM     10  C   UNL     1     -37.374  98.598  17.543  0.00  0.00    +0.000 C 
ATOM     11  C   UNL     1     -36.243 100.822  13.371  0.00  0.00    +0.000 C 
ATOM     12  C   UNL     1     -36.964 101.865  19.130  0.00  0.00    +0.000 C 
ATOM     13  C   UNL     1     -39.409 102.264  18.656  0.00  0.00    +0.000 C 
ATOM     14  C   UNL     1     -38.154 102.511  19.631  0.00  0.00    +0.000 C 
ATOM     15  C   UNL     1     -40.740 102.317  19.474  0.00  0.00    +0.000 C 
ATOM     16  C   UNL     1     -39.438 103.393  17.560  0.00  0.00    +0.000 C 
ENDROOT
BRANCH   5  17
ATOM     17  O   UNL     1     -36.801  98.601  13.880  0.00  0.00    +0.000 OA
ATOM     18  H   UNL     1     -35.910  98.378  14.207  0.00  0.00    +0.000 HD
ENDBRANCH   5  17
BRANCH   3  19
ATOM     19  C   UNL     1     -34.895  99.820  15.890  0.00  0.00    +0.000 C 
ATOM     20  C   UNL     1     -33.383  99.626  16.032  0.00  0.00    +0.000 C 
BRANCH  20  24
ATOM     21  C   UNL     1     -30.185 101.301  15.654  0.00  0.00    +0.000 C 
ATOM     22  C   UNL     1     -30.963 100.061  15.149  0.00  0.00    +0.000 C 
ATOM     23  C   UNL     1     -29.193 101.315  16.789  0.00  0.00    +0.000 C 
ATOM     24  C   UNL     1     -31.965  99.444  16.154  0.00  0.00    +0.000 C 
ATOM     25  C   UNL     1     -28.578 102.700  16.991  0.00  0.00    +0.000 C 
ATOM     26  C   UNL     1     -30.204 102.620  15.116  0.00  0.00    +0.000 C 
ATOM     27  C   UNL     1     -29.232 103.439  15.918  0.00  0.00    +0.000 C 
ATOM     28  C   UNL     1     -29.385 100.308  17.758  0.00  0.00    +0.000 C 
ATOM     29  C   UNL     1     -31.466  98.724  17.328  0.00  0.00    +0.000 C 
ATOM     30  C   UNL     1     -31.744 100.479  13.844  0.00  0.00    +0.000 C 
ATOM     31  C   UNL     1     -29.927  98.976  14.699  0.00  0.00    +0.000 C 
ATOM     32  C   UNL     1     -30.408  99.213  17.896  0.00  0.00    +0.000 C 
ATOM     33  C   UNL     1     -27.060 102.663  16.950  0.00  0.00    +0.000 C 
ATOM     34  C   UNL     1     -32.297  97.769  18.144  0.00  0.00    +0.000 C 
BRANCH  25  35
ATOM     35  O   UNL     1     -28.946 103.225  18.244  0.00  0.00    +0.000 OA
ATOM     36  H   UNL     1     -29.641 103.852  17.979  0.00  0.00    +0.000 HD
ENDBRANCH  25  35
ENDBRANCH  20  24
ENDBRANCH   3  19
TORSDOF 4
ENDMDL
MODEL 9
REMARK VINA RESULT:      -5.9      3.565      7.997
REMARK  Name = 44423609_SipholenoneA.pdbqt.pdb
REMARK  4 active torsions:
REMARK  status: ('A' for Active; 'I' for Inactive)
REMARK    1  A    between atoms: C_3  and  C_19
REMARK    2  A    between atoms: C_5  and  O_17
REMARK    3  A    between atoms: C_20  and  C_24
REMARK    4  A    between atoms: C_25  and  O_35
REMARK                            x       y       z     vdW  Elec       q    Type
REMARK                         _______ _______ _______ _____ _____    ______ ____
ROOT
ATOM      1  O   UNL     1     -29.622 104.000  15.825  0.00  0.00    +0.000 OA
ATOM      2  O   UNL     1     -31.767 106.221  17.865  0.00  0.00    +0.000 OA
ATOM      3  C   UNL     1     -31.153 100.379  16.224  0.00  0.00    +0.000 C 
ATOM      4  C   UNL     1     -31.076 101.841  15.791  0.00  0.00    +0.000 C 
ATOM      5  C   UNL     1     -29.912  99.503  16.178  0.00  0.00    +0.000 C 
ATOM      6  C   UNL     1     -29.713 102.617  16.022  0.00  0.00    +0.000 C 
ATOM      7  C   UNL     1     -28.742 100.351  16.059  0.00  0.00    +0.000 C 
ATOM      8  C   UNL     1     -28.546 101.828  15.991  0.00  0.00    +0.000 C 
ATOM      9  C   UNL     1     -32.004 102.667  16.581  0.00  0.00    +0.000 C 
ATOM     10  C   UNL     1     -31.437 101.955  14.283  0.00  0.00    +0.000 C 
ATOM     11  C   UNL     1     -29.832  98.601  17.415  0.00  0.00    +0.000 C 
ATOM     12  C   UNL     1     -32.099 104.041  17.210  0.00  0.00    +0.000 C 
ATOM     13  C   UNL     1     -29.745 104.912  16.968  0.00  0.00    +0.000 C 
ATOM     14  C   UNL     1     -31.268 105.207  17.393  0.00  0.00    +0.000 C 
ATOM     15  C   UNL     1     -29.055 106.234  16.498  0.00  0.00    +0.000 C 
ATOM     16  C   UNL     1     -28.965 104.344  18.211  0.00  0.00    +0.000 C 
ENDROOT
BRANCH   5  17
ATOM     17  O   UNL     1     -29.985  98.636  15.074  0.00  0.00    +0.000 OA
ATOM     18  H   UNL     1     -29.605  99.193  14.371  0.00  0.00    +0.000 HD
ENDBRANCH   5  17
BRANCH   3  19
ATOM     19  C   UNL     1     -32.444  99.772  16.426  0.00  0.00    +0.000 C 
ATOM     20  C   UNL     1     -33.818  99.135  16.649  0.00  0.00    +0.000 C 
BRANCH  20  24
ATOM     21  C   UNL     1     -36.282  98.375  19.204  0.00  0.00    +0.000 C 
ATOM     22  C   UNL     1     -35.413  97.684  18.124  0.00  0.00    +0.000 C 
ATOM     23  C   UNL     1     -37.715  98.810  19.033  0.00  0.00    +0.000 C 
ATOM     24  C   UNL     1     -35.103  98.535  16.869  0.00  0.00    +0.000 C 
ATOM     25  C   UNL     1     -38.282  99.419  20.317  0.00  0.00    +0.000 C 
ATOM     26  C   UNL     1     -35.927  98.665  20.553  0.00  0.00    +0.000 C 
ATOM     27  C   UNL     1     -37.134  99.277  21.205  0.00  0.00    +0.000 C 
ATOM     28  C   UNL     1     -38.097  99.092  17.706  0.00  0.00    +0.000 C 
ATOM     29  C   UNL     1     -36.168  98.827  15.907  0.00  0.00    +0.000 C 
ATOM     30  C   UNL     1     -34.053  97.256  18.798  0.00  0.00    +0.000 C 
ATOM     31  C   UNL     1     -36.119  96.351  17.699  0.00  0.00    +0.000 C 
ATOM     32  C   UNL     1     -37.343  99.058  16.403  0.00  0.00    +0.000 C 
ATOM     33  C   UNL     1     -39.561  98.731  20.760  0.00  0.00    +0.000 C 
ATOM     34  C   UNL     1     -35.922  99.290  14.495  0.00  0.00    +0.000 C 
BRANCH  25  35
ATOM     35  O   UNL     1     -38.587 100.779  20.124  0.00  0.00    +0.000 OA
ATOM     36  H   UNL     1     -38.112 100.954  19.293  0.00  0.00    +0.000 HD
ENDBRANCH  25  35
ENDBRANCH  20  24
ENDBRANCH   3  19
TORSDOF 4
ENDMDL
