MODEL 1
REMARK VINA RESULT:      -5.8      0.000      0.000
REMARK  Name = 445154_Resveratrol.pdbqt.pdb
REMARK  5 active torsions:
REMARK  status: ('A' for Active; 'I' for Inactive)
REMARK    1  A    between atoms: C_1  and  C_11
REMARK    2  A    between atoms: C_4  and  O_7
REMARK    3  A    between atoms: C_5  and  O_9
REMARK    4  A    between atoms: C_12  and  C_13
REMARK    5  A    between atoms: C_18  and  O_19
REMARK                            x       y       z     vdW  Elec       q    Type
REMARK                         _______ _______ _______ _____ _____    ______ ____
ROOT
ATOM      1  C   UNL     1     -31.560 100.516  15.051  0.00  0.00    +0.000 A 
ATOM      2  C   UNL     1     -30.758 101.365  14.289  0.00  0.00    +0.000 A 
ATOM      3  C   UNL     1     -31.016  99.816  16.127  0.00  0.00    +0.000 A 
ATOM      4  C   UNL     1     -29.667  99.972  16.434  0.00  0.00    +0.000 A 
ATOM      5  C   UNL     1     -29.413 101.506  14.612  0.00  0.00    +0.000 A 
ATOM      6  C   UNL     1     -28.855 100.815  15.683  0.00  0.00    +0.000 A 
ENDROOT
BRANCH   4   7
ATOM      7  O   UNL     1     -29.108  99.299  17.482  0.00  0.00    +0.000 OA
ATOM      8  H   UNL     1     -29.719  99.353  18.238  0.00  0.00    +0.000 HD
ENDBRANCH   4   7
BRANCH   5   9
ATOM      9  O   UNL     1     -28.647 102.343  13.851  0.00  0.00    +0.000 OA
ATOM     10  H   UNL     1     -28.652 102.007  12.937  0.00  0.00    +0.000 HD
ENDBRANCH   5   9
BRANCH   1  11
ATOM     11  C   UNL     1     -32.941 100.362  14.730  0.00  0.00    +0.000 C 
ATOM     12  C   UNL     1     -34.104 100.232  14.459  0.00  0.00    +0.000 C 
BRANCH  12  13
ATOM     13  C   UNL     1     -35.485 100.077  14.139  0.00  0.00    +0.000 A 
ATOM     14  C   UNL     1     -36.351  99.488  15.060  0.00  0.00    +0.000 A 
ATOM     15  C   UNL     1     -35.966 100.514  12.905  0.00  0.00    +0.000 A 
ATOM     16  C   UNL     1     -37.699  99.336  14.750  0.00  0.00    +0.000 A 
ATOM     17  C   UNL     1     -37.314 100.363  12.590  0.00  0.00    +0.000 A 
ATOM     18  C   UNL     1     -38.170  99.774  13.516  0.00  0.00    +0.000 A 
BRANCH  18  19
ATOM     19  O   UNL     1     -39.487  99.637  13.185  0.00  0.00    +0.000 OA
ATOM     20  H   UNL     1     -39.572  98.881  12.578  0.00  0.00    +0.000 HD
ENDBRANCH  18  19
ENDBRANCH  12  13
ENDBRANCH   1  11
TORSDOF 5
ENDMDL
MODEL 2
REMARK VINA RESULT:      -5.8      0.038      2.007
REMARK  Name = 445154_Resveratrol.pdbqt.pdb
REMARK  5 active torsions:
REMARK  status: ('A' for Active; 'I' for Inactive)
REMARK    1  A    between atoms: C_1  and  C_11
REMARK    2  A    between atoms: C_4  and  O_7
REMARK    3  A    between atoms: C_5  and  O_9
REMARK    4  A    between atoms: C_12  and  C_13
REMARK    5  A    between atoms: C_18  and  O_19
REMARK                            x       y       z     vdW  Elec       q    Type
REMARK                         _______ _______ _______ _____ _____    ______ ____
ROOT
ATOM      1  C   UNL     1     -31.580 100.502  15.044  0.00  0.00    +0.000 A 
ATOM      2  C   UNL     1     -31.030  99.789  16.109  0.00  0.00    +0.000 A 
ATOM      3  C   UNL     1     -30.782 101.361  14.289  0.00  0.00    +0.000 A 
ATOM      4  C   UNL     1     -29.434 101.500  14.607  0.00  0.00    +0.000 A 
ATOM      5  C   UNL     1     -29.681  99.944  16.411  0.00  0.00    +0.000 A 
ATOM      6  C   UNL     1     -28.872 100.796  15.666  0.00  0.00    +0.000 A 
ENDROOT
BRANCH   4   7
ATOM      7  O   UNL     1     -28.630 102.334  13.885  0.00  0.00    +0.000 OA
ATOM      8  H   UNL     1     -27.735 101.950  13.864  0.00  0.00    +0.000 HD
ENDBRANCH   4   7
BRANCH   5   9
ATOM      9  O   UNL     1     -29.164  99.236  17.458  0.00  0.00    +0.000 OA
ATOM     10  H   UNL     1     -28.300  99.622  17.685  0.00  0.00    +0.000 HD
ENDBRANCH   5   9
BRANCH   1  11
ATOM     11  C   UNL     1     -32.962 100.353  14.726  0.00  0.00    +0.000 C 
ATOM     12  C   UNL     1     -34.126 100.228  14.458  0.00  0.00    +0.000 C 
BRANCH  12  13
ATOM     13  C   UNL     1     -35.508 100.081  14.139  0.00  0.00    +0.000 A 
ATOM     14  C   UNL     1     -36.380  99.520  15.073  0.00  0.00    +0.000 A 
ATOM     15  C   UNL     1     -35.985 100.496  12.896  0.00  0.00    +0.000 A 
ATOM     16  C   UNL     1     -37.730  99.375  14.764  0.00  0.00    +0.000 A 
ATOM     17  C   UNL     1     -37.334 100.353  12.584  0.00  0.00    +0.000 A 
ATOM     18  C   UNL     1     -38.196  99.793  13.521  0.00  0.00    +0.000 A 
BRANCH  18  19
ATOM     19  O   UNL     1     -39.514  99.663  13.192  0.00  0.00    +0.000 OA
ATOM     20  H   UNL     1     -39.768  98.731  13.313  0.00  0.00    +0.000 HD
ENDBRANCH  18  19
ENDBRANCH  12  13
ENDBRANCH   1  11
TORSDOF 5
ENDMDL
MODEL 3
REMARK VINA RESULT:      -5.4     13.739     16.214
REMARK  Name = 445154_Resveratrol.pdbqt.pdb
REMARK  5 active torsions:
REMARK  status: ('A' for Active; 'I' for Inactive)
REMARK    1  A    between atoms: C_1  and  C_11
REMARK    2  A    between atoms: C_4  and  O_7
REMARK    3  A    between atoms: C_5  and  O_9
REMARK    4  A    between atoms: C_12  and  C_13
REMARK    5  A    between atoms: C_18  and  O_19
REMARK                            x       y       z     vdW  Elec       q    Type
REMARK                         _______ _______ _______ _____ _____    ______ ____
ROOT
ATOM      1  C   UNL     1     -23.229 101.467   4.149  0.00  0.00    +0.000 A 
ATOM      2  C   UNL     1     -22.410 100.339   4.104  0.00  0.00    +0.000 A 
ATOM      3  C   UNL     1     -23.727 101.924   5.368  0.00  0.00    +0.000 A 
ATOM      4  C   UNL     1     -23.399 101.246   6.539  0.00  0.00    +0.000 A 
ATOM      5  C   UNL     1     -22.095  99.676   5.285  0.00  0.00    +0.000 A 
ATOM      6  C   UNL     1     -22.583 100.121   6.510  0.00  0.00    +0.000 A 
ENDROOT
BRANCH   4   7
ATOM      7  O   UNL     1     -23.872 101.672   7.747  0.00  0.00    +0.000 OA
ATOM      8  H   UNL     1     -23.109 101.865   8.321  0.00  0.00    +0.000 HD
ENDBRANCH   4   7
BRANCH   5   9
ATOM      9  O   UNL     1     -21.291  98.574   5.217  0.00  0.00    +0.000 OA
ATOM     10  H   UNL     1     -21.141  98.255   6.125  0.00  0.00    +0.000 HD
ENDBRANCH   5   9
BRANCH   1  11
ATOM     11  C   UNL     1     -23.561 102.155   2.944  0.00  0.00    +0.000 C 
ATOM     12  C   UNL     1     -23.840 102.735   1.930  0.00  0.00    +0.000 C 
BRANCH  12  13
ATOM     13  C   UNL     1     -24.171 103.422   0.725  0.00  0.00    +0.000 A 
ATOM     14  C   UNL     1     -23.692 102.951  -0.498  0.00  0.00    +0.000 A 
ATOM     15  C   UNL     1     -24.971 104.563   0.772  0.00  0.00    +0.000 A 
ATOM     16  C   UNL     1     -24.014 103.620  -1.675  0.00  0.00    +0.000 A 
ATOM     17  C   UNL     1     -25.295 105.235  -0.403  0.00  0.00    +0.000 A 
ATOM     18  C   UNL     1     -24.813 104.758  -1.618  0.00  0.00    +0.000 A 
BRANCH  18  19
ATOM     19  O   UNL     1     -25.145 105.434  -2.756  0.00  0.00    +0.000 OA
ATOM     20  H   UNL     1     -25.957 105.942  -2.584  0.00  0.00    +0.000 HD
ENDBRANCH  18  19
ENDBRANCH  12  13
ENDBRANCH   1  11
TORSDOF 5
ENDMDL
MODEL 4
REMARK VINA RESULT:      -5.4     14.944     17.356
REMARK  Name = 445154_Resveratrol.pdbqt.pdb
REMARK  5 active torsions:
REMARK  status: ('A' for Active; 'I' for Inactive)
REMARK    1  A    between atoms: C_1  and  C_11
REMARK    2  A    between atoms: C_4  and  O_7
REMARK    3  A    between atoms: C_5  and  O_9
REMARK    4  A    between atoms: C_12  and  C_13
REMARK    5  A    between atoms: C_18  and  O_19
REMARK                            x       y       z     vdW  Elec       q    Type
REMARK                         _______ _______ _______ _____ _____    ______ ____
ROOT
ATOM      1  C   UNL     1     -23.675 101.678   2.781  0.00  0.00    +0.000 A 
ATOM      2  C   UNL     1     -24.774 101.000   3.306  0.00  0.00    +0.000 A 
ATOM      3  C   UNL     1     -22.467 101.703   3.478  0.00  0.00    +0.000 A 
ATOM      4  C   UNL     1     -22.369 101.045   4.702  0.00  0.00    +0.000 A 
ATOM      5  C   UNL     1     -24.656 100.350   4.530  0.00  0.00    +0.000 A 
ATOM      6  C   UNL     1     -23.458 100.365   5.238  0.00  0.00    +0.000 A 
ENDROOT
BRANCH   4   7
ATOM      7  O   UNL     1     -21.200 101.053   5.406  0.00  0.00    +0.000 OA
ATOM      8  H   UNL     1     -20.511 101.453   4.846  0.00  0.00    +0.000 HD
ENDBRANCH   4   7
BRANCH   5   9
ATOM      9  O   UNL     1     -25.746  99.692   5.025  0.00  0.00    +0.000 OA
ATOM     10  H   UNL     1     -26.436  99.697   4.338  0.00  0.00    +0.000 HD
ENDBRANCH   5   9
BRANCH   1  11
ATOM     11  C   UNL     1     -23.783 102.349   1.528  0.00  0.00    +0.000 C 
ATOM     12  C   UNL     1     -23.876 102.915   0.472  0.00  0.00    +0.000 C 
BRANCH  12  13
ATOM     13  C   UNL     1     -23.984 103.587  -0.781  0.00  0.00    +0.000 A 
ATOM     14  C   UNL     1     -24.857 104.666  -0.917  0.00  0.00    +0.000 A 
ATOM     15  C   UNL     1     -23.219 103.163  -1.867  0.00  0.00    +0.000 A 
ATOM     16  C   UNL     1     -24.964 105.324  -2.139  0.00  0.00    +0.000 A 
ATOM     17  C   UNL     1     -23.324 103.818  -3.091  0.00  0.00    +0.000 A 
ATOM     18  C   UNL     1     -24.197 104.894  -3.217  0.00  0.00    +0.000 A 
BRANCH  18  19
ATOM     19  O   UNL     1     -24.282 105.520  -4.426  0.00  0.00    +0.000 OA
ATOM     20  H   UNL     1     -24.030 104.884  -5.118  0.00  0.00    +0.000 HD
ENDBRANCH  18  19
ENDBRANCH  12  13
ENDBRANCH   1  11
TORSDOF 5
ENDMDL
MODEL 5
REMARK VINA RESULT:      -5.3     14.730     17.520
REMARK  Name = 445154_Resveratrol.pdbqt.pdb
REMARK  5 active torsions:
REMARK  status: ('A' for Active; 'I' for Inactive)
REMARK    1  A    between atoms: C_1  and  C_11
REMARK    2  A    between atoms: C_4  and  O_7
REMARK    3  A    between atoms: C_5  and  O_9
REMARK    4  A    between atoms: C_12  and  C_13
REMARK    5  A    between atoms: C_18  and  O_19
REMARK                            x       y       z     vdW  Elec       q    Type
REMARK                         _______ _______ _______ _____ _____    ______ ____
ROOT
ATOM      1  C   UNL     1     -24.208 103.705  -0.372  0.00  0.00    +0.000 A 
ATOM      2  C   UNL     1     -23.578 103.044  -1.425  0.00  0.00    +0.000 A 
ATOM      3  C   UNL     1     -24.918 104.882  -0.607  0.00  0.00    +0.000 A 
ATOM      4  C   UNL     1     -24.992 105.390  -1.901  0.00  0.00    +0.000 A 
ATOM      5  C   UNL     1     -23.664 103.568  -2.711  0.00  0.00    +0.000 A 
ATOM      6  C   UNL     1     -24.369 104.741  -2.961  0.00  0.00    +0.000 A 
ENDROOT
BRANCH   4   7
ATOM      7  O   UNL     1     -25.680 106.540  -2.160  0.00  0.00    +0.000 OA
ATOM      8  H   UNL     1     -26.447 106.577  -1.561  0.00  0.00    +0.000 HD
ENDBRANCH   4   7
BRANCH   5   9
ATOM      9  O   UNL     1     -23.039 102.903  -3.727  0.00  0.00    +0.000 OA
ATOM     10  H   UNL     1     -22.802 103.555  -4.411  0.00  0.00    +0.000 HD
ENDBRANCH   5   9
BRANCH   1  11
ATOM     11  C   UNL     1     -24.126 103.178   0.951  0.00  0.00    +0.000 C 
ATOM     12  C   UNL     1     -24.058 102.734   2.065  0.00  0.00    +0.000 C 
BRANCH  12  13
ATOM     13  C   UNL     1     -23.977 102.207   3.387  0.00  0.00    +0.000 A 
ATOM     14  C   UNL     1     -23.358 102.947   4.394  0.00  0.00    +0.000 A 
ATOM     15  C   UNL     1     -24.517 100.952   3.670  0.00  0.00    +0.000 A 
ATOM     16  C   UNL     1     -23.278 102.434   5.686  0.00  0.00    +0.000 A 
ATOM     17  C   UNL     1     -24.438 100.436   4.961  0.00  0.00    +0.000 A 
ATOM     18  C   UNL     1     -23.819 101.181   5.959  0.00  0.00    +0.000 A 
BRANCH  18  19
ATOM     19  O   UNL     1     -23.754 100.654   7.215  0.00  0.00    +0.000 OA
ATOM     20  H   UNL     1     -24.251 101.236   7.816  0.00  0.00    +0.000 HD
ENDBRANCH  18  19
ENDBRANCH  12  13
ENDBRANCH   1  11
TORSDOF 5
ENDMDL
MODEL 6
REMARK VINA RESULT:      -5.3     14.845     17.247
REMARK  Name = 445154_Resveratrol.pdbqt.pdb
REMARK  5 active torsions:
REMARK  status: ('A' for Active; 'I' for Inactive)
REMARK    1  A    between atoms: C_1  and  C_11
REMARK    2  A    between atoms: C_4  and  O_7
REMARK    3  A    between atoms: C_5  and  O_9
REMARK    4  A    between atoms: C_12  and  C_13
REMARK    5  A    between atoms: C_18  and  O_19
REMARK                            x       y       z     vdW  Elec       q    Type
REMARK                         _______ _______ _______ _____ _____    ______ ____
ROOT
ATOM      1  C   UNL     1     -23.763 101.882   2.918  0.00  0.00    +0.000 A 
ATOM      2  C   UNL     1     -22.659 102.129   3.732  0.00  0.00    +0.000 A 
ATOM      3  C   UNL     1     -24.783 101.038   3.356  0.00  0.00    +0.000 A 
ATOM      4  C   UNL     1     -24.690 100.446   4.613  0.00  0.00    +0.000 A 
ATOM      5  C   UNL     1     -22.584 101.528   4.985  0.00  0.00    +0.000 A 
ATOM      6  C   UNL     1     -23.594 100.684   5.436  0.00  0.00    +0.000 A 
ENDROOT
BRANCH   4   7
ATOM      7  O   UNL     1     -25.673  99.616   5.067  0.00  0.00    +0.000 OA
ATOM      8  H   UNL     1     -26.169  99.283   4.298  0.00  0.00    +0.000 HD
ENDBRANCH   4   7
BRANCH   5   9
ATOM      9  O   UNL     1     -21.494 101.785   5.765  0.00  0.00    +0.000 OA
ATOM     10  H   UNL     1     -21.076 100.934   5.988  0.00  0.00    +0.000 HD
ENDBRANCH   5   9
BRANCH   1  11
ATOM     11  C   UNL     1     -23.850 102.492   1.632  0.00  0.00    +0.000 C 
ATOM     12  C   UNL     1     -23.924 103.006   0.549  0.00  0.00    +0.000 C 
BRANCH  12  13
ATOM     13  C   UNL     1     -24.011 103.617  -0.737  0.00  0.00    +0.000 A 
ATOM     14  C   UNL     1     -23.201 103.164  -1.778  0.00  0.00    +0.000 A 
ATOM     15  C   UNL     1     -24.906 104.665  -0.951  0.00  0.00    +0.000 A 
ATOM     16  C   UNL     1     -23.284 103.759  -3.034  0.00  0.00    +0.000 A 
ATOM     17  C   UNL     1     -24.993 105.262  -2.205  0.00  0.00    +0.000 A 
ATOM     18  C   UNL     1     -24.180 104.804  -3.237  0.00  0.00    +0.000 A 
BRANCH  18  19
ATOM     19  O   UNL     1     -24.282 105.405  -4.458  0.00  0.00    +0.000 OA
ATOM     20  H   UNL     1     -24.368 106.365  -4.319  0.00  0.00    +0.000 HD
ENDBRANCH  18  19
ENDBRANCH  12  13
ENDBRANCH   1  11
TORSDOF 5
ENDMDL
MODEL 7
REMARK VINA RESULT:      -5.2      2.265      7.606
REMARK  Name = 445154_Resveratrol.pdbqt.pdb
REMARK  5 active torsions:
REMARK  status: ('A' for Active; 'I' for Inactive)
REMARK    1  A    between atoms: C_1  and  C_11
REMARK    2  A    between atoms: C_4  and  O_7
REMARK    3  A    between atoms: C_5  and  O_9
REMARK    4  A    between atoms: C_12  and  C_13
REMARK    5  A    between atoms: C_18  and  O_19
REMARK                            x       y       z     vdW  Elec       q    Type
REMARK                         _______ _______ _______ _____ _____    ______ ____
ROOT
ATOM      1  C   UNL     1     -35.984  99.478  15.024  0.00  0.00    +0.000 A 
ATOM      2  C   UNL     1     -36.060  99.891  13.695  0.00  0.00    +0.000 A 
ATOM      3  C   UNL     1     -37.147  99.317  15.777  0.00  0.00    +0.000 A 
ATOM      4  C   UNL     1     -38.383  99.571  15.190  0.00  0.00    +0.000 A 
ATOM      5  C   UNL     1     -37.306 100.141  13.127  0.00  0.00    +0.000 A 
ATOM      6  C   UNL     1     -38.475  99.984  13.865  0.00  0.00    +0.000 A 
ENDROOT
BRANCH   4   7
ATOM      7  O   UNL     1     -39.538  99.421  15.902  0.00  0.00    +0.000 OA
ATOM      8  H   UNL     1     -39.531  98.536  16.308  0.00  0.00    +0.000 HD
ENDBRANCH   4   7
BRANCH   5   9
ATOM      9  O   UNL     1     -37.356 100.545  11.824  0.00  0.00    +0.000 OA
ATOM     10  H   UNL     1     -38.282 100.762  11.612  0.00  0.00    +0.000 HD
ENDBRANCH   5   9
BRANCH   1  11
ATOM     11  C   UNL     1     -34.713  99.219  15.618  0.00  0.00    +0.000 C 
ATOM     12  C   UNL     1     -33.643  99.002  16.119  0.00  0.00    +0.000 C 
BRANCH  12  13
ATOM     13  C   UNL     1     -32.373  98.743  16.713  0.00  0.00    +0.000 A 
ATOM     14  C   UNL     1     -32.267  97.814  17.748  0.00  0.00    +0.000 A 
ATOM     15  C   UNL     1     -31.241  99.419  16.259  0.00  0.00    +0.000 A 
ATOM     16  C   UNL     1     -31.028  97.559  18.329  0.00  0.00    +0.000 A 
ATOM     17  C   UNL     1     -30.001  99.167  16.838  0.00  0.00    +0.000 A 
ATOM     18  C   UNL     1     -29.904  98.239  17.870  0.00  0.00    +0.000 A 
BRANCH  18  19
ATOM     19  O   UNL     1     -28.677  98.009  18.421  0.00  0.00    +0.000 OA
ATOM     20  H   UNL     1     -28.071  98.708  18.120  0.00  0.00    +0.000 HD
ENDBRANCH  18  19
ENDBRANCH  12  13
ENDBRANCH   1  11
TORSDOF 5
ENDMDL
MODEL 8
REMARK VINA RESULT:      -5.0      4.730      6.026
REMARK  Name = 445154_Resveratrol.pdbqt.pdb
REMARK  5 active torsions:
REMARK  status: ('A' for Active; 'I' for Inactive)
REMARK    1  A    between atoms: C_1  and  C_11
REMARK    2  A    between atoms: C_4  and  O_7
REMARK    3  A    between atoms: C_5  and  O_9
REMARK    4  A    between atoms: C_12  and  C_13
REMARK    5  A    between atoms: C_18  and  O_19
REMARK                            x       y       z     vdW  Elec       q    Type
REMARK                         _______ _______ _______ _____ _____    ______ ____
ROOT
ATOM      1  C   UNL     1     -35.458  96.999  18.150  0.00  0.00    +0.000 A 
ATOM      2  C   UNL     1     -36.156  96.943  19.356  0.00  0.00    +0.000 A 
ATOM      3  C   UNL     1     -34.250  96.318  18.007  0.00  0.00    +0.000 A 
ATOM      4  C   UNL     1     -33.747  95.581  19.076  0.00  0.00    +0.000 A 
ATOM      5  C   UNL     1     -35.636  96.202  20.413  0.00  0.00    +0.000 A 
ATOM      6  C   UNL     1     -34.433  95.516  20.285  0.00  0.00    +0.000 A 
ENDROOT
BRANCH   4   7
ATOM      7  O   UNL     1     -32.568  94.904  18.964  0.00  0.00    +0.000 OA
ATOM      8  H   UNL     1     -32.683  94.025  19.366  0.00  0.00    +0.000 HD
ENDBRANCH   4   7
BRANCH   5   9
ATOM      9  O   UNL     1     -36.337  96.161  21.584  0.00  0.00    +0.000 OA
ATOM     10  H   UNL     1     -35.866  95.568  22.196  0.00  0.00    +0.000 HD
ENDBRANCH   5   9
BRANCH   1  11
ATOM     11  C   UNL     1     -35.979  97.756  17.060  0.00  0.00    +0.000 C 
ATOM     12  C   UNL     1     -36.419  98.394  16.142  0.00  0.00    +0.000 C 
BRANCH  12  13
ATOM     13  C   UNL     1     -36.940  99.152  15.052  0.00  0.00    +0.000 A 
ATOM     14  C   UNL     1     -36.133  99.426  13.948  0.00  0.00    +0.000 A 
ATOM     15  C   UNL     1     -38.254  99.618  15.094  0.00  0.00    +0.000 A 
ATOM     16  C   UNL     1     -36.640 100.165  12.883  0.00  0.00    +0.000 A 
ATOM     17  C   UNL     1     -38.764 100.358  14.031  0.00  0.00    +0.000 A 
ATOM     18  C   UNL     1     -37.952 100.626  12.933  0.00  0.00    +0.000 A 
BRANCH  18  19
ATOM     19  O   UNL     1     -38.474 101.353  11.903  0.00  0.00    +0.000 OA
ATOM     20  H   UNL     1     -37.821 101.375  11.183  0.00  0.00    +0.000 HD
ENDBRANCH  18  19
ENDBRANCH  12  13
ENDBRANCH   1  11
TORSDOF 5
ENDMDL
MODEL 9
REMARK VINA RESULT:      -5.0      4.682      5.802
REMARK  Name = 445154_Resveratrol.pdbqt.pdb
REMARK  5 active torsions:
REMARK  status: ('A' for Active; 'I' for Inactive)
REMARK    1  A    between atoms: C_1  and  C_11
REMARK    2  A    between atoms: C_4  and  O_7
REMARK    3  A    between atoms: C_5  and  O_9
REMARK    4  A    between atoms: C_12  and  C_13
REMARK    5  A    between atoms: C_18  and  O_19
REMARK                            x       y       z     vdW  Elec       q    Type
REMARK                         _______ _______ _______ _____ _____    ______ ____
ROOT
ATOM      1  C   UNL     1     -35.408  97.001  18.128  0.00  0.00    +0.000 A 
ATOM      2  C   UNL     1     -34.165  96.384  17.994  0.00  0.00    +0.000 A 
ATOM      3  C   UNL     1     -36.129  96.877  19.315  0.00  0.00    +0.000 A 
ATOM      4  C   UNL     1     -35.597  96.133  20.365  0.00  0.00    +0.000 A 
ATOM      5  C   UNL     1     -33.651  95.645  19.055  0.00  0.00    +0.000 A 
ATOM      6  C   UNL     1     -34.358  95.512  20.246  0.00  0.00    +0.000 A 
ENDROOT
BRANCH   4   7
ATOM      7  O   UNL     1     -36.280  95.995  21.538  0.00  0.00    +0.000 OA
ATOM      8  H   UNL     1     -35.758  96.416  22.244  0.00  0.00    +0.000 HD
ENDBRANCH   4   7
BRANCH   5   9
ATOM      9  O   UNL     1     -32.432  95.050  18.901  0.00  0.00    +0.000 OA
ATOM     10  H   UNL     1     -31.797  95.733  18.620  0.00  0.00    +0.000 HD
ENDBRANCH   5   9
BRANCH   1  11
ATOM     11  C   UNL     1     -35.946  97.761  17.048  0.00  0.00    +0.000 C 
ATOM     12  C   UNL     1     -36.399  98.401  16.138  0.00  0.00    +0.000 C 
BRANCH  12  13
ATOM     13  C   UNL     1     -36.938  99.162  15.058  0.00  0.00    +0.000 A 
ATOM     14  C   UNL     1     -38.235  99.669  15.145  0.00  0.00    +0.000 A 
ATOM     15  C   UNL     1     -36.168  99.395  13.919  0.00  0.00    +0.000 A 
ATOM     16  C   UNL     1     -38.762 100.412  14.093  0.00  0.00    +0.000 A 
ATOM     17  C   UNL     1     -36.693 100.137  12.865  0.00  0.00    +0.000 A 
ATOM     18  C   UNL     1     -37.987 100.639  12.960  0.00  0.00    +0.000 A 
BRANCH  18  19
ATOM     19  O   UNL     1     -38.479 101.364  11.913  0.00  0.00    +0.000 OA
ATOM     20  H   UNL     1     -38.751 102.236  12.247  0.00  0.00    +0.000 HD
ENDBRANCH  18  19
ENDBRANCH  12  13
ENDBRANCH   1  11
TORSDOF 5
ENDMDL
