MODEL 1
REMARK VINA RESULT:      -6.4      0.000      0.000
REMARK  Name = 448438_Violaxanthin.pdbqt.pdb
REMARK  16 active torsions:
REMARK  status: ('A' for Active; 'I' for Inactive)
REMARK    1  A    between atoms: C_1  and  C_5
REMARK    2  A    between atoms: C_2  and  C_27
REMARK    3  A    between atoms: C_3  and  C_5
REMARK    4  A    between atoms: C_3  and  C_7
REMARK    5  A    between atoms: C_6  and  C_10
REMARK    6  A    between atoms: C_8  and  C_10
REMARK    7  A    between atoms: C_8  and  C_12
REMARK    8  A    between atoms: C_11  and  C_14
REMARK    9  A    between atoms: C_19  and  O_23
REMARK   10  A    between atoms: C_25  and  C_27
REMARK   11  A    between atoms: C_25  and  C_29
REMARK   12  A    between atoms: C_28  and  C_32
REMARK   13  A    between atoms: C_30  and  C_32
REMARK   14  A    between atoms: C_30  and  C_34
REMARK   15  A    between atoms: C_33  and  C_36
REMARK   16  A    between atoms: C_41  and  O_45
REMARK                            x       y       z     vdW  Elec       q    Type
REMARK                         _______ _______ _______ _____ _____    ______ ____
ROOT
ATOM      1  C   UNL     1     -19.339  94.670  -8.419  0.00  0.00    +0.000 C 
ATOM      2  C   UNL     1     -19.505  94.025  -7.421  0.00  0.00    +0.000 C 
ENDROOT
BRANCH   2   3
ATOM      3  C   UNL     1     -19.719  93.200  -6.147  0.00  0.00    +0.000 C 
BRANCH   3   4
ATOM      4  C   UNL     1     -19.898  92.503  -5.069  0.00  0.00    +0.000 C 
ATOM      5  C   UNL     1     -19.327  92.982  -3.768  0.00  0.00    +0.000 C 
BRANCH   4   7
ATOM      6  C   UNL     1     -21.145  90.206  -5.187  0.00  0.00    +0.000 C 
ATOM      7  C   UNL     1     -20.572  91.261  -5.133  0.00  0.00    +0.000 C 
BRANCH   6   8
ATOM      8  C   UNL     1     -21.875  88.859  -5.254  0.00  0.00    +0.000 C 
BRANCH   8   9
ATOM      9  C   UNL     1     -22.495  87.722  -5.310  0.00  0.00    +0.000 C 
ATOM     10  C   UNL     1     -21.747  86.449  -5.057  0.00  0.00    +0.000 C 
BRANCH   9  12
ATOM     11  C   UNL     1     -25.093  87.661  -5.638  0.00  0.00    +0.000 C 
ATOM     12  C   UNL     1     -23.901  87.694  -5.488  0.00  0.00    +0.000 C 
BRANCH  11  14
ATOM     13  O   UNL     1     -26.963  88.665  -6.709  0.00  0.00    +0.000 OA
ATOM     14  C   UNL     1     -26.536  87.597  -5.818  0.00  0.00    +0.000 C 
ATOM     15  C   UNL     1     -27.117  87.344  -7.226  0.00  0.00    +0.000 C 
ATOM     16  C   UNL     1     -27.456  87.311  -4.583  0.00  0.00    +0.000 C 
ATOM     17  C   UNL     1     -28.486  86.952  -7.300  0.00  0.00    +0.000 C 
ATOM     18  C   UNL     1     -28.805  87.032  -5.095  0.00  0.00    +0.000 C 
ATOM     19  C   UNL     1     -29.470  86.783  -6.311  0.00  0.00    +0.000 C 
ATOM     20  C   UNL     1     -26.242  87.065  -8.451  0.00  0.00    +0.000 C 
ATOM     21  C   UNL     1     -26.870  86.051  -3.899  0.00  0.00    +0.000 C 
ATOM     22  C   UNL     1     -27.395  88.566  -3.687  0.00  0.00    +0.000 C 
BRANCH  19  23
ATOM     23  O   UNL     1     -30.766  87.140  -6.526  0.00  0.00    +0.000 OA
ATOM     24  H   UNL     1     -31.012  87.963  -6.067  0.00  0.00    +0.000 HD
ENDBRANCH  19  23
ENDBRANCH  11  14
ENDBRANCH   9  12
ENDBRANCH   8   9
ENDBRANCH   6   8
ENDBRANCH   4   7
ENDBRANCH   3   4
ENDBRANCH   2   3
BRANCH   1  25
ATOM     25  C   UNL     1     -19.125  95.495  -9.694  0.00  0.00    +0.000 C 
BRANCH  25  26
ATOM     26  C   UNL     1     -18.945  96.193 -10.771  0.00  0.00    +0.000 C 
ATOM     27  C   UNL     1     -17.884  95.791 -11.751  0.00  0.00    +0.000 C 
BRANCH  26  29
ATOM     28  C   UNL     1     -20.463  98.266 -11.259  0.00  0.00    +0.000 C 
ATOM     29  C   UNL     1     -19.765  97.315 -11.034  0.00  0.00    +0.000 C 
BRANCH  28  30
ATOM     30  C   UNL     1     -21.358  99.477 -11.552  0.00  0.00    +0.000 C 
BRANCH  30  31
ATOM     31  C   UNL     1     -22.110 100.503 -11.799  0.00  0.00    +0.000 C 
ATOM     32  C   UNL     1     -22.229 101.022 -13.199  0.00  0.00    +0.000 C 
BRANCH  31  34
ATOM     33  C   UNL     1     -23.486 101.615  -9.867  0.00  0.00    +0.000 C 
ATOM     34  C   UNL     1     -22.855 101.102 -10.753  0.00  0.00    +0.000 C 
BRANCH  33  36
ATOM     35  O   UNL     1     -25.153 101.265  -8.202  0.00  0.00    +0.000 OA
ATOM     36  C   UNL     1     -24.252 102.241  -8.799  0.00  0.00    +0.000 C 
ATOM     37  C   UNL     1     -24.105 101.726  -7.352  0.00  0.00    +0.000 C 
ATOM     38  C   UNL     1     -24.834 103.684  -9.013  0.00  0.00    +0.000 C 
ATOM     39  C   UNL     1     -24.589 102.570  -6.308  0.00  0.00    +0.000 C 
ATOM     40  C   UNL     1     -25.278 104.166  -7.703  0.00  0.00    +0.000 C 
ATOM     41  C   UNL     1     -25.230 103.819  -6.339  0.00  0.00    +0.000 C 
ATOM     42  C   UNL     1     -23.129 100.621  -6.941  0.00  0.00    +0.000 C 
ATOM     43  C   UNL     1     -25.977 103.537 -10.043  0.00  0.00    +0.000 C 
ATOM     44  C   UNL     1     -23.653 104.535  -9.548  0.00  0.00    +0.000 C 
BRANCH  41  45
ATOM     45  O   UNL     1     -25.054 104.763  -5.373  0.00  0.00    +0.000 OA
ATOM     46  H   UNL     1     -24.114 104.974  -5.226  0.00  0.00    +0.000 HD
ENDBRANCH  41  45
ENDBRANCH  33  36
ENDBRANCH  31  34
ENDBRANCH  30  31
ENDBRANCH  28  30
ENDBRANCH  26  29
ENDBRANCH  25  26
ENDBRANCH   1  25
TORSDOF 16
ENDMDL
MODEL 2
REMARK VINA RESULT:      -6.3     23.514     31.190
REMARK  Name = 448438_Violaxanthin.pdbqt.pdb
REMARK  16 active torsions:
REMARK  status: ('A' for Active; 'I' for Inactive)
REMARK    1  A    between atoms: C_1  and  C_5
REMARK    2  A    between atoms: C_2  and  C_27
REMARK    3  A    between atoms: C_3  and  C_5
REMARK    4  A    between atoms: C_3  and  C_7
REMARK    5  A    between atoms: C_6  and  C_10
REMARK    6  A    between atoms: C_8  and  C_10
REMARK    7  A    between atoms: C_8  and  C_12
REMARK    8  A    between atoms: C_11  and  C_14
REMARK    9  A    between atoms: C_19  and  O_23
REMARK   10  A    between atoms: C_25  and  C_27
REMARK   11  A    between atoms: C_25  and  C_29
REMARK   12  A    between atoms: C_28  and  C_32
REMARK   13  A    between atoms: C_30  and  C_32
REMARK   14  A    between atoms: C_30  and  C_34
REMARK   15  A    between atoms: C_33  and  C_36
REMARK   16  A    between atoms: C_41  and  O_45
REMARK                            x       y       z     vdW  Elec       q    Type
REMARK                         _______ _______ _______ _____ _____    ______ ____
ROOT
ATOM      1  C   UNL     1     -49.373  97.240   3.358  0.00  0.00    +0.000 C 
ATOM      2  C   UNL     1     -48.755  98.242   3.589  0.00  0.00    +0.000 C 
ENDROOT
BRANCH   2   3
ATOM      3  C   UNL     1     -47.964  99.522   3.884  0.00  0.00    +0.000 C 
BRANCH   3   4
ATOM      4  C   UNL     1     -47.294 100.602   4.135  0.00  0.00    +0.000 C 
ATOM      5  C   UNL     1     -47.931 101.709   4.920  0.00  0.00    +0.000 C 
BRANCH   4   7
ATOM      6  C   UNL     1     -44.883 100.902   3.166  0.00  0.00    +0.000 C 
ATOM      7  C   UNL     1     -45.990 100.764   3.611  0.00  0.00    +0.000 C 
BRANCH   6   8
ATOM      8  C   UNL     1     -43.468 101.075   2.599  0.00  0.00    +0.000 C 
BRANCH   8   9
ATOM      9  C   UNL     1     -42.273 101.225   2.117  0.00  0.00    +0.000 C 
ATOM     10  C   UNL     1     -41.946 100.698   0.754  0.00  0.00    +0.000 C 
BRANCH   9  12
ATOM     11  C   UNL     1     -40.509 102.638   3.440  0.00  0.00    +0.000 C 
ATOM     12  C   UNL     1     -41.317 101.992   2.829  0.00  0.00    +0.000 C 
BRANCH  11  14
ATOM     13  O   UNL     1     -38.677 102.508   4.949  0.00  0.00    +0.000 OA
ATOM     14  C   UNL     1     -39.539 103.411   4.201  0.00  0.00    +0.000 C 
ATOM     15  C   UNL     1     -38.033 103.241   3.908  0.00  0.00    +0.000 C 
ATOM     16  C   UNL     1     -40.000 104.710   4.945  0.00  0.00    +0.000 C 
ATOM     17  C   UNL     1     -37.158 104.245   4.420  0.00  0.00    +0.000 C 
ATOM     18  C   UNL     1     -38.789 105.418   5.385  0.00  0.00    +0.000 C 
ATOM     19  C   UNL     1     -37.392 105.384   5.208  0.00  0.00    +0.000 C 
ATOM     20  C   UNL     1     -37.497 102.355   2.780  0.00  0.00    +0.000 C 
ATOM     21  C   UNL     1     -40.762 105.554   3.895  0.00  0.00    +0.000 C 
ATOM     22  C   UNL     1     -40.895 104.253   6.117  0.00  0.00    +0.000 C 
BRANCH  19  23
ATOM     23  O   UNL     1     -36.519 105.774   6.177  0.00  0.00    +0.000 OA
ATOM     24  H   UNL     1     -35.670 105.298   6.133  0.00  0.00    +0.000 HD
ENDBRANCH  19  23
ENDBRANCH  11  14
ENDBRANCH   9  12
ENDBRANCH   8   9
ENDBRANCH   6   8
ENDBRANCH   4   7
ENDBRANCH   3   4
ENDBRANCH   2   3
BRANCH   1  25
ATOM     25  C   UNL     1     -50.164  95.959   3.064  0.00  0.00    +0.000 C 
BRANCH  25  26
ATOM     26  C   UNL     1     -50.832  94.877   2.815  0.00  0.00    +0.000 C 
ATOM     27  C   UNL     1     -50.902  94.349   1.413  0.00  0.00    +0.000 C 
BRANCH  26  29
ATOM     28  C   UNL     1     -52.019  93.594   4.760  0.00  0.00    +0.000 C 
ATOM     29  C   UNL     1     -51.472  94.183   3.867  0.00  0.00    +0.000 C 
BRANCH  28  30
ATOM     30  C   UNL     1     -52.724  92.845   5.898  0.00  0.00    +0.000 C 
BRANCH  30  31
ATOM     31  C   UNL     1     -53.318  92.208   6.858  0.00  0.00    +0.000 C 
ATOM     32  C   UNL     1     -53.867  92.964   8.028  0.00  0.00    +0.000 C 
BRANCH  31  34
ATOM     33  C   UNL     1     -53.635  89.612   6.699  0.00  0.00    +0.000 C 
ATOM     34  C   UNL     1     -53.489  90.804   6.775  0.00  0.00    +0.000 C 
BRANCH  33  36
ATOM     35  O   UNL     1     -55.070  87.871   5.937  0.00  0.00    +0.000 OA
ATOM     36  C   UNL     1     -53.809  88.170   6.601  0.00  0.00    +0.000 C 
ATOM     37  C   UNL     1     -53.898  87.505   5.211  0.00  0.00    +0.000 C 
ATOM     38  C   UNL     1     -53.438  87.265   7.829  0.00  0.00    +0.000 C 
ATOM     39  C   UNL     1     -53.718  86.091   5.153  0.00  0.00    +0.000 C 
ATOM     40  C   UNL     1     -53.422  85.880   7.353  0.00  0.00    +0.000 C 
ATOM     41  C   UNL     1     -53.497  85.136   6.160  0.00  0.00    +0.000 C 
ATOM     42  C   UNL     1     -53.739  88.269   3.894  0.00  0.00    +0.000 C 
ATOM     43  C   UNL     1     -54.513  87.542   8.905  0.00  0.00    +0.000 C 
ATOM     44  C   UNL     1     -52.022  87.718   8.269  0.00  0.00    +0.000 C 
BRANCH  41  45
ATOM     45  O   UNL     1     -52.733  84.025   5.967  0.00  0.00    +0.000 OA
ATOM     46  H   UNL     1     -52.184  83.813   6.744  0.00  0.00    +0.000 HD
ENDBRANCH  41  45
ENDBRANCH  33  36
ENDBRANCH  31  34
ENDBRANCH  30  31
ENDBRANCH  28  30
ENDBRANCH  26  29
ENDBRANCH  25  26
ENDBRANCH   1  25
TORSDOF 16
ENDMDL
MODEL 3
REMARK VINA RESULT:      -6.2     19.185     25.718
REMARK  Name = 448438_Violaxanthin.pdbqt.pdb
REMARK  16 active torsions:
REMARK  status: ('A' for Active; 'I' for Inactive)
REMARK    1  A    between atoms: C_1  and  C_5
REMARK    2  A    between atoms: C_2  and  C_27
REMARK    3  A    between atoms: C_3  and  C_5
REMARK    4  A    between atoms: C_3  and  C_7
REMARK    5  A    between atoms: C_6  and  C_10
REMARK    6  A    between atoms: C_8  and  C_10
REMARK    7  A    between atoms: C_8  and  C_12
REMARK    8  A    between atoms: C_11  and  C_14
REMARK    9  A    between atoms: C_19  and  O_23
REMARK   10  A    between atoms: C_25  and  C_27
REMARK   11  A    between atoms: C_25  and  C_29
REMARK   12  A    between atoms: C_28  and  C_32
REMARK   13  A    between atoms: C_30  and  C_32
REMARK   14  A    between atoms: C_30  and  C_34
REMARK   15  A    between atoms: C_33  and  C_36
REMARK   16  A    between atoms: C_41  and  O_45
REMARK                            x       y       z     vdW  Elec       q    Type
REMARK                         _______ _______ _______ _____ _____    ______ ____
ROOT
ATOM      1  C   UNL     1     -36.521 106.302  11.324  0.00  0.00    +0.000 C 
ATOM      2  C   UNL     1     -36.512 106.744  10.209  0.00  0.00    +0.000 C 
ENDROOT
BRANCH   2   3
ATOM      3  C   UNL     1     -36.498 107.308   8.783  0.00  0.00    +0.000 C 
BRANCH   3   4
ATOM      4  C   UNL     1     -36.484 107.783   7.578  0.00  0.00    +0.000 C 
ATOM      5  C   UNL     1     -36.678 109.253   7.354  0.00  0.00    +0.000 C 
BRANCH   4   7
ATOM      6  C   UNL     1     -36.245 106.166   5.536  0.00  0.00    +0.000 C 
ATOM      7  C   UNL     1     -36.355 106.909   6.474  0.00  0.00    +0.000 C 
BRANCH   6   8
ATOM      8  C   UNL     1     -36.105 105.220   4.337  0.00  0.00    +0.000 C 
BRANCH   8   9
ATOM      9  C   UNL     1     -35.989 104.418   3.324  0.00  0.00    +0.000 C 
ATOM     10  C   UNL     1     -36.505 103.015   3.420  0.00  0.00    +0.000 C 
BRANCH   9  12
ATOM     11  C   UNL     1     -35.058 105.326   1.051  0.00  0.00    +0.000 C 
ATOM     12  C   UNL     1     -35.489 104.907   2.092  0.00  0.00    +0.000 C 
BRANCH  11  14
ATOM     13  O   UNL     1     -33.903 107.145   0.045  0.00  0.00    +0.000 OA
ATOM     14  C   UNL     1     -34.523 105.850  -0.197  0.00  0.00    +0.000 C 
ATOM     15  C   UNL     1     -33.005 106.101  -0.328  0.00  0.00    +0.000 C 
ATOM     16  C   UNL     1     -35.360 105.714  -1.513  0.00  0.00    +0.000 C 
ATOM     17  C   UNL     1     -32.491 106.280  -1.646  0.00  0.00    +0.000 C 
ATOM     18  C   UNL     1     -34.478 106.068  -2.634  0.00  0.00    +0.000 C 
ATOM     19  C   UNL     1     -33.118 106.319  -2.903  0.00  0.00    +0.000 C 
ATOM     20  C   UNL     1     -32.002 105.739   0.771  0.00  0.00    +0.000 C 
ATOM     21  C   UNL     1     -35.771 104.225  -1.604  0.00  0.00    +0.000 C 
ATOM     22  C   UNL     1     -36.568 106.665  -1.368  0.00  0.00    +0.000 C 
BRANCH  19  23
ATOM     23  O   UNL     1     -32.708 107.176  -3.879  0.00  0.00    +0.000 OA
ATOM     24  H   UNL     1     -32.994 108.093  -3.720  0.00  0.00    +0.000 HD
ENDBRANCH  19  23
ENDBRANCH  11  14
ENDBRANCH   9  12
ENDBRANCH   8   9
ENDBRANCH   6   8
ENDBRANCH   4   7
ENDBRANCH   3   4
ENDBRANCH   2   3
BRANCH   1  25
ATOM     25  C   UNL     1     -36.533 105.737  12.750  0.00  0.00    +0.000 C 
BRANCH  25  26
ATOM     26  C   UNL     1     -36.544 105.260  13.955  0.00  0.00    +0.000 C 
ATOM     27  C   UNL     1     -36.753 106.181  15.120  0.00  0.00    +0.000 C 
BRANCH  26  29
ATOM     28  C   UNL     1     -36.248 102.692  14.347  0.00  0.00    +0.000 C 
ATOM     29  C   UNL     1     -36.386 103.872  14.168  0.00  0.00    +0.000 C 
BRANCH  28  30
ATOM     30  C   UNL     1     -36.066 101.185  14.570  0.00  0.00    +0.000 C 
BRANCH  30  31
ATOM     31  C   UNL     1     -35.914  99.911  14.754  0.00  0.00    +0.000 C 
ATOM     32  C   UNL     1     -36.987  98.960  14.320  0.00  0.00    +0.000 C 
BRANCH  31  34
ATOM     33  C   UNL     1     -33.691  99.003  15.803  0.00  0.00    +0.000 C 
ATOM     34  C   UNL     1     -34.713  99.417  15.322  0.00  0.00    +0.000 C 
BRANCH  33  36
ATOM     35  O   UNL     1     -31.788  97.616  15.449  0.00  0.00    +0.000 OA
ATOM     36  C   UNL     1     -32.454  98.508  16.388  0.00  0.00    +0.000 C 
ATOM     37  C   UNL     1     -31.106  98.839  15.716  0.00  0.00    +0.000 C 
ATOM     38  C   UNL     1     -32.438  98.067  17.896  0.00  0.00    +0.000 C 
ATOM     39  C   UNL     1     -29.925  98.641  16.491  0.00  0.00    +0.000 C 
ATOM     40  C   UNL     1     -31.035  97.912  18.283  0.00  0.00    +0.000 C 
ATOM     41  C   UNL     1     -29.736  98.151  17.795  0.00  0.00    +0.000 C 
ATOM     42  C   UNL     1     -30.971  99.738  14.484  0.00  0.00    +0.000 C 
ATOM     43  C   UNL     1     -33.254  96.756  17.968  0.00  0.00    +0.000 C 
ATOM     44  C   UNL     1     -33.105  99.229  18.677  0.00  0.00    +0.000 C 
BRANCH  41  45
ATOM     45  O   UNL     1     -28.742  98.596  18.613  0.00  0.00    +0.000 OA
ATOM     46  H   UNL     1     -28.268  97.867  19.053  0.00  0.00    +0.000 HD
ENDBRANCH  41  45
ENDBRANCH  33  36
ENDBRANCH  31  34
ENDBRANCH  30  31
ENDBRANCH  28  30
ENDBRANCH  26  29
ENDBRANCH  25  26
ENDBRANCH   1  25
TORSDOF 16
ENDMDL
MODEL 4
REMARK VINA RESULT:      -6.2     14.270     19.405
REMARK  Name = 448438_Violaxanthin.pdbqt.pdb
REMARK  16 active torsions:
REMARK  status: ('A' for Active; 'I' for Inactive)
REMARK    1  A    between atoms: C_1  and  C_5
REMARK    2  A    between atoms: C_2  and  C_27
REMARK    3  A    between atoms: C_3  and  C_5
REMARK    4  A    between atoms: C_3  and  C_7
REMARK    5  A    between atoms: C_6  and  C_10
REMARK    6  A    between atoms: C_8  and  C_10
REMARK    7  A    between atoms: C_8  and  C_12
REMARK    8  A    between atoms: C_11  and  C_14
REMARK    9  A    between atoms: C_19  and  O_23
REMARK   10  A    between atoms: C_25  and  C_27
REMARK   11  A    between atoms: C_25  and  C_29
REMARK   12  A    between atoms: C_28  and  C_32
REMARK   13  A    between atoms: C_30  and  C_32
REMARK   14  A    between atoms: C_30  and  C_34
REMARK   15  A    between atoms: C_33  and  C_36
REMARK   16  A    between atoms: C_41  and  O_45
REMARK                            x       y       z     vdW  Elec       q    Type
REMARK                         _______ _______ _______ _____ _____    ______ ____
ROOT
ATOM      1  C   UNL     1     -29.168 107.743   2.398  0.00  0.00    +0.000 C 
ATOM      2  C   UNL     1     -28.078 107.242   2.393  0.00  0.00    +0.000 C 
ENDROOT
BRANCH   2   3
ATOM      3  C   UNL     1     -26.686 106.600   2.390  0.00  0.00    +0.000 C 
BRANCH   3   4
ATOM      4  C   UNL     1     -25.510 106.056   2.386  0.00  0.00    +0.000 C 
ATOM      5  C   UNL     1     -24.358 106.774   1.749  0.00  0.00    +0.000 C 
BRANCH   4   7
ATOM      6  C   UNL     1     -25.174 103.656   3.372  0.00  0.00    +0.000 C 
ATOM      7  C   UNL     1     -25.328 104.758   2.919  0.00  0.00    +0.000 C 
BRANCH   6   8
ATOM      8  C   UNL     1     -24.978 102.250   3.952  0.00  0.00    +0.000 C 
BRANCH   8   9
ATOM      9  C   UNL     1     -24.809 101.062   4.445  0.00  0.00    +0.000 C 
ATOM     10  C   UNL     1     -25.843 100.004   4.214  0.00  0.00    +0.000 C 
BRANCH   9  12
ATOM     11  C   UNL     1     -22.564 100.450   5.647  0.00  0.00    +0.000 C 
ATOM     12  C   UNL     1     -23.592 100.735   5.093  0.00  0.00    +0.000 C 
BRANCH  11  14
ATOM     13  O   UNL     1     -21.228  98.638   6.409  0.00  0.00    +0.000 OA
ATOM     14  C   UNL     1     -21.331 100.087   6.329  0.00  0.00    +0.000 C 
ATOM     15  C   UNL     1     -20.257  99.271   5.578  0.00  0.00    +0.000 C 
ATOM     16  C   UNL     1     -20.888 100.888   7.600  0.00  0.00    +0.000 C 
ATOM     17  C   UNL     1     -18.952  99.237   6.153  0.00  0.00    +0.000 C 
ATOM     18  C   UNL     1     -19.505 100.497   7.907  0.00  0.00    +0.000 C 
ATOM     19  C   UNL     1     -18.432  99.781   7.339  0.00  0.00    +0.000 C 
ATOM     20  C   UNL     1     -20.380  98.892   4.099  0.00  0.00    +0.000 C 
ATOM     21  C   UNL     1     -20.948 102.383   7.203  0.00  0.00    +0.000 C 
ATOM     22  C   UNL     1     -21.884 100.522   8.721  0.00  0.00    +0.000 C 
BRANCH  19  23
ATOM     23  O   UNL     1     -17.516  99.111   8.091  0.00  0.00    +0.000 OA
ATOM     24  H   UNL     1     -17.472  98.163   7.873  0.00  0.00    +0.000 HD
ENDBRANCH  19  23
ENDBRANCH  11  14
ENDBRANCH   9  12
ENDBRANCH   8   9
ENDBRANCH   6   8
ENDBRANCH   4   7
ENDBRANCH   3   4
ENDBRANCH   2   3
BRANCH   1  25
ATOM     25  C   UNL     1     -30.561 108.385   2.402  0.00  0.00    +0.000 C 
BRANCH  25  26
ATOM     26  C   UNL     1     -31.738 108.927   2.406  0.00  0.00    +0.000 C 
ATOM     27  C   UNL     1     -32.012 110.121   1.541  0.00  0.00    +0.000 C 
BRANCH  26  29
ATOM     28  C   UNL     1     -33.644 107.915   3.882  0.00  0.00    +0.000 C 
ATOM     29  C   UNL     1     -32.768 108.378   3.204  0.00  0.00    +0.000 C 
BRANCH  28  30
ATOM     30  C   UNL     1     -34.767 107.330   4.748  0.00  0.00    +0.000 C 
BRANCH  30  31
ATOM     31  C   UNL     1     -35.714 106.839   5.484  0.00  0.00    +0.000 C 
ATOM     32  C   UNL     1     -36.033 107.465   6.807  0.00  0.00    +0.000 C 
BRANCH  31  34
ATOM     33  C   UNL     1     -37.127 104.812   4.613  0.00  0.00    +0.000 C 
ATOM     34  C   UNL     1     -36.477 105.741   5.015  0.00  0.00    +0.000 C 
BRANCH  33  36
ATOM     35  O   UNL     1     -37.991 102.657   5.144  0.00  0.00    +0.000 OA
ATOM     36  C   UNL     1     -37.914 103.691   4.121  0.00  0.00    +0.000 C 
ATOM     37  C   UNL     1     -39.225 103.305   4.840  0.00  0.00    +0.000 C 
ATOM     38  C   UNL     1     -37.708 103.195   2.646  0.00  0.00    +0.000 C 
ATOM     39  C   UNL     1     -40.125 102.450   4.137  0.00  0.00    +0.000 C 
ATOM     40  C   UNL     1     -38.816 102.287   2.340  0.00  0.00    +0.000 C 
ATOM     41  C   UNL     1     -40.037 101.836   2.877  0.00  0.00    +0.000 C 
ATOM     42  C   UNL     1     -39.805 104.087   6.021  0.00  0.00    +0.000 C 
ATOM     43  C   UNL     1     -36.319 102.517   2.611  0.00  0.00    +0.000 C 
ATOM     44  C   UNL     1     -37.773 104.468   1.764  0.00  0.00    +0.000 C 
BRANCH  41  45
ATOM     45  O   UNL     1     -41.123 101.619   2.084  0.00  0.00    +0.000 OA
ATOM     46  H   UNL     1     -40.878 101.294   1.199  0.00  0.00    +0.000 HD
ENDBRANCH  41  45
ENDBRANCH  33  36
ENDBRANCH  31  34
ENDBRANCH  30  31
ENDBRANCH  28  30
ENDBRANCH  26  29
ENDBRANCH  25  26
ENDBRANCH   1  25
TORSDOF 16
ENDMDL
MODEL 5
REMARK VINA RESULT:      -6.1     14.552     18.591
REMARK  Name = 448438_Violaxanthin.pdbqt.pdb
REMARK  16 active torsions:
REMARK  status: ('A' for Active; 'I' for Inactive)
REMARK    1  A    between atoms: C_1  and  C_5
REMARK    2  A    between atoms: C_2  and  C_27
REMARK    3  A    between atoms: C_3  and  C_5
REMARK    4  A    between atoms: C_3  and  C_7
REMARK    5  A    between atoms: C_6  and  C_10
REMARK    6  A    between atoms: C_8  and  C_10
REMARK    7  A    between atoms: C_8  and  C_12
REMARK    8  A    between atoms: C_11  and  C_14
REMARK    9  A    between atoms: C_19  and  O_23
REMARK   10  A    between atoms: C_25  and  C_27
REMARK   11  A    between atoms: C_25  and  C_29
REMARK   12  A    between atoms: C_28  and  C_32
REMARK   13  A    between atoms: C_30  and  C_32
REMARK   14  A    between atoms: C_30  and  C_34
REMARK   15  A    between atoms: C_33  and  C_36
REMARK   16  A    between atoms: C_41  and  O_45
REMARK                            x       y       z     vdW  Elec       q    Type
REMARK                         _______ _______ _______ _____ _____    ______ ____
ROOT
ATOM      1  C   UNL     1     -28.839 107.501   0.866  0.00  0.00    +0.000 C 
ATOM      2  C   UNL     1     -27.761 107.068   1.166  0.00  0.00    +0.000 C 
ENDROOT
BRANCH   2   3
ATOM      3  C   UNL     1     -26.382 106.517   1.549  0.00  0.00    +0.000 C 
BRANCH   3   4
ATOM      4  C   UNL     1     -25.216 106.054   1.874  0.00  0.00    +0.000 C 
ATOM      5  C   UNL     1     -23.980 106.808   1.484  0.00  0.00    +0.000 C 
BRANCH   4   7
ATOM      6  C   UNL     1     -25.017 103.750   3.095  0.00  0.00    +0.000 C 
ATOM      7  C   UNL     1     -25.109 104.808   2.534  0.00  0.00    +0.000 C 
BRANCH   6   8
ATOM      8  C   UNL     1     -24.898 102.398   3.811  0.00  0.00    +0.000 C 
BRANCH   8   9
ATOM      9  C   UNL     1     -24.794 101.256   4.416  0.00  0.00    +0.000 C 
ATOM     10  C   UNL     1     -25.864 100.222   4.249  0.00  0.00    +0.000 C 
BRANCH   9  12
ATOM     11  C   UNL     1     -22.614 100.677   5.749  0.00  0.00    +0.000 C 
ATOM     12  C   UNL     1     -23.612 100.944   5.134  0.00  0.00    +0.000 C 
BRANCH  11  14
ATOM     13  O   UNL     1     -21.052 101.485   7.347  0.00  0.00    +0.000 OA
ATOM     14  C   UNL     1     -21.421 100.351   6.514  0.00  0.00    +0.000 C 
ATOM     15  C   UNL     1     -21.488 100.327   8.057  0.00  0.00    +0.000 C 
ATOM     16  C   UNL     1     -20.244  99.585   5.820  0.00  0.00    +0.000 C 
ATOM     17  C   UNL     1     -20.417  99.680   8.740  0.00  0.00    +0.000 C 
ATOM     18  C   UNL     1     -19.315  99.155   6.874  0.00  0.00    +0.000 C 
ATOM     19  C   UNL     1     -19.238  99.070   8.278  0.00  0.00    +0.000 C 
ATOM     20  C   UNL     1     -22.787 100.544   8.838  0.00  0.00    +0.000 C 
ATOM     21  C   UNL     1     -20.884  98.354   5.134  0.00  0.00    +0.000 C 
ATOM     22  C   UNL     1     -19.608 100.571   4.817  0.00  0.00    +0.000 C 
BRANCH  19  23
ATOM     23  O   UNL     1     -18.063  99.182   8.958  0.00  0.00    +0.000 OA
ATOM     24  H   UNL     1     -18.122  99.793   9.714  0.00  0.00    +0.000 HD
ENDBRANCH  19  23
ENDBRANCH  11  14
ENDBRANCH   9  12
ENDBRANCH   8   9
ENDBRANCH   6   8
ENDBRANCH   4   7
ENDBRANCH   3   4
ENDBRANCH   2   3
BRANCH   1  25
ATOM     25  C   UNL     1     -30.218 108.052   0.483  0.00  0.00    +0.000 C 
BRANCH  25  26
ATOM     26  C   UNL     1     -31.383 108.518   0.159  0.00  0.00    +0.000 C 
ATOM     27  C   UNL     1     -31.555 109.987  -0.092  0.00  0.00    +0.000 C 
BRANCH  26  29
ATOM     28  C   UNL     1     -33.414 106.892  -0.102  0.00  0.00    +0.000 C 
ATOM     29  C   UNL     1     -32.482 107.641   0.017  0.00  0.00    +0.000 C 
BRANCH  28  30
ATOM     30  C   UNL     1     -34.600 105.931  -0.251  0.00  0.00    +0.000 C 
BRANCH  30  31
ATOM     31  C   UNL     1     -35.604 105.122  -0.381  0.00  0.00    +0.000 C 
ATOM     32  C   UNL     1     -36.004 104.640  -1.742  0.00  0.00    +0.000 C 
BRANCH  31  34
ATOM     33  C   UNL     1     -36.876 104.268   1.745  0.00  0.00    +0.000 C 
ATOM     34  C   UNL     1     -36.291 104.657   0.768  0.00  0.00    +0.000 C 
BRANCH  33  36
ATOM     35  O   UNL     1     -36.728 102.923   3.705  0.00  0.00    +0.000 OA
ATOM     36  C   UNL     1     -37.590 103.801   2.924  0.00  0.00    +0.000 C 
ATOM     37  C   UNL     1     -37.061 104.162   4.328  0.00  0.00    +0.000 C 
ATOM     38  C   UNL     1     -39.092 103.362   2.792  0.00  0.00    +0.000 C 
ATOM     39  C   UNL     1     -37.957 103.991   5.425  0.00  0.00    +0.000 C 
ATOM     40  C   UNL     1     -39.624 103.238   4.150  0.00  0.00    +0.000 C 
ATOM     41  C   UNL     1     -39.274 103.506   5.488  0.00  0.00    +0.000 C 
ATOM     42  C   UNL     1     -35.847 105.062   4.571  0.00  0.00    +0.000 C 
ATOM     43  C   UNL     1     -39.082 102.033   2.002  0.00  0.00    +0.000 C 
ATOM     44  C   UNL     1     -39.795 104.509   2.021  0.00  0.00    +0.000 C 
BRANCH  41  45
ATOM     45  O   UNL     1     -40.190 103.974   6.380  0.00  0.00    +0.000 OA
ATOM     46  H   UNL     1     -41.031 104.224   5.954  0.00  0.00    +0.000 HD
ENDBRANCH  41  45
ENDBRANCH  33  36
ENDBRANCH  31  34
ENDBRANCH  30  31
ENDBRANCH  28  30
ENDBRANCH  26  29
ENDBRANCH  25  26
ENDBRANCH   1  25
TORSDOF 16
ENDMDL
MODEL 6
REMARK VINA RESULT:      -6.1      9.112     13.564
REMARK  Name = 448438_Violaxanthin.pdbqt.pdb
REMARK  16 active torsions:
REMARK  status: ('A' for Active; 'I' for Inactive)
REMARK    1  A    between atoms: C_1  and  C_5
REMARK    2  A    between atoms: C_2  and  C_27
REMARK    3  A    between atoms: C_3  and  C_5
REMARK    4  A    between atoms: C_3  and  C_7
REMARK    5  A    between atoms: C_6  and  C_10
REMARK    6  A    between atoms: C_8  and  C_10
REMARK    7  A    between atoms: C_8  and  C_12
REMARK    8  A    between atoms: C_11  and  C_14
REMARK    9  A    between atoms: C_19  and  O_23
REMARK   10  A    between atoms: C_25  and  C_27
REMARK   11  A    between atoms: C_25  and  C_29
REMARK   12  A    between atoms: C_28  and  C_32
REMARK   13  A    between atoms: C_30  and  C_32
REMARK   14  A    between atoms: C_30  and  C_34
REMARK   15  A    between atoms: C_33  and  C_36
REMARK   16  A    between atoms: C_41  and  O_45
REMARK                            x       y       z     vdW  Elec       q    Type
REMARK                         _______ _______ _______ _____ _____    ______ ____
ROOT
ATOM      1  C   UNL     1     -24.805 103.612  -6.229  0.00  0.00    +0.000 C 
ATOM      2  C   UNL     1     -25.482 103.750  -7.210  0.00  0.00    +0.000 C 
ENDROOT
BRANCH   2   3
ATOM      3  C   UNL     1     -26.346 103.929  -8.464  0.00  0.00    +0.000 C 
BRANCH   3   4
ATOM      4  C   UNL     1     -27.076 104.083  -9.523  0.00  0.00    +0.000 C 
ATOM      5  C   UNL     1     -28.206 105.068  -9.513  0.00  0.00    +0.000 C 
BRANCH   4   7
ATOM      6  C   UNL     1     -26.659 102.588 -11.629  0.00  0.00    +0.000 C 
ATOM      7  C   UNL     1     -26.851 103.274 -10.661  0.00  0.00    +0.000 C 
BRANCH   6   8
ATOM      8  C   UNL     1     -26.417 101.712 -12.864  0.00  0.00    +0.000 C 
BRANCH   8   9
ATOM      9  C   UNL     1     -26.215 100.971 -13.909  0.00  0.00    +0.000 C 
ATOM     10  C   UNL     1     -25.018 101.213 -14.776  0.00  0.00    +0.000 C 
BRANCH   9  12
ATOM     11  C   UNL     1     -27.773  98.915 -14.362  0.00  0.00    +0.000 C 
ATOM     12  C   UNL     1     -27.058  99.859 -14.159  0.00  0.00    +0.000 C 
BRANCH  11  14
ATOM     13  O   UNL     1     -27.993  96.843 -15.505  0.00  0.00    +0.000 OA
ATOM     14  C   UNL     1     -28.638  97.766 -14.583  0.00  0.00    +0.000 C 
ATOM     15  C   UNL     1     -28.154  96.359 -14.172  0.00  0.00    +0.000 C 
ATOM     16  C   UNL     1     -30.177  97.984 -14.778  0.00  0.00    +0.000 C 
ATOM     17  C   UNL     1     -29.143  95.334 -14.088  0.00  0.00    +0.000 C 
ATOM     18  C   UNL     1     -30.821  96.666 -14.704  0.00  0.00    +0.000 C 
ATOM     19  C   UNL     1     -30.522  95.334 -14.356  0.00  0.00    +0.000 C 
ATOM     20  C   UNL     1     -26.826  96.111 -13.450  0.00  0.00    +0.000 C 
ATOM     21  C   UNL     1     -30.634  98.872 -13.596  0.00  0.00    +0.000 C 
ATOM     22  C   UNL     1     -30.354  98.669 -16.150  0.00  0.00    +0.000 C 
BRANCH  19  23
ATOM     23  O   UNL     1     -31.135  94.267 -14.939  0.00  0.00    +0.000 OA
ATOM     24  H   UNL     1     -30.645  93.922 -15.706  0.00  0.00    +0.000 HD
ENDBRANCH  19  23
ENDBRANCH  11  14
ENDBRANCH   9  12
ENDBRANCH   8   9
ENDBRANCH   6   8
ENDBRANCH   4   7
ENDBRANCH   3   4
ENDBRANCH   2   3
BRANCH   1  25
ATOM     25  C   UNL     1     -23.940 103.434  -4.975  0.00  0.00    +0.000 C 
BRANCH  25  26
ATOM     26  C   UNL     1     -23.209 103.283  -3.916  0.00  0.00    +0.000 C 
ATOM     27  C   UNL     1     -21.831 102.706  -4.036  0.00  0.00    +0.000 C 
BRANCH  26  29
ATOM     28  C   UNL     1     -24.117 104.028  -1.579  0.00  0.00    +0.000 C 
ATOM     29  C   UNL     1     -23.702 103.687  -2.653  0.00  0.00    +0.000 C 
BRANCH  28  30
ATOM     30  C   UNL     1     -24.645 104.458  -0.204  0.00  0.00    +0.000 C 
BRANCH  30  31
ATOM     31  C   UNL     1     -25.090 104.816   0.959  0.00  0.00    +0.000 C 
ATOM     32  C   UNL     1     -26.143 105.877   1.061  0.00  0.00    +0.000 C 
BRANCH  31  34
ATOM     33  C   UNL     1     -24.212 103.618   3.118  0.00  0.00    +0.000 C 
ATOM     34  C   UNL     1     -24.615 104.171   2.128  0.00  0.00    +0.000 C 
BRANCH  33  36
ATOM     35  O   UNL     1     -22.441 103.516   4.707  0.00  0.00    +0.000 OA
ATOM     36  C   UNL     1     -23.721 102.945   4.311  0.00  0.00    +0.000 C 
ATOM     37  C   UNL     1     -23.518 103.749   5.612  0.00  0.00    +0.000 C 
ATOM     38  C   UNL     1     -23.849 101.384   4.421  0.00  0.00    +0.000 C 
ATOM     39  C   UNL     1     -23.377 103.007   6.822  0.00  0.00    +0.000 C 
ATOM     40  C   UNL     1     -23.565 101.027   5.813  0.00  0.00    +0.000 C 
ATOM     41  C   UNL     1     -23.354 101.624   7.071  0.00  0.00    +0.000 C 
ATOM     42  C   UNL     1     -23.876 105.231   5.757  0.00  0.00    +0.000 C 
ATOM     43  C   UNL     1     -22.838 100.798   3.409  0.00  0.00    +0.000 C 
ATOM     44  C   UNL     1     -25.320 101.058   4.052  0.00  0.00    +0.000 C 
BRANCH  41  45
ATOM     45  O   UNL     1     -23.853 101.071   8.211  0.00  0.00    +0.000 OA
ATOM     46  H   UNL     1     -24.510 100.375   8.030  0.00  0.00    +0.000 HD
ENDBRANCH  41  45
ENDBRANCH  33  36
ENDBRANCH  31  34
ENDBRANCH  30  31
ENDBRANCH  28  30
ENDBRANCH  26  29
ENDBRANCH  25  26
ENDBRANCH   1  25
TORSDOF 16
ENDMDL
MODEL 7
REMARK VINA RESULT:      -6.1     20.643     25.410
REMARK  Name = 448438_Violaxanthin.pdbqt.pdb
REMARK  16 active torsions:
REMARK  status: ('A' for Active; 'I' for Inactive)
REMARK    1  A    between atoms: C_1  and  C_5
REMARK    2  A    between atoms: C_2  and  C_27
REMARK    3  A    between atoms: C_3  and  C_5
REMARK    4  A    between atoms: C_3  and  C_7
REMARK    5  A    between atoms: C_6  and  C_10
REMARK    6  A    between atoms: C_8  and  C_10
REMARK    7  A    between atoms: C_8  and  C_12
REMARK    8  A    between atoms: C_11  and  C_14
REMARK    9  A    between atoms: C_19  and  O_23
REMARK   10  A    between atoms: C_25  and  C_27
REMARK   11  A    between atoms: C_25  and  C_29
REMARK   12  A    between atoms: C_28  and  C_32
REMARK   13  A    between atoms: C_30  and  C_32
REMARK   14  A    between atoms: C_30  and  C_34
REMARK   15  A    between atoms: C_33  and  C_36
REMARK   16  A    between atoms: C_41  and  O_45
REMARK                            x       y       z     vdW  Elec       q    Type
REMARK                         _______ _______ _______ _____ _____    ______ ____
ROOT
ATOM      1  C   UNL     1     -34.468 109.064  12.448  0.00  0.00    +0.000 C 
ATOM      2  C   UNL     1     -33.560 109.349  13.179  0.00  0.00    +0.000 C 
ENDROOT
BRANCH   2   3
ATOM      3  C   UNL     1     -32.402 109.716  14.113  0.00  0.00    +0.000 C 
BRANCH   3   4
ATOM      4  C   UNL     1     -31.422 110.024  14.903  0.00  0.00    +0.000 C 
ATOM      5  C   UNL     1     -31.065 111.463  15.123  0.00  0.00    +0.000 C 
BRANCH   4   7
ATOM      6  C   UNL     1     -29.991 108.134  16.011  0.00  0.00    +0.000 C 
ATOM      7  C   UNL     1     -30.648 109.002  15.502  0.00  0.00    +0.000 C 
BRANCH   6   8
ATOM      8  C   UNL     1     -29.153 107.025  16.659  0.00  0.00    +0.000 C 
BRANCH   8   9
ATOM      9  C   UNL     1     -28.443 106.089  17.209  0.00  0.00    +0.000 C 
ATOM     10  C   UNL     1     -27.408 106.441  18.233  0.00  0.00    +0.000 C 
BRANCH   9  12
ATOM     11  C   UNL     1     -28.971 103.575  16.700  0.00  0.00    +0.000 C 
ATOM     12  C   UNL     1     -28.733 104.730  16.932  0.00  0.00    +0.000 C 
BRANCH  11  14
ATOM     13  O   UNL     1     -29.029 101.388  17.630  0.00  0.00    +0.000 OA
ATOM     14  C   UNL     1     -29.234 102.171  16.420  0.00  0.00    +0.000 C 
ATOM     15  C   UNL     1     -30.377 101.448  17.165  0.00  0.00    +0.000 C 
ATOM     16  C   UNL     1     -28.713 101.539  15.085  0.00  0.00    +0.000 C 
ATOM     17  C   UNL     1     -30.815 100.204  16.624  0.00  0.00    +0.000 C 
ATOM     18  C   UNL     1     -29.348 100.221  14.945  0.00  0.00    +0.000 C 
ATOM     19  C   UNL     1     -30.370  99.446  15.528  0.00  0.00    +0.000 C 
ATOM     20  C   UNL     1     -31.324 102.162  18.134  0.00  0.00    +0.000 C 
ATOM     21  C   UNL     1     -29.186 102.484  13.954  0.00  0.00    +0.000 C 
ATOM     22  C   UNL     1     -27.176 101.462  15.203  0.00  0.00    +0.000 C 
BRANCH  19  23
ATOM     23  O   UNL     1     -30.327  98.085  15.571  0.00  0.00    +0.000 OA
ATOM     24  H   UNL     1     -30.970  97.707  16.198  0.00  0.00    +0.000 HD
ENDBRANCH  19  23
ENDBRANCH  11  14
ENDBRANCH   9  12
ENDBRANCH   8   9
ENDBRANCH   6   8
ENDBRANCH   4   7
ENDBRANCH   3   4
ENDBRANCH   2   3
BRANCH   1  25
ATOM     25  C   UNL     1     -35.627 108.698  11.513  0.00  0.00    +0.000 C 
BRANCH  25  26
ATOM     26  C   UNL     1     -36.606 108.388  10.723  0.00  0.00    +0.000 C 
ATOM     27  C   UNL     1     -38.022 108.597  11.172  0.00  0.00    +0.000 C 
BRANCH  26  29
ATOM     28  C   UNL     1     -36.115 107.451   8.331  0.00  0.00    +0.000 C 
ATOM     29  C   UNL     1     -36.340 107.880   9.431  0.00  0.00    +0.000 C 
BRANCH  28  30
ATOM     30  C   UNL     1     -35.829 106.909   6.925  0.00  0.00    +0.000 C 
BRANCH  30  31
ATOM     31  C   UNL     1     -35.584 106.452   5.737  0.00  0.00    +0.000 C 
ATOM     32  C   UNL     1     -34.399 106.957   4.973  0.00  0.00    +0.000 C 
BRANCH  31  34
ATOM     33  C   UNL     1     -37.104 104.581   4.710  0.00  0.00    +0.000 C 
ATOM     34  C   UNL     1     -36.408 105.440   5.184  0.00  0.00    +0.000 C 
BRANCH  33  36
ATOM     35  O   UNL     1     -38.087 102.444   5.083  0.00  0.00    +0.000 OA
ATOM     36  C   UNL     1     -37.942 103.539   4.134  0.00  0.00    +0.000 C 
ATOM     37  C   UNL     1     -39.280 103.176   4.810  0.00  0.00    +0.000 C 
ATOM     38  C   UNL     1     -37.740 103.134   2.631  0.00  0.00    +0.000 C 
ATOM     39  C   UNL     1     -40.214 102.418   4.041  0.00  0.00    +0.000 C 
ATOM     40  C   UNL     1     -38.889 102.309   2.251  0.00  0.00    +0.000 C 
ATOM     41  C   UNL     1     -40.139 101.887   2.743  0.00  0.00    +0.000 C 
ATOM     42  C   UNL     1     -39.837 103.905   6.036  0.00  0.00    +0.000 C 
ATOM     43  C   UNL     1     -36.388 102.388   2.565  0.00  0.00    +0.000 C 
ATOM     44  C   UNL     1     -37.726 104.466   1.838  0.00  0.00    +0.000 C 
BRANCH  41  45
ATOM     45  O   UNL     1     -41.224 101.782   1.926  0.00  0.00    +0.000 OA
ATOM     46  H   UNL     1     -41.206 102.431   1.199  0.00  0.00    +0.000 HD
ENDBRANCH  41  45
ENDBRANCH  33  36
ENDBRANCH  31  34
ENDBRANCH  30  31
ENDBRANCH  28  30
ENDBRANCH  26  29
ENDBRANCH  25  26
ENDBRANCH   1  25
TORSDOF 16
ENDMDL
MODEL 8
REMARK VINA RESULT:      -6.1     14.321     18.345
REMARK  Name = 448438_Violaxanthin.pdbqt.pdb
REMARK  16 active torsions:
REMARK  status: ('A' for Active; 'I' for Inactive)
REMARK    1  A    between atoms: C_1  and  C_5
REMARK    2  A    between atoms: C_2  and  C_27
REMARK    3  A    between atoms: C_3  and  C_5
REMARK    4  A    between atoms: C_3  and  C_7
REMARK    5  A    between atoms: C_6  and  C_10
REMARK    6  A    between atoms: C_8  and  C_10
REMARK    7  A    between atoms: C_8  and  C_12
REMARK    8  A    between atoms: C_11  and  C_14
REMARK    9  A    between atoms: C_19  and  O_23
REMARK   10  A    between atoms: C_25  and  C_27
REMARK   11  A    between atoms: C_25  and  C_29
REMARK   12  A    between atoms: C_28  and  C_32
REMARK   13  A    between atoms: C_30  and  C_32
REMARK   14  A    between atoms: C_30  and  C_34
REMARK   15  A    between atoms: C_33  and  C_36
REMARK   16  A    between atoms: C_41  and  O_45
REMARK                            x       y       z     vdW  Elec       q    Type
REMARK                         _______ _______ _______ _____ _____    ______ ____
ROOT
ATOM      1  C   UNL     1     -28.665 107.523   0.903  0.00  0.00    +0.000 C 
ATOM      2  C   UNL     1     -27.606 107.057   1.221  0.00  0.00    +0.000 C 
ENDROOT
BRANCH   2   3
ATOM      3  C   UNL     1     -26.251 106.465   1.627  0.00  0.00    +0.000 C 
BRANCH   3   4
ATOM      4  C   UNL     1     -25.106 105.967   1.971  0.00  0.00    +0.000 C 
ATOM      5  C   UNL     1     -23.842 106.701   1.635  0.00  0.00    +0.000 C 
BRANCH   4   7
ATOM      6  C   UNL     1     -24.993 103.628   3.136  0.00  0.00    +0.000 C 
ATOM      7  C   UNL     1     -25.045 104.702   2.601  0.00  0.00    +0.000 C 
BRANCH   6   8
ATOM      8  C   UNL     1     -24.925 102.256   3.820  0.00  0.00    +0.000 C 
BRANCH   8   9
ATOM      9  C   UNL     1     -24.864 101.098   4.400  0.00  0.00    +0.000 C 
ATOM     10  C   UNL     1     -25.967 100.104   4.200  0.00  0.00    +0.000 C 
BRANCH   9  12
ATOM     11  C   UNL     1     -22.717 100.419   5.738  0.00  0.00    +0.000 C 
ATOM     12  C   UNL     1     -23.700 100.730   5.120  0.00  0.00    +0.000 C 
BRANCH  11  14
ATOM     13  O   UNL     1     -21.398  98.602   6.517  0.00  0.00    +0.000 OA
ATOM     14  C   UNL     1     -21.538 100.051   6.507  0.00  0.00    +0.000 C 
ATOM     15  C   UNL     1     -20.378  99.307   5.811  0.00  0.00    +0.000 C 
ATOM     16  C   UNL     1     -21.233 100.789   7.853  0.00  0.00    +0.000 C 
ATOM     17  C   UNL     1     -19.128  99.273   6.497  0.00  0.00    +0.000 C 
ATOM     18  C   UNL     1     -19.870 100.418   8.261  0.00  0.00    +0.000 C 
ATOM     19  C   UNL     1     -18.731  99.763   7.753  0.00  0.00    +0.000 C 
ATOM     20  C   UNL     1     -20.359  99.008   4.309  0.00  0.00    +0.000 C 
ATOM     21  C   UNL     1     -21.303 102.302   7.534  0.00  0.00    +0.000 C 
ATOM     22  C   UNL     1     -22.311 100.335   8.860  0.00  0.00    +0.000 C 
BRANCH  19  23
ATOM     23  O   UNL     1     -17.864  99.075   8.546  0.00  0.00    +0.000 OA
ATOM     24  H   UNL     1     -17.475  99.629   9.247  0.00  0.00    +0.000 HD
ENDBRANCH  19  23
ENDBRANCH  11  14
ENDBRANCH   9  12
ENDBRANCH   8   9
ENDBRANCH   6   8
ENDBRANCH   4   7
ENDBRANCH   3   4
ENDBRANCH   2   3
BRANCH   1  25
ATOM     25  C   UNL     1     -30.020 108.116   0.497  0.00  0.00    +0.000 C 
BRANCH  25  26
ATOM     26  C   UNL     1     -31.164 108.617   0.153  0.00  0.00    +0.000 C 
ATOM     27  C   UNL     1     -31.330 110.105   0.062  0.00  0.00    +0.000 C 
BRANCH  26  29
ATOM     28  C   UNL     1     -33.163 107.033  -0.425  0.00  0.00    +0.000 C 
ATOM     29  C   UNL     1     -32.246 107.763  -0.159  0.00  0.00    +0.000 C 
BRANCH  28  30
ATOM     30  C   UNL     1     -34.330 106.096  -0.764  0.00  0.00    +0.000 C 
BRANCH  30  31
ATOM     31  C   UNL     1     -35.318 105.309  -1.053  0.00  0.00    +0.000 C 
ATOM     32  C   UNL     1     -35.495 104.816  -2.456  0.00  0.00    +0.000 C 
BRANCH  31  34
ATOM     33  C   UNL     1     -36.949 104.506   0.834  0.00  0.00    +0.000 C 
ATOM     34  C   UNL     1     -36.200 104.877  -0.031  0.00  0.00    +0.000 C 
BRANCH  33  36
ATOM     35  O   UNL     1     -38.918 105.026   2.069  0.00  0.00    +0.000 OA
ATOM     36  C   UNL     1     -37.853 104.050   1.879  0.00  0.00    +0.000 C 
ATOM     37  C   UNL     1     -39.332 103.768   1.540  0.00  0.00    +0.000 C 
ATOM     38  C   UNL     1     -37.260 103.408   3.184  0.00  0.00    +0.000 C 
ATOM     39  C   UNL     1     -40.083 103.006   2.484  0.00  0.00    +0.000 C 
ATOM     40  C   UNL     1     -38.374 102.781   3.899  0.00  0.00    +0.000 C 
ATOM     41  C   UNL     1     -39.736 102.465   3.733  0.00  0.00    +0.000 C 
ATOM     42  C   UNL     1     -39.911 103.867   0.126  0.00  0.00    +0.000 C 
ATOM     43  C   UNL     1     -36.588 104.561   3.963  0.00  0.00    +0.000 C 
ATOM     44  C   UNL     1     -36.242 102.343   2.698  0.00  0.00    +0.000 C 
BRANCH  41  45
ATOM     45  O   UNL     1     -40.253 101.294   4.199  0.00  0.00    +0.000 OA
ATOM     46  H   UNL     1     -40.627 100.743   3.487  0.00  0.00    +0.000 HD
ENDBRANCH  41  45
ENDBRANCH  33  36
ENDBRANCH  31  34
ENDBRANCH  30  31
ENDBRANCH  28  30
ENDBRANCH  26  29
ENDBRANCH  25  26
ENDBRANCH   1  25
TORSDOF 16
ENDMDL
MODEL 9
REMARK VINA RESULT:      -6.0     15.520     22.511
REMARK  Name = 448438_Violaxanthin.pdbqt.pdb
REMARK  16 active torsions:
REMARK  status: ('A' for Active; 'I' for Inactive)
REMARK    1  A    between atoms: C_1  and  C_5
REMARK    2  A    between atoms: C_2  and  C_27
REMARK    3  A    between atoms: C_3  and  C_5
REMARK    4  A    between atoms: C_3  and  C_7
REMARK    5  A    between atoms: C_6  and  C_10
REMARK    6  A    between atoms: C_8  and  C_10
REMARK    7  A    between atoms: C_8  and  C_12
REMARK    8  A    between atoms: C_11  and  C_14
REMARK    9  A    between atoms: C_19  and  O_23
REMARK   10  A    between atoms: C_25  and  C_27
REMARK   11  A    between atoms: C_25  and  C_29
REMARK   12  A    between atoms: C_28  and  C_32
REMARK   13  A    between atoms: C_30  and  C_32
REMARK   14  A    between atoms: C_30  and  C_34
REMARK   15  A    between atoms: C_33  and  C_36
REMARK   16  A    between atoms: C_41  and  O_45
REMARK                            x       y       z     vdW  Elec       q    Type
REMARK                         _______ _______ _______ _____ _____    ______ ____
ROOT
ATOM      1  C   UNL     1     -29.720  80.402   6.582  0.00  0.00    +0.000 C 
ATOM      2  C   UNL     1     -29.098  80.304   5.561  0.00  0.00    +0.000 C 
ENDROOT
BRANCH   2   3
ATOM      3  C   UNL     1     -28.306  80.179   4.254  0.00  0.00    +0.000 C 
BRANCH   3   4
ATOM      4  C   UNL     1     -27.638  80.072   3.149  0.00  0.00    +0.000 C 
ATOM      5  C   UNL     1     -28.232  79.332   1.988  0.00  0.00    +0.000 C 
BRANCH   4   7
ATOM      6  C   UNL     1     -25.211  81.033   2.988  0.00  0.00    +0.000 C 
ATOM      7  C   UNL     1     -26.326  80.592   3.061  0.00  0.00    +0.000 C 
BRANCH   6   8
ATOM      8  C   UNL     1     -23.788  81.598   2.895  0.00  0.00    +0.000 C 
BRANCH   8   9
ATOM      9  C   UNL     1     -22.586  82.079   2.815  0.00  0.00    +0.000 C 
ATOM     10  C   UNL     1     -21.552  81.371   1.994  0.00  0.00    +0.000 C 
BRANCH   9  12
ATOM     11  C   UNL     1     -22.038  84.396   3.907  0.00  0.00    +0.000 C 
ATOM     12  C   UNL     1     -22.288  83.334   3.401  0.00  0.00    +0.000 C 
BRANCH  11  14
ATOM     13  O   UNL     1     -20.926  85.452   5.722  0.00  0.00    +0.000 OA
ATOM     14  C   UNL     1     -21.745  85.673   4.540  0.00  0.00    +0.000 C 
ATOM     15  C   UNL     1     -20.281  86.147   4.655  0.00  0.00    +0.000 C 
ATOM     16  C   UNL     1     -22.877  86.748   4.668  0.00  0.00    +0.000 C 
ATOM     17  C   UNL     1     -20.069  87.524   4.960  0.00  0.00    +0.000 C 
ATOM     18  C   UNL     1     -22.242  88.007   5.082  0.00  0.00    +0.000 C 
ATOM     19  C   UNL     1     -20.961  88.575   5.232  0.00  0.00    +0.000 C 
ATOM     20  C   UNL     1     -19.104  85.375   4.050  0.00  0.00    +0.000 C 
ATOM     21  C   UNL     1     -23.485  86.895   3.252  0.00  0.00    +0.000 C 
ATOM     22  C   UNL     1     -23.885  86.207   5.704  0.00  0.00    +0.000 C 
BRANCH  19  23
ATOM     23  O   UNL     1     -20.683  89.523   6.168  0.00  0.00    +0.000 OA
ATOM     24  H   UNL     1     -21.480  89.988   6.482  0.00  0.00    +0.000 HD
ENDBRANCH  19  23
ENDBRANCH  11  14
ENDBRANCH   9  12
ENDBRANCH   8   9
ENDBRANCH   6   8
ENDBRANCH   4   7
ENDBRANCH   3   4
ENDBRANCH   2   3
BRANCH   1  25
ATOM     25  C   UNL     1     -30.513  80.527   7.889  0.00  0.00    +0.000 C 
BRANCH  25  26
ATOM     26  C   UNL     1     -31.183  80.632   8.993  0.00  0.00    +0.000 C 
ATOM     27  C   UNL     1     -32.666  80.407   8.989  0.00  0.00    +0.000 C 
BRANCH  26  29
ATOM     28  C   UNL     1     -29.949  81.189  11.230  0.00  0.00    +0.000 C 
ATOM     29  C   UNL     1     -30.514  80.932  10.202  0.00  0.00    +0.000 C 
BRANCH  28  30
ATOM     30  C   UNL     1     -29.231  81.522  12.544  0.00  0.00    +0.000 C 
BRANCH  30  31
ATOM     31  C   UNL     1     -28.625  81.808  13.653  0.00  0.00    +0.000 C 
ATOM     32  C   UNL     1     -28.284  80.717  14.622  0.00  0.00    +0.000 C 
BRANCH  31  34
ATOM     33  C   UNL     1     -27.918  84.279  14.163  0.00  0.00    +0.000 C 
ATOM     34  C   UNL     1     -28.243  83.145  13.926  0.00  0.00    +0.000 C 
BRANCH  33  36
ATOM     35  O   UNL     1     -26.070  85.751  14.460  0.00  0.00    +0.000 OA
ATOM     36  C   UNL     1     -27.523  85.649  14.455  0.00  0.00    +0.000 C 
ATOM     37  C   UNL     1     -26.726  86.453  13.406  0.00  0.00    +0.000 C 
ATOM     38  C   UNL     1     -28.279  86.446  15.577  0.00  0.00    +0.000 C 
ATOM     39  C   UNL     1     -26.664  87.868  13.580  0.00  0.00    +0.000 C 
ATOM     40  C   UNL     1     -27.889  87.851  15.443  0.00  0.00    +0.000 C 
ATOM     41  C   UNL     1     -27.182  88.709  14.579  0.00  0.00    +0.000 C 
ATOM     42  C   UNL     1     -26.377  85.919  12.015  0.00  0.00    +0.000 C 
ATOM     43  C   UNL     1     -27.855  85.806  16.918  0.00  0.00    +0.000 C 
ATOM     44  C   UNL     1     -29.789  86.258  15.277  0.00  0.00    +0.000 C 
BRANCH  41  45
ATOM     45  O   UNL     1     -27.617  89.975  14.325  0.00  0.00    +0.000 OA
ATOM     46  H   UNL     1     -28.588  90.031  14.272  0.00  0.00    +0.000 HD
ENDBRANCH  41  45
ENDBRANCH  33  36
ENDBRANCH  31  34
ENDBRANCH  30  31
ENDBRANCH  28  30
ENDBRANCH  26  29
ENDBRANCH  25  26
ENDBRANCH   1  25
TORSDOF 16
ENDMDL
