MODEL 1
REMARK VINA RESULT:      -8.2      0.000      0.000
REMARK  Name = 490561_Nocardiopsis.pdbqt.pdb
REMARK  3 active torsions:
REMARK  status: ('A' for Active; 'I' for Inactive)
REMARK    1  A    between atoms: C_7  and  O_32
REMARK    2  A    between atoms: C_7  and  C_35
REMARK    3  A    between atoms: C_35  and  O_36
REMARK                            x       y       z     vdW  Elec       q    Type
REMARK                         _______ _______ _______ _____ _____    ______ ____
ROOT
ATOM      1  O   UNL     1     -35.333  96.132  17.691  0.00  0.00    +0.000 OA
ATOM      2  O   UNL     1     -33.780 101.712  12.876  0.00  0.00    +0.000 OA
ATOM      3  N   UNL     1     -33.304  97.315  17.962  0.00  0.00    +0.000 N 
ATOM      4  N   UNL     1     -35.866  98.143  16.637  0.00  0.00    +0.000 N 
ATOM      5  N   UNL     1     -31.685 101.248  13.764  0.00  0.00    +0.000 N 
ATOM      6  C   UNL     1     -34.302  96.492  18.676  0.00  0.00    +0.000 C 
ATOM      7  C   UNL     1     -35.099  97.298  19.791  0.00  0.00    +0.000 C 
ATOM      8  C   UNL     1     -36.179  97.253  17.650  0.00  0.00    +0.000 C 
ATOM      9  C   UNL     1     -36.208  97.772  18.967  0.00  0.00    +0.000 C 
ATOM     10  C   UNL     1     -33.436  98.151  16.882  0.00  0.00    +0.000 A 
ATOM     11  C   UNL     1     -34.620  98.530  16.249  0.00  0.00    +0.000 A 
ATOM     12  C   UNL     1     -32.301  98.787  16.370  0.00  0.00    +0.000 A 
ATOM     13  C   UNL     1     -34.481  99.473  15.225  0.00  0.00    +0.000 A 
ATOM     14  C   UNL     1     -33.705  95.130  19.162  0.00  0.00    +0.000 C 
ATOM     15  C   UNL     1     -31.924  97.491  18.232  0.00  0.00    +0.000 A 
ATOM     16  C   UNL     1     -36.654  98.962  15.806  0.00  0.00    +0.000 A 
ATOM     17  C   UNL     1     -31.298  98.354  17.257  0.00  0.00    +0.000 A 
ATOM     18  C   UNL     1     -32.134  99.714  15.334  0.00  0.00    +0.000 A 
ATOM     19  C   UNL     1     -33.343 100.108  14.686  0.00  0.00    +0.000 A 
ATOM     20  C   UNL     1     -35.831  99.757  14.922  0.00  0.00    +0.000 A 
ATOM     21  C   UNL     1     -31.050 100.500  14.691  0.00  0.00    +0.000 C 
ATOM     22  C   UNL     1     -31.160  96.955  19.283  0.00  0.00    +0.000 A 
ATOM     23  C   UNL     1     -33.077 101.100  13.666  0.00  0.00    +0.000 C 
ATOM     24  C   UNL     1     -38.053  99.049  15.759  0.00  0.00    +0.000 A 
ATOM     25  C   UNL     1     -29.920  98.622  17.382  0.00  0.00    +0.000 A 
ATOM     26  C   UNL     1     -36.481 100.626  14.024  0.00  0.00    +0.000 A 
ATOM     27  C   UNL     1     -29.799  97.248  19.363  0.00  0.00    +0.000 A 
ATOM     28  C   UNL     1     -29.184  98.063  18.426  0.00  0.00    +0.000 A 
ATOM     29  C   UNL     1     -38.642  99.921  14.845  0.00  0.00    +0.000 A 
ATOM     30  C   UNL     1     -37.872 100.697  13.990  0.00  0.00    +0.000 A 
ATOM     31  H   UNL     1     -31.199 101.894  13.160  0.00  0.00    +0.000 HD
ENDROOT
BRANCH   7  32
ATOM     32  O   UNL     1     -34.403  98.432  20.329  0.00  0.00    +0.000 OA
ATOM     33  H   UNL     1     -33.590  98.094  20.765  0.00  0.00    +0.000 HD
ENDBRANCH   7  32
BRANCH   7  35
ATOM     34  O   UNL     1     -36.610  95.716  20.779  0.00  0.00    +0.000 OA
ATOM     35  C   UNL     1     -35.583  96.385  20.915  0.00  0.00    +0.000 C 
BRANCH  35  36
ATOM     36  O   UNL     1     -34.724  96.393  21.979  0.00  0.00    +0.000 OA
ATOM     37  C   UNL     1     -35.279  96.480  23.263  0.00  0.00    +0.000 C 
ENDBRANCH  35  36
ENDBRANCH   7  35
TORSDOF 3
ENDMDL
MODEL 2
REMARK VINA RESULT:      -7.7      2.094      6.173
REMARK  Name = 490561_Nocardiopsis.pdbqt.pdb
REMARK  3 active torsions:
REMARK  status: ('A' for Active; 'I' for Inactive)
REMARK    1  A    between atoms: C_7  and  O_32
REMARK    2  A    between atoms: C_7  and  C_35
REMARK    3  A    between atoms: C_35  and  O_36
REMARK                            x       y       z     vdW  Elec       q    Type
REMARK                         _______ _______ _______ _____ _____    ______ ____
ROOT
ATOM      1  O   UNL     1     -36.832 101.112  16.676  0.00  0.00    +0.000 OA
ATOM      2  O   UNL     1     -33.447  95.823  20.835  0.00  0.00    +0.000 OA
ATOM      3  N   UNL     1     -34.795 100.203  15.893  0.00  0.00    +0.000 N 
ATOM      4  N   UNL     1     -36.829  99.056  17.779  0.00  0.00    +0.000 N 
ATOM      5  N   UNL     1     -31.709  96.550  19.476  0.00  0.00    +0.000 N 
ATOM      6  C   UNL     1     -36.035 100.882  15.462  0.00  0.00    +0.000 C 
ATOM      7  C   UNL     1     -36.968  99.969  14.555  0.00  0.00    +0.000 C 
ATOM      8  C   UNL     1     -37.491  99.889  16.894  0.00  0.00    +0.000 C 
ATOM      9  C   UNL     1     -37.773  99.361  15.611  0.00  0.00    +0.000 C 
ATOM     10  C   UNL     1     -34.551  99.366  16.952  0.00  0.00    +0.000 A 
ATOM     11  C   UNL     1     -35.486  98.840  17.844  0.00  0.00    +0.000 A 
ATOM     12  C   UNL     1     -33.254  98.888  17.158  0.00  0.00    +0.000 A 
ATOM     13  C   UNL     1     -34.981  97.931  18.780  0.00  0.00    +0.000 A 
ATOM     14  C   UNL     1     -35.755 102.306  14.879  0.00  0.00    +0.000 C 
ATOM     15  C   UNL     1     -33.512 100.208  15.292  0.00  0.00    +0.000 A 
ATOM     16  C   UNL     1     -37.278  98.148  18.756  0.00  0.00    +0.000 A 
ATOM     17  C   UNL     1     -32.561  99.441  16.065  0.00  0.00    +0.000 A 
ATOM     18  C   UNL     1     -32.721  97.999  18.100  0.00  0.00    +0.000 A 
ATOM     19  C   UNL     1     -33.674  97.455  19.012  0.00  0.00    +0.000 A 
ATOM     20  C   UNL     1     -36.169  97.475  19.395  0.00  0.00    +0.000 A 
ATOM     21  C   UNL     1     -31.421  97.367  18.442  0.00  0.00    +0.000 C 
ATOM     22  C   UNL     1     -33.103 100.831  14.100  0.00  0.00    +0.000 A 
ATOM     23  C   UNL     1     -33.042  96.515  19.912  0.00  0.00    +0.000 C 
ATOM     24  C   UNL     1     -38.600  97.878  19.139  0.00  0.00    +0.000 A 
ATOM     25  C   UNL     1     -31.232  99.356  15.604  0.00  0.00    +0.000 A 
ATOM     26  C   UNL     1     -36.462  96.535  20.403  0.00  0.00    +0.000 A 
ATOM     27  C   UNL     1     -31.776 100.718  13.686  0.00  0.00    +0.000 A 
ATOM     28  C   UNL     1     -30.851  99.998  14.426  0.00  0.00    +0.000 A 
ATOM     29  C   UNL     1     -38.830  96.943  20.148  0.00  0.00    +0.000 A 
ATOM     30  C   UNL     1     -37.782  96.282  20.771  0.00  0.00    +0.000 A 
ATOM     31  H   UNL     1     -31.011  95.979  19.929  0.00  0.00    +0.000 HD
ENDROOT
BRANCH   7  32
ATOM     32  O   UNL     1     -36.284  98.932  13.836  0.00  0.00    +0.000 OA
ATOM     33  H   UNL     1     -35.941  99.330  13.006  0.00  0.00    +0.000 HD
ENDBRANCH   7  32
BRANCH   7  35
ATOM     34  O   UNL     1     -37.484 100.958  12.429  0.00  0.00    +0.000 OA
ATOM     35  C   UNL     1     -37.825 100.802  13.604  0.00  0.00    +0.000 C 
BRANCH  35  36
ATOM     36  O   UNL     1     -38.963 101.254  14.212  0.00  0.00    +0.000 OA
ATOM     37  C   UNL     1     -39.542 102.432  13.719  0.00  0.00    +0.000 C 
ENDBRANCH  35  36
ENDBRANCH   7  35
TORSDOF 3
ENDMDL
MODEL 3
REMARK VINA RESULT:      -7.4      1.882      2.852
REMARK  Name = 490561_Nocardiopsis.pdbqt.pdb
REMARK  3 active torsions:
REMARK  status: ('A' for Active; 'I' for Inactive)
REMARK    1  A    between atoms: C_7  and  O_32
REMARK    2  A    between atoms: C_7  and  C_35
REMARK    3  A    between atoms: C_35  and  O_36
REMARK                            x       y       z     vdW  Elec       q    Type
REMARK                         _______ _______ _______ _____ _____    ______ ____
ROOT
ATOM      1  O   UNL     1     -34.256  96.858  18.641  0.00  0.00    +0.000 OA
ATOM      2  O   UNL     1     -37.671 101.006  13.362  0.00  0.00    +0.000 OA
ATOM      3  N   UNL     1     -32.953  98.399  17.409  0.00  0.00    +0.000 N 
ATOM      4  N   UNL     1     -35.904  98.361  17.957  0.00  0.00    +0.000 N 
ATOM      5  N   UNL     1     -35.440 101.182  12.741  0.00  0.00    +0.000 N 
ATOM      6  C   UNL     1     -33.021  97.656  18.684  0.00  0.00    +0.000 C 
ATOM      7  C   UNL     1     -33.216  98.599  19.949  0.00  0.00    +0.000 C 
ATOM      8  C   UNL     1     -35.264  97.758  19.026  0.00  0.00    +0.000 C 
ATOM      9  C   UNL     1     -34.676  98.619  19.985  0.00  0.00    +0.000 C 
ATOM     10  C   UNL     1     -33.947  98.855  16.580  0.00  0.00    +0.000 A 
ATOM     11  C   UNL     1     -35.321  98.828  16.818  0.00  0.00    +0.000 A 
ATOM     12  C   UNL     1     -33.599  99.502  15.391  0.00  0.00    +0.000 A 
ATOM     13  C   UNL     1     -36.114  99.448  15.846  0.00  0.00    +0.000 A 
ATOM     14  C   UNL     1     -31.863  96.614  18.823  0.00  0.00    +0.000 C 
ATOM     15  C   UNL     1     -31.819  98.878  16.707  0.00  0.00    +0.000 A 
ATOM     16  C   UNL     1     -37.236  98.759  17.741  0.00  0.00    +0.000 A 
ATOM     17  C   UNL     1     -32.195  99.520  15.468  0.00  0.00    +0.000 A 
ATOM     18  C   UNL     1     -34.374 100.108  14.393  0.00  0.00    +0.000 A 
ATOM     19  C   UNL     1     -35.780 100.087  14.634  0.00  0.00    +0.000 A 
ATOM     20  C   UNL     1     -37.389  99.397  16.452  0.00  0.00    +0.000 A 
ATOM     21  C   UNL     1     -34.188 100.851  13.121  0.00  0.00    +0.000 C 
ATOM     22  C   UNL     1     -30.464  98.805  17.073  0.00  0.00    +0.000 A 
ATOM     23  C   UNL     1     -36.490 100.775  13.578  0.00  0.00    +0.000 C 
ATOM     24  C   UNL     1     -38.336  98.588  18.595  0.00  0.00    +0.000 A 
ATOM     25  C   UNL     1     -31.176 100.045  14.646  0.00  0.00    +0.000 A 
ATOM     26  C   UNL     1     -38.674  99.848  16.090  0.00  0.00    +0.000 A 
ATOM     27  C   UNL     1     -29.493  99.337  16.225  0.00  0.00    +0.000 A 
ATOM     28  C   UNL     1     -29.839  99.942  15.028  0.00  0.00    +0.000 A 
ATOM     29  C   UNL     1     -39.585  99.048  18.180  0.00  0.00    +0.000 A 
ATOM     30  C   UNL     1     -39.755  99.667  16.951  0.00  0.00    +0.000 A 
ATOM     31  H   UNL     1     -35.633 101.701  11.898  0.00  0.00    +0.000 HD
ENDROOT
BRANCH   7  32
ATOM     32  O   UNL     1     -32.736  99.941  19.782  0.00  0.00    +0.000 OA
ATOM     33  H   UNL     1     -33.509 100.540  19.871  0.00  0.00    +0.000 HD
ENDBRANCH   7  32
BRANCH   7  35
ATOM     34  O   UNL     1     -33.249  97.099  21.824  0.00  0.00    +0.000 OA
ATOM     35  C   UNL     1     -32.632  97.977  21.216  0.00  0.00    +0.000 C 
BRANCH  35  36
ATOM     36  O   UNL     1     -31.391  98.477  21.499  0.00  0.00    +0.000 OA
ATOM     37  C   UNL     1     -31.176  98.998  22.782  0.00  0.00    +0.000 C 
ENDBRANCH  35  36
ENDBRANCH   7  35
TORSDOF 3
ENDMDL
MODEL 4
REMARK VINA RESULT:      -7.2     15.383     18.438
REMARK  Name = 490561_Nocardiopsis.pdbqt.pdb
REMARK  3 active torsions:
REMARK  status: ('A' for Active; 'I' for Inactive)
REMARK    1  A    between atoms: C_7  and  O_32
REMARK    2  A    between atoms: C_7  and  C_35
REMARK    3  A    between atoms: C_35  and  O_36
REMARK                            x       y       z     vdW  Elec       q    Type
REMARK                         _______ _______ _______ _____ _____    ______ ____
ROOT
ATOM      1  O   UNL     1     -24.016 101.708   3.402  0.00  0.00    +0.000 OA
ATOM      2  O   UNL     1     -20.567  99.508   9.727  0.00  0.00    +0.000 OA
ATOM      3  N   UNL     1     -23.442 103.355   4.998  0.00  0.00    +0.000 N 
ATOM      4  N   UNL     1     -22.279 100.629   4.526  0.00  0.00    +0.000 N 
ATOM      5  N   UNL     1     -21.371 101.603  10.323  0.00  0.00    +0.000 N 
ATOM      6  C   UNL     1     -23.727 103.141   3.564  0.00  0.00    +0.000 C 
ATOM      7  C   UNL     1     -22.466 103.389   2.630  0.00  0.00    +0.000 C 
ATOM      8  C   UNL     1     -22.747 101.108   3.315  0.00  0.00    +0.000 C 
ATOM      9  C   UNL     1     -21.921 102.034   2.634  0.00  0.00    +0.000 C 
ATOM     10  C   UNL     1     -22.913 102.515   5.945  0.00  0.00    +0.000 A 
ATOM     11  C   UNL     1     -22.385 101.240   5.739  0.00  0.00    +0.000 A 
ATOM     12  C   UNL     1     -22.788 102.964   7.262  0.00  0.00    +0.000 A 
ATOM     13  C   UNL     1     -21.820 100.632   6.866  0.00  0.00    +0.000 A 
ATOM     14  C   UNL     1     -25.029 103.877   3.106  0.00  0.00    +0.000 C 
ATOM     15  C   UNL     1     -23.610 104.523   5.784  0.00  0.00    +0.000 A 
ATOM     16  C   UNL     1     -21.512  99.503   4.878  0.00  0.00    +0.000 A 
ATOM     17  C   UNL     1     -23.247 104.290   7.164  0.00  0.00    +0.000 A 
ATOM     18  C   UNL     1     -22.249 102.367   8.409  0.00  0.00    +0.000 A 
ATOM     19  C   UNL     1     -21.704 101.064   8.203  0.00  0.00    +0.000 A 
ATOM     20  C   UNL     1     -21.246  99.473   6.299  0.00  0.00    +0.000 A 
ATOM     21  C   UNL     1     -22.005 102.691   9.838  0.00  0.00    +0.000 C 
ATOM     22  C   UNL     1     -24.054 105.794   5.383  0.00  0.00    +0.000 A 
ATOM     23  C   UNL     1     -21.131 100.550   9.428  0.00  0.00    +0.000 C 
ATOM     24  C   UNL     1     -21.039  98.486   4.035  0.00  0.00    +0.000 A 
ATOM     25  C   UNL     1     -23.368 105.355   8.080  0.00  0.00    +0.000 A 
ATOM     26  C   UNL     1     -20.489  98.397   6.803  0.00  0.00    +0.000 A 
ATOM     27  C   UNL     1     -24.157 106.816   6.327  0.00  0.00    +0.000 A 
ATOM     28  C   UNL     1     -23.827 106.602   7.656  0.00  0.00    +0.000 A 
ATOM     29  C   UNL     1     -20.301  97.442   4.591  0.00  0.00    +0.000 A 
ATOM     30  C   UNL     1     -20.029  97.395   5.950  0.00  0.00    +0.000 A 
ATOM     31  H   UNL     1     -21.074 101.531  11.285  0.00  0.00    +0.000 HD
ENDROOT
BRANCH   7  32
ATOM     32  O   UNL     1     -21.483 104.286   3.168  0.00  0.00    +0.000 OA
ATOM     33  H   UNL     1     -21.449 105.070   2.576  0.00  0.00    +0.000 HD
ENDBRANCH   7  32
BRANCH   7  35
ATOM     34  O   UNL     1     -22.827 105.014   0.901  0.00  0.00    +0.000 OA
ATOM     35  C   UNL     1     -22.876 103.826   1.225  0.00  0.00    +0.000 C 
BRANCH  35  36
ATOM     36  O   UNL     1     -23.221 102.758   0.444  0.00  0.00    +0.000 OA
ATOM     37  C   UNL     1     -23.604 103.017  -0.880  0.00  0.00    +0.000 C 
ENDBRANCH  35  36
ENDBRANCH   7  35
TORSDOF 3
ENDMDL
MODEL 5
REMARK VINA RESULT:      -7.1      2.579      5.513
REMARK  Name = 490561_Nocardiopsis.pdbqt.pdb
REMARK  3 active torsions:
REMARK  status: ('A' for Active; 'I' for Inactive)
REMARK    1  A    between atoms: C_7  and  O_32
REMARK    2  A    between atoms: C_7  and  C_35
REMARK    3  A    between atoms: C_35  and  O_36
REMARK                            x       y       z     vdW  Elec       q    Type
REMARK                         _______ _______ _______ _____ _____    ______ ____
ROOT
ATOM      1  O   UNL     1     -32.722 100.787  16.785  0.00  0.00    +0.000 OA
ATOM      2  O   UNL     1     -40.036  99.022  17.128  0.00  0.00    +0.000 OA
ATOM      3  N   UNL     1     -33.458  99.395  18.549  0.00  0.00    +0.000 N 
ATOM      4  N   UNL     1     -34.667  99.903  15.850  0.00  0.00    +0.000 N 
ATOM      5  N   UNL     1     -39.328  98.554  19.290  0.00  0.00    +0.000 N 
ATOM      6  C   UNL     1     -32.275  99.765  17.744  0.00  0.00    +0.000 C 
ATOM      7  C   UNL     1     -31.745  98.580  16.827  0.00  0.00    +0.000 C 
ATOM      8  C   UNL     1     -33.296 100.049  15.735  0.00  0.00    +0.000 C 
ATOM      9  C   UNL     1     -32.536  98.858  15.631  0.00  0.00    +0.000 C 
ATOM     10  C   UNL     1     -34.794  99.398  18.236  0.00  0.00    +0.000 A 
ATOM     11  C   UNL     1     -35.367  99.648  16.990  0.00  0.00    +0.000 A 
ATOM     12  C   UNL     1     -35.723  99.035  19.215  0.00  0.00    +0.000 A 
ATOM     13  C   UNL     1     -36.756  99.493  16.923  0.00  0.00    +0.000 A 
ATOM     14  C   UNL     1     -31.171 100.464  18.605  0.00  0.00    +0.000 C 
ATOM     15  C   UNL     1     -33.524  98.894  19.873  0.00  0.00    +0.000 A 
ATOM     16  C   UNL     1     -35.707  99.867  14.902  0.00  0.00    +0.000 A 
ATOM     17  C   UNL     1     -34.892  98.702  20.300  0.00  0.00    +0.000 A 
ATOM     18  C   UNL     1     -37.117  98.896  19.178  0.00  0.00    +0.000 A 
ATOM     19  C   UNL     1     -37.708  99.147  17.904  0.00  0.00    +0.000 A 
ATOM     20  C   UNL     1     -36.987  99.646  15.537  0.00  0.00    +0.000 A 
ATOM     21  C   UNL     1     -38.232  98.500  20.076  0.00  0.00    +0.000 C 
ATOM     22  C   UNL     1     -32.469  98.580  20.747  0.00  0.00    +0.000 A 
ATOM     23  C   UNL     1     -39.138  98.933  17.952  0.00  0.00    +0.000 C 
ATOM     24  C   UNL     1     -35.612 100.030  13.512  0.00  0.00    +0.000 A 
ATOM     25  C   UNL     1     -35.128  98.216  21.601  0.00  0.00    +0.000 A 
ATOM     26  C   UNL     1     -38.129  99.589  14.714  0.00  0.00    +0.000 A 
ATOM     27  C   UNL     1     -32.754  98.103  22.026  0.00  0.00    +0.000 A 
ATOM     28  C   UNL     1     -34.061  97.928  22.452  0.00  0.00    +0.000 A 
ATOM     29  C   UNL     1     -36.777  99.972  12.747  0.00  0.00    +0.000 A 
ATOM     30  C   UNL     1     -38.015  99.756  13.334  0.00  0.00    +0.000 A 
ATOM     31  H   UNL     1     -40.252  98.334  19.630  0.00  0.00    +0.000 HD
ENDROOT
BRANCH   7  32
ATOM     32  O   UNL     1     -32.063  97.263  17.298  0.00  0.00    +0.000 OA
ATOM     33  H   UNL     1     -32.947  97.030  16.939  0.00  0.00    +0.000 HD
ENDBRANCH   7  32
BRANCH   7  35
ATOM     34  O   UNL     1     -29.427  98.218  17.334  0.00  0.00    +0.000 OA
ATOM     35  C   UNL     1     -30.247  98.702  16.552  0.00  0.00    +0.000 C 
BRANCH  35  36
ATOM     36  O   UNL     1     -30.001  99.333  15.364  0.00  0.00    +0.000 OA
ATOM     37  C   UNL     1     -29.227 100.502  15.396  0.00  0.00    +0.000 C 
ENDBRANCH  35  36
ENDBRANCH   7  35
TORSDOF 3
ENDMDL
MODEL 6
REMARK VINA RESULT:      -7.0     10.548     13.227
REMARK  Name = 490561_Nocardiopsis.pdbqt.pdb
REMARK  3 active torsions:
REMARK  status: ('A' for Active; 'I' for Inactive)
REMARK    1  A    between atoms: C_7  and  O_32
REMARK    2  A    between atoms: C_7  and  C_35
REMARK    3  A    between atoms: C_35  and  O_36
REMARK                            x       y       z     vdW  Elec       q    Type
REMARK                         _______ _______ _______ _____ _____    ______ ____
ROOT
ATOM      1  O   UNL     1     -30.903  84.041  17.654  0.00  0.00    +0.000 OA
ATOM      2  O   UNL     1     -27.526  89.770  14.117  0.00  0.00    +0.000 OA
ATOM      3  N   UNL     1     -31.766  86.220  17.971  0.00  0.00    +0.000 N 
ATOM      4  N   UNL     1     -30.132  85.093  15.720  0.00  0.00    +0.000 N 
ATOM      5  N   UNL     1     -28.711  90.868  15.786  0.00  0.00    +0.000 N 
ATOM      6  C   UNL     1     -32.118  84.786  18.021  0.00  0.00    +0.000 C 
ATOM      7  C   UNL     1     -33.178  84.361  16.915  0.00  0.00    +0.000 C 
ATOM      8  C   UNL     1     -30.894  84.065  16.249  0.00  0.00    +0.000 C 
ATOM      9  C   UNL     1     -32.250  84.006  15.846  0.00  0.00    +0.000 C 
ATOM     10  C   UNL     1     -30.842  86.893  17.211  0.00  0.00    +0.000 A 
ATOM     11  C   UNL     1     -30.067  86.375  16.174  0.00  0.00    +0.000 A 
ATOM     12  C   UNL     1     -30.680  88.268  17.397  0.00  0.00    +0.000 A 
ATOM     13  C   UNL     1     -29.269  87.304  15.496  0.00  0.00    +0.000 A 
ATOM     14  C   UNL     1     -32.467  84.314  19.471  0.00  0.00    +0.000 C 
ATOM     15  C   UNL     1     -32.326  87.309  18.685  0.00  0.00    +0.000 A 
ATOM     16  C   UNL     1     -29.318  85.189  14.576  0.00  0.00    +0.000 A 
ATOM     17  C   UNL     1     -31.656  88.550  18.370  0.00  0.00    +0.000 A 
ATOM     18  C   UNL     1     -29.872  89.212  16.748  0.00  0.00    +0.000 A 
ATOM     19  C   UNL     1     -29.080  88.688  15.684  0.00  0.00    +0.000 A 
ATOM     20  C   UNL     1     -28.763  86.517  14.438  0.00  0.00    +0.000 A 
ATOM     21  C   UNL     1     -29.599  90.672  16.782  0.00  0.00    +0.000 C 
ATOM     22  C   UNL     1     -33.396  87.304  19.596  0.00  0.00    +0.000 A 
ATOM     23  C   UNL     1     -28.320  89.741  15.047  0.00  0.00    +0.000 C 
ATOM     24  C   UNL     1     -29.015  84.182  13.647  0.00  0.00    +0.000 A 
ATOM     25  C   UNL     1     -32.091  89.730  19.007  0.00  0.00    +0.000 A 
ATOM     26  C   UNL     1     -27.920  86.766  13.337  0.00  0.00    +0.000 A 
ATOM     27  C   UNL     1     -33.788  88.497  20.201  0.00  0.00    +0.000 A 
ATOM     28  C   UNL     1     -33.145  89.691  19.919  0.00  0.00    +0.000 A 
ATOM     29  C   UNL     1     -28.169  84.484  12.581  0.00  0.00    +0.000 A 
ATOM     30  C   UNL     1     -27.629  85.752  12.425  0.00  0.00    +0.000 A 
ATOM     31  H   UNL     1     -28.334  91.778  15.564  0.00  0.00    +0.000 HD
ENDROOT
BRANCH   7  32
ATOM     32  O   UNL     1     -34.031  85.421  16.458  0.00  0.00    +0.000 OA
ATOM     33  H   UNL     1     -33.602  85.821  15.670  0.00  0.00    +0.000 HD
ENDBRANCH   7  32
BRANCH   7  35
ATOM     34  O   UNL     1     -35.138  83.322  17.834  0.00  0.00    +0.000 OA
ATOM     35  C   UNL     1     -34.011  83.160  17.359  0.00  0.00    +0.000 C 
BRANCH  35  36
ATOM     36  O   UNL     1     -33.371  81.979  17.106  0.00  0.00    +0.000 OA
ATOM     37  C   UNL     1     -34.089  80.792  17.310  0.00  0.00    +0.000 C 
ENDBRANCH  35  36
ENDBRANCH   7  35
TORSDOF 3
ENDMDL
MODEL 7
REMARK VINA RESULT:      -6.9     11.525     14.268
REMARK  Name = 490561_Nocardiopsis.pdbqt.pdb
REMARK  3 active torsions:
REMARK  status: ('A' for Active; 'I' for Inactive)
REMARK    1  A    between atoms: C_7  and  O_32
REMARK    2  A    between atoms: C_7  and  C_35
REMARK    3  A    between atoms: C_35  and  O_36
REMARK                            x       y       z     vdW  Elec       q    Type
REMARK                         _______ _______ _______ _____ _____    ______ ____
ROOT
ATOM      1  O   UNL     1     -39.950  86.920  19.849  0.00  0.00    +0.000 OA
ATOM      2  O   UNL     1     -38.939  80.884  15.458  0.00  0.00    +0.000 OA
ATOM      3  N   UNL     1     -38.038  86.852  18.459  0.00  0.00    +0.000 N 
ATOM      4  N   UNL     1     -40.672  85.435  18.201  0.00  0.00    +0.000 N 
ATOM      5  N   UNL     1     -36.807  81.803  15.509  0.00  0.00    +0.000 N 
ATOM      6  C   UNL     1     -38.953  87.766  19.174  0.00  0.00    +0.000 C 
ATOM      7  C   UNL     1     -39.817  88.678  18.201  0.00  0.00    +0.000 C 
ATOM      8  C   UNL     1     -40.897  86.637  18.849  0.00  0.00    +0.000 C 
ATOM      9  C   UNL     1     -40.969  87.795  18.037  0.00  0.00    +0.000 C 
ATOM     10  C   UNL     1     -38.251  85.608  17.920  0.00  0.00    +0.000 A 
ATOM     11  C   UNL     1     -39.467  84.934  17.809  0.00  0.00    +0.000 A 
ATOM     12  C   UNL     1     -37.182  84.932  17.325  0.00  0.00    +0.000 A 
ATOM     13  C   UNL     1     -39.420  83.713  17.128  0.00  0.00    +0.000 A 
ATOM     14  C   UNL     1     -38.231  88.544  20.323  0.00  0.00    +0.000 C 
ATOM     15  C   UNL     1     -36.679  87.037  18.102  0.00  0.00    +0.000 A 
ATOM     16  C   UNL     1     -41.535  84.454  17.678  0.00  0.00    +0.000 A 
ATOM     17  C   UNL     1     -36.140  85.870  17.443  0.00  0.00    +0.000 A 
ATOM     18  C   UNL     1     -37.106  83.701  16.659  0.00  0.00    +0.000 A 
ATOM     19  C   UNL     1     -38.348  83.010  16.540  0.00  0.00    +0.000 A 
ATOM     20  C   UNL     1     -40.792  83.386  17.045  0.00  0.00    +0.000 A 
ATOM     21  C   UNL     1     -36.102  82.864  15.955  0.00  0.00    +0.000 C 
ATOM     22  C   UNL     1     -35.866  88.165  18.303  0.00  0.00    +0.000 A 
ATOM     23  C   UNL     1     -38.179  81.779  15.800  0.00  0.00    +0.000 C 
ATOM     24  C   UNL     1     -42.936  84.424  17.729  0.00  0.00    +0.000 A 
ATOM     25  C   UNL     1     -34.792  85.892  17.031  0.00  0.00    +0.000 A 
ATOM     26  C   UNL     1     -41.523  82.325  16.476  0.00  0.00    +0.000 A 
ATOM     27  C   UNL     1     -34.537  88.138  17.879  0.00  0.00    +0.000 A 
ATOM     28  C   UNL     1     -34.004  87.019  17.259  0.00  0.00    +0.000 A 
ATOM     29  C   UNL     1     -43.606  83.344  17.155  0.00  0.00    +0.000 A 
ATOM     30  C   UNL     1     -42.915  82.311  16.539  0.00  0.00    +0.000 A 
ATOM     31  H   UNL     1     -36.384  81.051  14.985  0.00  0.00    +0.000 HD
ENDROOT
BRANCH   7  32
ATOM     32  O   UNL     1     -39.227  88.915  16.914  0.00  0.00    +0.000 OA
ATOM     33  H   UNL     1     -39.961  88.975  16.264  0.00  0.00    +0.000 HD
ENDBRANCH   7  32
BRANCH   7  35
ATOM     34  O   UNL     1     -39.548  91.019  18.659  0.00  0.00    +0.000 OA
ATOM     35  C   UNL     1     -40.210  89.998  18.860  0.00  0.00    +0.000 C 
BRANCH  35  36
ATOM     36  O   UNL     1     -41.355  89.875  19.597  0.00  0.00    +0.000 OA
ATOM     37  C   UNL     1     -41.374  90.456  20.873  0.00  0.00    +0.000 C 
ENDBRANCH  35  36
ENDBRANCH   7  35
TORSDOF 3
ENDMDL
MODEL 8
REMARK VINA RESULT:      -6.5     11.562     14.729
REMARK  Name = 490561_Nocardiopsis.pdbqt.pdb
REMARK  3 active torsions:
REMARK  status: ('A' for Active; 'I' for Inactive)
REMARK    1  A    between atoms: C_7  and  O_32
REMARK    2  A    between atoms: C_7  and  C_35
REMARK    3  A    between atoms: C_35  and  O_36
REMARK                            x       y       z     vdW  Elec       q    Type
REMARK                         _______ _______ _______ _____ _____    ______ ____
ROOT
ATOM      1  O   UNL     1     -27.465  86.020  15.594  0.00  0.00    +0.000 OA
ATOM      2  O   UNL     1     -34.004  87.782  18.890  0.00  0.00    +0.000 OA
ATOM      3  N   UNL     1     -29.320  84.599  15.235  0.00  0.00    +0.000 N 
ATOM      4  N   UNL     1     -29.222  87.496  16.012  0.00  0.00    +0.000 N 
ATOM      5  N   UNL     1     -34.312  85.536  18.386  0.00  0.00    +0.000 N 
ATOM      6  C   UNL     1     -28.028  85.029  14.664  0.00  0.00    +0.000 C 
ATOM      7  C   UNL     1     -28.180  85.826  13.297  0.00  0.00    +0.000 C 
ATOM      8  C   UNL     1     -28.103  87.223  15.245  0.00  0.00    +0.000 C 
ATOM      9  C   UNL     1     -28.288  87.177  13.842  0.00  0.00    +0.000 C 
ATOM     10  C   UNL     1     -30.215  85.264  16.035  0.00  0.00    +0.000 A 
ATOM     11  C   UNL     1     -30.171  86.606  16.414  0.00  0.00    +0.000 A 
ATOM     12  C   UNL     1     -31.361  84.597  16.477  0.00  0.00    +0.000 A 
ATOM     13  C   UNL     1     -31.265  87.058  17.160  0.00  0.00    +0.000 A 
ATOM     14  C   UNL     1     -26.984  83.865  14.623  0.00  0.00    +0.000 C 
ATOM     15  C   UNL     1     -30.010  83.371  15.077  0.00  0.00    +0.000 A 
ATOM     16  C   UNL     1     -29.773  88.692  16.507  0.00  0.00    +0.000 A 
ATOM     17  C   UNL     1     -31.232  83.345  15.848  0.00  0.00    +0.000 A 
ATOM     18  C   UNL     1     -32.456  85.021  17.241  0.00  0.00    +0.000 A 
ATOM     19  C   UNL     1     -32.417  86.393  17.629  0.00  0.00    +0.000 A 
ATOM     20  C   UNL     1     -31.001  88.444  17.231  0.00  0.00    +0.000 A 
ATOM     21  C   UNL     1     -33.738  84.484  17.764  0.00  0.00    +0.000 C 
ATOM     22  C   UNL     1     -29.654  82.259  14.294  0.00  0.00    +0.000 A 
ATOM     23  C   UNL     1     -33.607  86.749  18.371  0.00  0.00    +0.000 C 
ATOM     24  C   UNL     1     -29.264  89.993  16.380  0.00  0.00    +0.000 A 
ATOM     25  C   UNL     1     -32.030  82.184  15.805  0.00  0.00    +0.000 A 
ATOM     26  C   UNL     1     -31.669  89.550  17.792  0.00  0.00    +0.000 A 
ATOM     27  C   UNL     1     -30.477  81.134  14.285  0.00  0.00    +0.000 A 
ATOM     28  C   UNL     1     -31.644  81.090  15.031  0.00  0.00    +0.000 A 
ATOM     29  C   UNL     1     -29.964  91.049  16.962  0.00  0.00    +0.000 A 
ATOM     30  C   UNL     1     -31.146  90.835  17.657  0.00  0.00    +0.000 A 
ATOM     31  H   UNL     1     -35.208  85.474  18.845  0.00  0.00    +0.000 HD
ENDROOT
BRANCH   7  32
ATOM     32  O   UNL     1     -29.371  85.528  12.554  0.00  0.00    +0.000 OA
ATOM     33  H   UNL     1     -29.455  84.550  12.518  0.00  0.00    +0.000 HD
ENDBRANCH   7  32
BRANCH   7  35
ATOM     34  O   UNL     1     -25.907  86.285  12.675  0.00  0.00    +0.000 OA
ATOM     35  C   UNL     1     -26.945  85.675  12.410  0.00  0.00    +0.000 C 
BRANCH  35  36
ATOM     36  O   UNL     1     -27.156  84.780  11.398  0.00  0.00    +0.000 OA
ATOM     37  C   UNL     1     -26.062  84.440  10.591  0.00  0.00    +0.000 C 
ENDBRANCH  35  36
ENDBRANCH   7  35
TORSDOF 3
ENDMDL
MODEL 9
REMARK VINA RESULT:      -6.5      3.193      6.023
REMARK  Name = 490561_Nocardiopsis.pdbqt.pdb
REMARK  3 active torsions:
REMARK  status: ('A' for Active; 'I' for Inactive)
REMARK    1  A    between atoms: C_7  and  O_32
REMARK    2  A    between atoms: C_7  and  C_35
REMARK    3  A    between atoms: C_35  and  O_36
REMARK                            x       y       z     vdW  Elec       q    Type
REMARK                         _______ _______ _______ _____ _____    ______ ____
ROOT
ATOM      1  O   UNL     1     -31.131 102.710  17.785  0.00  0.00    +0.000 OA
ATOM      2  O   UNL     1     -37.583  99.377  15.788  0.00  0.00    +0.000 OA
ATOM      3  N   UNL     1     -31.235 100.349  17.837  0.00  0.00    +0.000 N 
ATOM      4  N   UNL     1     -32.859 102.325  16.267  0.00  0.00    +0.000 N 
ATOM      5  N   UNL     1     -36.514  97.685  16.967  0.00  0.00    +0.000 N 
ATOM      6  C   UNL     1     -30.307 101.493  17.725  0.00  0.00    +0.000 C 
ATOM      7  C   UNL     1     -29.589 101.583  16.310  0.00  0.00    +0.000 C 
ATOM      8  C   UNL     1     -31.605 102.872  16.472  0.00  0.00    +0.000 C 
ATOM      9  C   UNL     1     -30.566 102.421  15.621  0.00  0.00    +0.000 C 
ATOM     10  C   UNL     1     -32.549 100.217  17.463  0.00  0.00    +0.000 A 
ATOM     11  C   UNL     1     -33.317 101.136  16.747  0.00  0.00    +0.000 A 
ATOM     12  C   UNL     1     -33.216  99.018  17.728  0.00  0.00    +0.000 A 
ATOM     13  C   UNL     1     -34.608 100.712  16.413  0.00  0.00    +0.000 A 
ATOM     14  C   UNL     1     -29.340 101.590  18.951  0.00  0.00    +0.000 C 
ATOM     15  C   UNL     1     -30.999  99.044  18.339  0.00  0.00    +0.000 A 
ATOM     16  C   UNL     1     -33.957 102.719  15.480  0.00  0.00    +0.000 A 
ATOM     17  C   UNL     1     -32.199  98.239  18.307  0.00  0.00    +0.000 A 
ATOM     18  C   UNL     1     -34.512  98.580  17.424  0.00  0.00    +0.000 A 
ATOM     19  C   UNL     1     -35.301  99.515  16.689  0.00  0.00    +0.000 A 
ATOM     20  C   UNL     1     -35.040 101.765  15.577  0.00  0.00    +0.000 A 
ATOM     21  C   UNL     1     -35.358  97.370  17.588  0.00  0.00    +0.000 C 
ATOM     22  C   UNL     1     -29.800  98.493  18.820  0.00  0.00    +0.000 A 
ATOM     23  C   UNL     1     -36.600  98.957  16.382  0.00  0.00    +0.000 C 
ATOM     24  C   UNL     1     -34.082 103.871  14.689  0.00  0.00    +0.000 A 
ATOM     25  C   UNL     1     -32.132  96.914  18.783  0.00  0.00    +0.000 A 
ATOM     26  C   UNL     1     -36.215 102.027  14.844  0.00  0.00    +0.000 A 
ATOM     27  C   UNL     1     -29.784  97.177  19.281  0.00  0.00    +0.000 A 
ATOM     28  C   UNL     1     -30.931  96.399  19.270  0.00  0.00    +0.000 A 
ATOM     29  C   UNL     1     -35.270 104.082  13.992  0.00  0.00    +0.000 A 
ATOM     30  C   UNL     1     -36.320 103.179  14.066  0.00  0.00    +0.000 A 
ATOM     31  H   UNL     1     -37.294  97.047  16.913  0.00  0.00    +0.000 HD
ENDROOT
BRANCH   7  32
ATOM     32  O   UNL     1     -29.474 100.334  15.611  0.00  0.00    +0.000 OA
ATOM     33  H   UNL     1     -29.265 100.542  14.674  0.00  0.00    +0.000 HD
ENDBRANCH   7  32
BRANCH   7  35
ATOM     34  O   UNL     1     -27.191 101.601  16.415  0.00  0.00    +0.000 OA
ATOM     35  C   UNL     1     -28.228 102.268  16.406  0.00  0.00    +0.000 C 
BRANCH  35  36
ATOM     36  O   UNL     1     -28.347 103.630  16.420  0.00  0.00    +0.000 OA
ATOM     37  C   UNL     1     -27.712 104.329  17.456  0.00  0.00    +0.000 C 
ENDBRANCH  35  36
ENDBRANCH   7  35
TORSDOF 3
ENDMDL
