MODEL 1
REMARK VINA RESULT:      -7.2      0.000      0.000
REMARK  Name = 5109870_Ethoxyphenyl.pdbqt.pdb
REMARK  6 active torsions:
REMARK  status: ('A' for Active; 'I' for Inactive)
REMARK    1  A    between atoms: N_2  and  C_22
REMARK    2  A    between atoms: C_3  and  O_11
REMARK    3  A    between atoms: C_3  and  C_13
REMARK    4  A    between atoms: C_16  and  N_19
REMARK    5  A    between atoms: C_25  and  O_28
REMARK    6  A    between atoms: O_28  and  C_29
REMARK                            x       y       z     vdW  Elec       q    Type
REMARK                         _______ _______ _______ _____ _____    ______ ____
ROOT
ATOM      1  N   UNL     1     -32.024  98.410  17.742  0.00  0.00    +0.000 N 
ATOM      2  N   UNL     1     -33.882  99.102  16.390  0.00  0.00    +0.000 N 
ATOM      3  C   UNL     1     -31.424  98.746  16.428  0.00  0.00    +0.000 C 
ATOM      4  C   UNL     1     -33.510  98.486  17.569  0.00  0.00    +0.000 C 
ATOM      5  C   UNL     1     -32.608  99.266  15.741  0.00  0.00    +0.000 C 
ATOM      6  C   UNL     1     -31.603  97.175  18.401  0.00  0.00    +0.000 C 
ATOM      7  C   UNL     1     -34.371  97.605  18.286  0.00  0.00    +0.000 C 
ATOM      8  C   UNL     1     -31.936  95.900  19.195  0.00  0.00    +0.000 C 
ATOM      9  C   UNL     1     -34.507  96.332  19.137  0.00  0.00    +0.000 C 
ATOM     10  C   UNL     1     -33.341  95.458  19.590  0.00  0.00    +0.000 C 
ENDROOT
BRANCH   3  11
ATOM     11  C   UNL     1     -30.289  99.732  16.571  0.00  0.00    +0.000 A 
ATOM     12  C   UNL     1     -29.919 100.246  17.822  0.00  0.00    +0.000 A 
ATOM     13  C   UNL     1     -28.843 101.121  17.950  0.00  0.00    +0.000 A 
ATOM     14  C   UNL     1     -28.123 101.475  16.813  0.00  0.00    +0.000 A 
ATOM     15  C   UNL     1     -28.453 100.971  15.559  0.00  0.00    +0.000 A 
ATOM     16  C   UNL     1     -29.531 100.097  15.448  0.00  0.00    +0.000 A 
BRANCH  14  17
ATOM     17  N   UNL     1     -27.003 102.387  16.939  0.00  0.00    +0.000 N 
ATOM     18  O   UNL     1     -27.230 103.514  17.400  0.00  0.00    +0.000 OA
ATOM     19  O   UNL     1     -25.888 101.983  16.578  0.00  0.00    +0.000 OA
ENDBRANCH  14  17
ENDBRANCH   3  11
BRANCH   2  20
ATOM     20  C   UNL     1     -35.114  99.190  15.722  0.00  0.00    +0.000 A 
ATOM     21  C   UNL     1     -36.332  99.192  16.410  0.00  0.00    +0.000 A 
ATOM     22  C   UNL     1     -37.550  99.302  15.738  0.00  0.00    +0.000 A 
ATOM     23  C   UNL     1     -37.575  99.423  14.351  0.00  0.00    +0.000 A 
ATOM     24  C   UNL     1     -36.375  99.435  13.646  0.00  0.00    +0.000 A 
ATOM     25  C   UNL     1     -35.163  99.324  14.328  0.00  0.00    +0.000 A 
BRANCH  23  26
ATOM     26  O   UNL     1     -38.715  99.538  13.598  0.00  0.00    +0.000 OA
BRANCH  26  27
ATOM     27  C   UNL     1     -39.266 100.749  13.596  0.00  0.00    +0.000 C 
ATOM     28  C   UNL     1     -39.909 102.141  13.580  0.00  0.00    +0.000 C 
ENDBRANCH  26  27
ENDBRANCH  23  26
ENDBRANCH   2  20
BRANCH   3  29
ATOM     29  O   UNL     1     -30.974  97.604  15.711  0.00  0.00    +0.000 OA
ATOM     30  H   UNL     1     -30.475  97.079  16.359  0.00  0.00    +0.000 HD
ENDBRANCH   3  29
TORSDOF 6
ENDMDL
MODEL 2
REMARK VINA RESULT:      -7.2     12.113     14.861
REMARK  Name = 5109870_Ethoxyphenyl.pdbqt.pdb
REMARK  6 active torsions:
REMARK  status: ('A' for Active; 'I' for Inactive)
REMARK    1  A    between atoms: N_2  and  C_22
REMARK    2  A    between atoms: C_3  and  O_11
REMARK    3  A    between atoms: C_3  and  C_13
REMARK    4  A    between atoms: C_16  and  N_19
REMARK    5  A    between atoms: C_25  and  O_28
REMARK    6  A    between atoms: O_28  and  C_29
REMARK                            x       y       z     vdW  Elec       q    Type
REMARK                         _______ _______ _______ _____ _____    ______ ____
ROOT
ATOM      1  N   UNL     1     -27.067  87.218  15.231  0.00  0.00    +0.000 N 
ATOM      2  N   UNL     1     -28.183  85.955  13.522  0.00  0.00    +0.000 N 
ATOM      3  C   UNL     1     -27.962  88.197  14.568  0.00  0.00    +0.000 C 
ATOM      4  C   UNL     1     -27.140  85.957  14.427  0.00  0.00    +0.000 C 
ATOM      5  C   UNL     1     -28.669  87.304  13.648  0.00  0.00    +0.000 C 
ATOM      6  C   UNL     1     -25.691  87.619  15.516  0.00  0.00    +0.000 C 
ATOM      7  C   UNL     1     -25.996  85.116  14.290  0.00  0.00    +0.000 C 
ATOM      8  C   UNL     1     -24.184  87.309  15.545  0.00  0.00    +0.000 C 
ATOM      9  C   UNL     1     -24.477  84.957  14.458  0.00  0.00    +0.000 C 
ATOM     10  C   UNL     1     -23.549  86.013  15.052  0.00  0.00    +0.000 C 
ENDROOT
BRANCH   3  11
ATOM     11  C   UNL     1     -28.845  88.909  15.566  0.00  0.00    +0.000 A 
ATOM     12  C   UNL     1     -29.722  88.203  16.401  0.00  0.00    +0.000 A 
ATOM     13  C   UNL     1     -30.501  88.863  17.348  0.00  0.00    +0.000 A 
ATOM     14  C   UNL     1     -30.389  90.245  17.468  0.00  0.00    +0.000 A 
ATOM     15  C   UNL     1     -29.517  90.975  16.666  0.00  0.00    +0.000 A 
ATOM     16  C   UNL     1     -28.745  90.300  15.725  0.00  0.00    +0.000 A 
BRANCH  14  17
ATOM     17  N   UNL     1     -31.198  90.939  18.451  0.00  0.00    +0.000 N 
ATOM     18  O   UNL     1     -31.860  90.250  19.239  0.00  0.00    +0.000 OA
ATOM     19  O   UNL     1     -31.176  92.178  18.443  0.00  0.00    +0.000 OA
ENDBRANCH  14  17
ENDBRANCH   3  11
BRANCH   2  20
ATOM     20  C   UNL     1     -28.489  85.115  12.440  0.00  0.00    +0.000 A 
ATOM     21  C   UNL     1     -28.640  85.605  11.139  0.00  0.00    +0.000 A 
ATOM     22  C   UNL     1     -28.921  84.758  10.067  0.00  0.00    +0.000 A 
ATOM     23  C   UNL     1     -29.051  83.386  10.275  0.00  0.00    +0.000 A 
ATOM     24  C   UNL     1     -28.894  82.874  11.559  0.00  0.00    +0.000 A 
ATOM     25  C   UNL     1     -28.612  83.730  12.624  0.00  0.00    +0.000 A 
BRANCH  23  26
ATOM     26  O   UNL     1     -29.325  82.470   9.292  0.00  0.00    +0.000 OA
BRANCH  26  27
ATOM     27  C   UNL     1     -30.200  81.527   9.634  0.00  0.00    +0.000 C 
ATOM     28  C   UNL     1     -31.221  80.450  10.019  0.00  0.00    +0.000 C 
ENDBRANCH  26  27
ENDBRANCH  23  26
ENDBRANCH   2  20
BRANCH   3  29
ATOM     29  O   UNL     1     -27.260  89.156  13.787  0.00  0.00    +0.000 OA
ATOM     30  H   UNL     1     -26.581  88.649  13.313  0.00  0.00    +0.000 HD
ENDBRANCH   3  29
TORSDOF 6
ENDMDL
MODEL 3
REMARK VINA RESULT:      -6.6      1.428      2.205
REMARK  Name = 5109870_Ethoxyphenyl.pdbqt.pdb
REMARK  6 active torsions:
REMARK  status: ('A' for Active; 'I' for Inactive)
REMARK    1  A    between atoms: N_2  and  C_22
REMARK    2  A    between atoms: C_3  and  O_11
REMARK    3  A    between atoms: C_3  and  C_13
REMARK    4  A    between atoms: C_16  and  N_19
REMARK    5  A    between atoms: C_25  and  O_28
REMARK    6  A    between atoms: O_28  and  C_29
REMARK                            x       y       z     vdW  Elec       q    Type
REMARK                         _______ _______ _______ _____ _____    ______ ____
ROOT
ATOM      1  N   UNL     1     -33.463  98.858  17.029  0.00  0.00    +0.000 N 
ATOM      2  N   UNL     1     -34.966 100.065  15.598  0.00  0.00    +0.000 N 
ATOM      3  C   UNL     1     -32.706  99.048  15.768  0.00  0.00    +0.000 C 
ATOM      4  C   UNL     1     -34.857  99.342  16.771  0.00  0.00    +0.000 C 
ATOM      5  C   UNL     1     -33.654  99.889  15.034  0.00  0.00    +0.000 C 
ATOM      6  C   UNL     1     -33.439  97.540  17.660  0.00  0.00    +0.000 C 
ATOM      7  C   UNL     1     -35.972  98.714  17.398  0.00  0.00    +0.000 C 
ATOM      8  C   UNL     1     -34.160  96.386  18.379  0.00  0.00    +0.000 C 
ATOM      9  C   UNL     1     -36.507  97.507  18.185  0.00  0.00    +0.000 C 
ATOM     10  C   UNL     1     -35.656  96.336  18.670  0.00  0.00    +0.000 C 
ENDROOT
BRANCH   3  11
ATOM     11  C   UNL     1     -31.359  99.683  16.019  0.00  0.00    +0.000 A 
ATOM     12  C   UNL     1     -30.308  99.560  15.099  0.00  0.00    +0.000 A 
ATOM     13  C   UNL     1     -29.083 100.184  15.317  0.00  0.00    +0.000 A 
ATOM     14  C   UNL     1     -28.913 100.951  16.466  0.00  0.00    +0.000 A 
ATOM     15  C   UNL     1     -29.939 101.107  17.393  0.00  0.00    +0.000 A 
ATOM     16  C   UNL     1     -31.157 100.477  17.159  0.00  0.00    +0.000 A 
BRANCH  14  17
ATOM     17  N   UNL     1     -27.639 101.602  16.701  0.00  0.00    +0.000 N 
ATOM     18  O   UNL     1     -26.976 101.939  15.711  0.00  0.00    +0.000 OA
ATOM     19  O   UNL     1     -27.293 101.783  17.877  0.00  0.00    +0.000 OA
ENDBRANCH  14  17
ENDBRANCH   3  11
BRANCH   2  20
ATOM     20  C   UNL     1     -36.079 100.501  14.862  0.00  0.00    +0.000 A 
ATOM     21  C   UNL     1     -36.593  99.767  13.789  0.00  0.00    +0.000 A 
ATOM     22  C   UNL     1     -37.714 100.198  13.079  0.00  0.00    +0.000 A 
ATOM     23  C   UNL     1     -38.356 101.381  13.436  0.00  0.00    +0.000 A 
ATOM     24  C   UNL     1     -37.869 102.123  14.508  0.00  0.00    +0.000 A 
ATOM     25  C   UNL     1     -36.748 101.683  15.211  0.00  0.00    +0.000 A 
BRANCH  23  26
ATOM     26  O   UNL     1     -39.461 101.891  12.806  0.00  0.00    +0.000 OA
BRANCH  26  27
ATOM     27  C   UNL     1     -40.396 102.377  13.619  0.00  0.00    +0.000 C 
ATOM     28  C   UNL     1     -41.463 102.934  14.569  0.00  0.00    +0.000 C 
ENDBRANCH  26  27
ENDBRANCH  23  26
ENDBRANCH   2  20
BRANCH   3  29
ATOM     29  O   UNL     1     -32.534  97.844  15.033  0.00  0.00    +0.000 OA
ATOM     30  H   UNL     1     -32.279  97.178  15.693  0.00  0.00    +0.000 HD
ENDBRANCH   3  29
TORSDOF 6
ENDMDL
MODEL 4
REMARK VINA RESULT:      -6.6     13.866     16.927
REMARK  Name = 5109870_Ethoxyphenyl.pdbqt.pdb
REMARK  6 active torsions:
REMARK  status: ('A' for Active; 'I' for Inactive)
REMARK    1  A    between atoms: N_2  and  C_22
REMARK    2  A    between atoms: C_3  and  O_11
REMARK    3  A    between atoms: C_3  and  C_13
REMARK    4  A    between atoms: C_16  and  N_19
REMARK    5  A    between atoms: C_25  and  O_28
REMARK    6  A    between atoms: O_28  and  C_29
REMARK                            x       y       z     vdW  Elec       q    Type
REMARK                         _______ _______ _______ _____ _____    ______ ____
ROOT
ATOM      1  N   UNL     1     -21.363  99.858   4.664  0.00  0.00    +0.000 N 
ATOM      2  N   UNL     1     -21.261 100.562   6.956  0.00  0.00    +0.000 N 
ATOM      3  C   UNL     1     -22.746 100.286   4.984  0.00  0.00    +0.000 C 
ATOM      4  C   UNL     1     -20.593  99.894   5.948  0.00  0.00    +0.000 C 
ATOM      5  C   UNL     1     -22.538 100.803   6.338  0.00  0.00    +0.000 C 
ATOM      6  C   UNL     1     -21.176  98.603   3.937  0.00  0.00    +0.000 C 
ATOM      7  C   UNL     1     -19.558  98.946   6.202  0.00  0.00    +0.000 C 
ATOM      8  C   UNL     1     -20.427  97.275   3.728  0.00  0.00    +0.000 C 
ATOM      9  C   UNL     1     -18.884  97.624   5.801  0.00  0.00    +0.000 C 
ATOM     10  C   UNL     1     -19.290  96.766   4.607  0.00  0.00    +0.000 C 
ENDROOT
BRANCH   3  11
ATOM     11  C   UNL     1     -23.259 101.300   3.989  0.00  0.00    +0.000 A 
ATOM     12  C   UNL     1     -23.174 101.078   2.607  0.00  0.00    +0.000 A 
ATOM     13  C   UNL     1     -23.688 101.998   1.698  0.00  0.00    +0.000 A 
ATOM     14  C   UNL     1     -24.307 103.148   2.180  0.00  0.00    +0.000 A 
ATOM     15  C   UNL     1     -24.422 103.392   3.544  0.00  0.00    +0.000 A 
ATOM     16  C   UNL     1     -23.903 102.462   4.440  0.00  0.00    +0.000 A 
BRANCH  14  17
ATOM     17  N   UNL     1     -24.843 104.111   1.238  0.00  0.00    +0.000 N 
ATOM     18  O   UNL     1     -24.530 103.985   0.046  0.00  0.00    +0.000 OA
ATOM     19  O   UNL     1     -25.583 105.000   1.683  0.00  0.00    +0.000 OA
ENDBRANCH  14  17
ENDBRANCH   3  11
BRANCH   2  20
ATOM     20  C   UNL     1     -21.036 100.645   8.339  0.00  0.00    +0.000 A 
ATOM     21  C   UNL     1     -21.517  99.678   9.228  0.00  0.00    +0.000 A 
ATOM     22  C   UNL     1     -21.268  99.758  10.598  0.00  0.00    +0.000 A 
ATOM     23  C   UNL     1     -20.518 100.812  11.113  0.00  0.00    +0.000 A 
ATOM     24  C   UNL     1     -20.019 101.780  10.246  0.00  0.00    +0.000 A 
ATOM     25  C   UNL     1     -20.273 101.691   8.878  0.00  0.00    +0.000 A 
BRANCH  23  26
ATOM     26  O   UNL     1     -20.217 100.982  12.440  0.00  0.00    +0.000 OA
BRANCH  26  27
ATOM     27  C   UNL     1     -19.513  99.993  12.986  0.00  0.00    +0.000 C 
ATOM     28  C   UNL     1     -18.693  98.852  13.600  0.00  0.00    +0.000 C 
ENDBRANCH  26  27
ENDBRANCH  23  26
ENDBRANCH   2  20
BRANCH   3  29
ATOM     29  O   UNL     1     -23.661  99.200   5.071  0.00  0.00    +0.000 OA
ATOM     30  H   UNL     1     -23.765  98.884   4.158  0.00  0.00    +0.000 HD
ENDBRANCH   3  29
TORSDOF 6
ENDMDL
MODEL 5
REMARK VINA RESULT:      -6.4     18.130     21.395
REMARK  Name = 5109870_Ethoxyphenyl.pdbqt.pdb
REMARK  6 active torsions:
REMARK  status: ('A' for Active; 'I' for Inactive)
REMARK    1  A    between atoms: N_2  and  C_22
REMARK    2  A    between atoms: C_3  and  O_11
REMARK    3  A    between atoms: C_3  and  C_13
REMARK    4  A    between atoms: C_16  and  N_19
REMARK    5  A    between atoms: C_25  and  O_28
REMARK    6  A    between atoms: O_28  and  C_29
REMARK                            x       y       z     vdW  Elec       q    Type
REMARK                         _______ _______ _______ _____ _____    ______ ____
ROOT
ATOM      1  N   UNL     1     -24.814 104.536  -1.659  0.00  0.00    +0.000 N 
ATOM      2  N   UNL     1     -23.735 103.123  -0.047  0.00  0.00    +0.000 N 
ATOM      3  C   UNL     1     -23.581 104.072  -2.337  0.00  0.00    +0.000 C 
ATOM      4  C   UNL     1     -24.731 104.060  -0.242  0.00  0.00    +0.000 C 
ATOM      5  C   UNL     1     -23.080 103.136  -1.329  0.00  0.00    +0.000 C 
ATOM      6  C   UNL     1     -25.165 105.952  -1.751  0.00  0.00    +0.000 C 
ATOM      7  C   UNL     1     -25.276 104.840   0.820  0.00  0.00    +0.000 C 
ATOM      8  C   UNL     1     -25.674 107.251  -1.102  0.00  0.00    +0.000 C 
ATOM      9  C   UNL     1     -25.831 106.198   1.279  0.00  0.00    +0.000 C 
ATOM     10  C   UNL     1     -26.026 107.411   0.373  0.00  0.00    +0.000 C 
ENDROOT
BRANCH   3  11
ATOM     11  C   UNL     1     -23.885 103.453  -3.682  0.00  0.00    +0.000 A 
ATOM     12  C   UNL     1     -22.886 103.280  -4.651  0.00  0.00    +0.000 A 
ATOM     13  C   UNL     1     -23.165 102.669  -5.871  0.00  0.00    +0.000 A 
ATOM     14  C   UNL     1     -24.457 102.215  -6.116  0.00  0.00    +0.000 A 
ATOM     15  C   UNL     1     -25.469 102.357  -5.171  0.00  0.00    +0.000 A 
ATOM     16  C   UNL     1     -25.173 102.969  -3.957  0.00  0.00    +0.000 A 
BRANCH  14  17
ATOM     17  N   UNL     1     -24.756 101.580  -7.385  0.00  0.00    +0.000 N 
ATOM     18  O   UNL     1     -24.379 100.411  -7.544  0.00  0.00    +0.000 OA
ATOM     19  O   UNL     1     -25.370 102.245  -8.231  0.00  0.00    +0.000 OA
ENDBRANCH  14  17
ENDBRANCH   3  11
BRANCH   2  20
ATOM     20  C   UNL     1     -23.161 102.587   1.116  0.00  0.00    +0.000 A 
ATOM     21  C   UNL     1     -22.047 103.171   1.730  0.00  0.00    +0.000 A 
ATOM     22  C   UNL     1     -21.498 102.644   2.899  0.00  0.00    +0.000 A 
ATOM     23  C   UNL     1     -22.062 101.516   3.490  0.00  0.00    +0.000 A 
ATOM     24  C   UNL     1     -23.177 100.925   2.905  0.00  0.00    +0.000 A 
ATOM     25  C   UNL     1     -23.718 101.460   1.735  0.00  0.00    +0.000 A 
BRANCH  23  26
ATOM     26  O   UNL     1     -21.600 100.923   4.637  0.00  0.00    +0.000 OA
BRANCH  26  27
ATOM     27  C   UNL     1     -22.414 101.020   5.685  0.00  0.00    +0.000 C 
ATOM     28  C   UNL     1     -23.364 101.138   6.883  0.00  0.00    +0.000 C 
ENDBRANCH  26  27
ENDBRANCH  23  26
ENDBRANCH   2  20
BRANCH   3  29
ATOM     29  O   UNL     1     -22.610 105.099  -2.496  0.00  0.00    +0.000 OA
ATOM     30  H   UNL     1     -22.034 105.025  -1.718  0.00  0.00    +0.000 HD
ENDBRANCH   3  29
TORSDOF 6
ENDMDL
MODEL 6
REMARK VINA RESULT:      -6.4     14.709     19.219
REMARK  Name = 5109870_Ethoxyphenyl.pdbqt.pdb
REMARK  6 active torsions:
REMARK  status: ('A' for Active; 'I' for Inactive)
REMARK    1  A    between atoms: N_2  and  C_22
REMARK    2  A    between atoms: C_3  and  O_11
REMARK    3  A    between atoms: C_3  and  C_13
REMARK    4  A    between atoms: C_16  and  N_19
REMARK    5  A    between atoms: C_25  and  O_28
REMARK    6  A    between atoms: O_28  and  C_29
REMARK                            x       y       z     vdW  Elec       q    Type
REMARK                         _______ _______ _______ _____ _____    ______ ____
ROOT
ATOM      1  N   UNL     1     -43.484 102.413   1.231  0.00  0.00    +0.000 N 
ATOM      2  N   UNL     1     -41.498 102.641   2.559  0.00  0.00    +0.000 N 
ATOM      3  C   UNL     1     -43.401 101.147   1.998  0.00  0.00    +0.000 C 
ATOM      4  C   UNL     1     -42.216 103.164   1.501  0.00  0.00    +0.000 C 
ATOM      5  C   UNL     1     -42.247 101.447   2.848  0.00  0.00    +0.000 C 
ATOM      6  C   UNL     1     -43.795 102.341  -0.196  0.00  0.00    +0.000 C 
ATOM      7  C   UNL     1     -41.624 103.976   0.491  0.00  0.00    +0.000 C 
ATOM      8  C   UNL     1     -43.553 102.799  -1.644  0.00  0.00    +0.000 C 
ATOM      9  C   UNL     1     -41.570 104.364  -0.996  0.00  0.00    +0.000 C 
ATOM     10  C   UNL     1     -42.486 103.799  -2.078  0.00  0.00    +0.000 C 
ENDROOT
BRANCH   3  11
ATOM     11  C   UNL     1     -44.683 100.864   2.744  0.00  0.00    +0.000 A 
ATOM     12  C   UNL     1     -44.794 101.094   4.123  0.00  0.00    +0.000 A 
ATOM     13  C   UNL     1     -45.993 100.872   4.796  0.00  0.00    +0.000 A 
ATOM     14  C   UNL     1     -47.097 100.426   4.076  0.00  0.00    +0.000 A 
ATOM     15  C   UNL     1     -47.027 100.202   2.704  0.00  0.00    +0.000 A 
ATOM     16  C   UNL     1     -45.821 100.430   2.047  0.00  0.00    +0.000 A 
BRANCH  14  17
ATOM     17  N   UNL     1     -48.348 100.191   4.770  0.00  0.00    +0.000 N 
ATOM     18  O   UNL     1     -49.029  99.220   4.411  0.00  0.00    +0.000 OA
ATOM     19  O   UNL     1     -48.658 100.973   5.679  0.00  0.00    +0.000 OA
ENDBRANCH  14  17
ENDBRANCH   3  11
BRANCH   2  20
ATOM     20  C   UNL     1     -40.188 102.867   3.009  0.00  0.00    +0.000 A 
ATOM     21  C   UNL     1     -39.907 103.732   4.072  0.00  0.00    +0.000 A 
ATOM     22  C   UNL     1     -38.604 103.932   4.527  0.00  0.00    +0.000 A 
ATOM     23  C   UNL     1     -37.543 103.257   3.928  0.00  0.00    +0.000 A 
ATOM     24  C   UNL     1     -37.798 102.383   2.876  0.00  0.00    +0.000 A 
ATOM     25  C   UNL     1     -39.106 102.190   2.429  0.00  0.00    +0.000 A 
BRANCH  23  26
ATOM     26  O   UNL     1     -36.229 103.382   4.299  0.00  0.00    +0.000 OA
BRANCH  26  27
ATOM     27  C   UNL     1     -35.550 104.324   3.648  0.00  0.00    +0.000 C 
ATOM     28  C   UNL     1     -34.754 105.403   2.905  0.00  0.00    +0.000 C 
ENDBRANCH  26  27
ENDBRANCH  23  26
ENDBRANCH   2  20
BRANCH   3  29
ATOM     29  O   UNL     1     -43.065 100.026   1.190  0.00  0.00    +0.000 OA
ATOM     30  H   UNL     1     -43.915  99.675   0.878  0.00  0.00    +0.000 HD
ENDBRANCH   3  29
TORSDOF 6
ENDMDL
MODEL 7
REMARK VINA RESULT:      -6.4     29.216     31.843
REMARK  Name = 5109870_Ethoxyphenyl.pdbqt.pdb
REMARK  6 active torsions:
REMARK  status: ('A' for Active; 'I' for Inactive)
REMARK    1  A    between atoms: N_2  and  C_22
REMARK    2  A    between atoms: C_3  and  O_11
REMARK    3  A    between atoms: C_3  and  C_13
REMARK    4  A    between atoms: C_16  and  N_19
REMARK    5  A    between atoms: C_25  and  O_28
REMARK    6  A    between atoms: O_28  and  C_29
REMARK                            x       y       z     vdW  Elec       q    Type
REMARK                         _______ _______ _______ _____ _____    ______ ____
ROOT
ATOM      1  N   UNL     1     -30.399  98.965 -14.042  0.00  0.00    +0.000 N 
ATOM      2  N   UNL     1     -30.117  96.616 -14.445  0.00  0.00    +0.000 N 
ATOM      3  C   UNL     1     -31.713  98.516 -14.561  0.00  0.00    +0.000 C 
ATOM      4  C   UNL     1     -29.464  97.803 -14.174  0.00  0.00    +0.000 C 
ATOM      5  C   UNL     1     -31.466  97.075 -14.648  0.00  0.00    +0.000 C 
ATOM      6  C   UNL     1     -29.829 100.202 -14.574  0.00  0.00    +0.000 C 
ATOM      7  C   UNL     1     -28.084  98.010 -14.466  0.00  0.00    +0.000 C 
ATOM      8  C   UNL     1     -28.626 101.005 -15.097  0.00  0.00    +0.000 C 
ATOM      9  C   UNL     1     -26.991  98.980 -14.941  0.00  0.00    +0.000 C 
ATOM     10  C   UNL     1     -27.217 100.451 -15.277  0.00  0.00    +0.000 C 
ENDROOT
BRANCH   3  11
ATOM     11  C   UNL     1     -32.841  98.912 -13.637  0.00  0.00    +0.000 A 
ATOM     12  C   UNL     1     -33.666 100.010 -13.917  0.00  0.00    +0.000 A 
ATOM     13  C   UNL     1     -34.731 100.342 -13.082  0.00  0.00    +0.000 A 
ATOM     14  C   UNL     1     -34.978  99.555 -11.961  0.00  0.00    +0.000 A 
ATOM     15  C   UNL     1     -34.188  98.449 -11.661  0.00  0.00    +0.000 A 
ATOM     16  C   UNL     1     -33.129  98.131 -12.506  0.00  0.00    +0.000 A 
BRANCH  14  17
ATOM     17  N   UNL     1     -36.083  99.895 -11.087  0.00  0.00    +0.000 N 
ATOM     18  O   UNL     1     -35.856  99.951  -9.870  0.00  0.00    +0.000 OA
ATOM     19  O   UNL     1     -37.186 100.110 -11.609  0.00  0.00    +0.000 OA
ENDBRANCH  14  17
ENDBRANCH   3  11
BRANCH   2  20
ATOM     20  C   UNL     1     -29.651  95.359 -14.862  0.00  0.00    +0.000 A 
ATOM     21  C   UNL     1     -30.248  94.658 -15.914  0.00  0.00    +0.000 A 
ATOM     22  C   UNL     1     -29.763  93.420 -16.336  0.00  0.00    +0.000 A 
ATOM     23  C   UNL     1     -28.653  92.855 -15.712  0.00  0.00    +0.000 A 
ATOM     24  C   UNL     1     -28.036  93.539 -14.669  0.00  0.00    +0.000 A 
ATOM     25  C   UNL     1     -28.529  94.777 -14.256  0.00  0.00    +0.000 A 
BRANCH  23  26
ATOM     26  O   UNL     1     -28.098  91.647 -16.049  0.00  0.00    +0.000 OA
BRANCH  26  27
ATOM     27  C   UNL     1     -27.267  91.683 -17.088  0.00  0.00    +0.000 C 
ATOM     28  C   UNL     1     -26.322  91.726 -18.295  0.00  0.00    +0.000 C 
ENDBRANCH  26  27
ENDBRANCH  23  26
ENDBRANCH   2  20
BRANCH   3  29
ATOM     29  O   UNL     1     -31.987  98.990 -15.873  0.00  0.00    +0.000 OA
ATOM     30  H   UNL     1     -32.504  99.802 -15.747  0.00  0.00    +0.000 HD
ENDBRANCH   3  29
TORSDOF 6
ENDMDL
MODEL 8
REMARK VINA RESULT:      -6.3     13.336     15.985
REMARK  Name = 5109870_Ethoxyphenyl.pdbqt.pdb
REMARK  6 active torsions:
REMARK  status: ('A' for Active; 'I' for Inactive)
REMARK    1  A    between atoms: N_2  and  C_22
REMARK    2  A    between atoms: C_3  and  O_11
REMARK    3  A    between atoms: C_3  and  C_13
REMARK    4  A    between atoms: C_16  and  N_19
REMARK    5  A    between atoms: C_25  and  O_28
REMARK    6  A    between atoms: O_28  and  C_29
REMARK                            x       y       z     vdW  Elec       q    Type
REMARK                         _______ _______ _______ _____ _____    ______ ____
ROOT
ATOM      1  N   UNL     1     -20.270  98.687   6.801  0.00  0.00    +0.000 N 
ATOM      2  N   UNL     1     -21.749 100.230   5.710  0.00  0.00    +0.000 N 
ATOM      3  C   UNL     1     -19.975  99.996   7.432  0.00  0.00    +0.000 C 
ATOM      4  C   UNL     1     -21.212  98.958   5.669  0.00  0.00    +0.000 C 
ATOM      5  C   UNL     1     -21.005 100.818   6.792  0.00  0.00    +0.000 C 
ATOM      6  C   UNL     1     -19.146  97.842   6.401  0.00  0.00    +0.000 C 
ATOM      7  C   UNL     1     -21.157  98.180   4.475  0.00  0.00    +0.000 C 
ATOM      8  C   UNL     1     -18.472  96.903   5.386  0.00  0.00    +0.000 C 
ATOM      9  C   UNL     1     -20.372  97.174   3.619  0.00  0.00    +0.000 C 
ATOM     10  C   UNL     1     -19.044  96.537   4.020  0.00  0.00    +0.000 C 
ENDROOT
BRANCH   3  11
ATOM     11  C   UNL     1     -20.070  99.921   8.938  0.00  0.00    +0.000 A 
ATOM     12  C   UNL     1     -18.959 100.176   9.755  0.00  0.00    +0.000 A 
ATOM     13  C   UNL     1     -19.065 100.148  11.143  0.00  0.00    +0.000 A 
ATOM     14  C   UNL     1     -20.302  99.873  11.719  0.00  0.00    +0.000 A 
ATOM     15  C   UNL     1     -21.428  99.631  10.938  0.00  0.00    +0.000 A 
ATOM     16  C   UNL     1     -21.305  99.663   9.552  0.00  0.00    +0.000 A 
BRANCH  14  17
ATOM     17  N   UNL     1     -20.420  99.840  13.163  0.00  0.00    +0.000 N 
ATOM     18  O   UNL     1     -20.997  98.868  13.670  0.00  0.00    +0.000 OA
ATOM     19  O   UNL     1     -19.935 100.785  13.802  0.00  0.00    +0.000 OA
ENDBRANCH  14  17
ENDBRANCH   3  11
BRANCH   2  20
ATOM     20  C   UNL     1     -22.474 100.976   4.767  0.00  0.00    +0.000 A 
ATOM     21  C   UNL     1     -23.870 100.936   4.703  0.00  0.00    +0.000 A 
ATOM     22  C   UNL     1     -24.582 101.699   3.778  0.00  0.00    +0.000 A 
ATOM     23  C   UNL     1     -23.905 102.534   2.891  0.00  0.00    +0.000 A 
ATOM     24  C   UNL     1     -22.516 102.598   2.943  0.00  0.00    +0.000 A 
ATOM     25  C   UNL     1     -21.814 101.831   3.872  0.00  0.00    +0.000 A 
BRANCH  23  26
ATOM     26  O   UNL     1     -24.508 103.323   1.946  0.00  0.00    +0.000 OA
BRANCH  26  27
ATOM     27  C   UNL     1     -24.022 103.192   0.714  0.00  0.00    +0.000 C 
ATOM     28  C   UNL     1     -23.448 103.048  -0.701  0.00  0.00    +0.000 C 
ENDBRANCH  26  27
ENDBRANCH  23  26
ENDBRANCH   2  20
BRANCH   3  29
ATOM     29  O   UNL     1     -18.707 100.522   7.062  0.00  0.00    +0.000 OA
ATOM     30  H   UNL     1     -18.755 100.644   6.099  0.00  0.00    +0.000 HD
ENDBRANCH   3  29
TORSDOF 6
ENDMDL
MODEL 9
REMARK VINA RESULT:      -6.3     16.329     18.286
REMARK  Name = 5109870_Ethoxyphenyl.pdbqt.pdb
REMARK  6 active torsions:
REMARK  status: ('A' for Active; 'I' for Inactive)
REMARK    1  A    between atoms: N_2  and  C_22
REMARK    2  A    between atoms: C_3  and  O_11
REMARK    3  A    between atoms: C_3  and  C_13
REMARK    4  A    between atoms: C_16  and  N_19
REMARK    5  A    between atoms: C_25  and  O_28
REMARK    6  A    between atoms: O_28  and  C_29
REMARK                            x       y       z     vdW  Elec       q    Type
REMARK                         _______ _______ _______ _____ _____    ______ ____
ROOT
ATOM      1  N   UNL     1     -26.692  83.120  11.662  0.00  0.00    +0.000 N 
ATOM      2  N   UNL     1     -28.713  82.296  10.663  0.00  0.00    +0.000 N 
ATOM      3  C   UNL     1     -27.297  84.307  11.010  0.00  0.00    +0.000 C 
ATOM      4  C   UNL     1     -27.516  81.938  11.252  0.00  0.00    +0.000 C 
ATOM      5  C   UNL     1     -28.560  83.723  10.554  0.00  0.00    +0.000 C 
ATOM      6  C   UNL     1     -25.260  82.888  11.487  0.00  0.00    +0.000 C 
ATOM      7  C   UNL     1     -26.910  80.662  11.059  0.00  0.00    +0.000 C 
ATOM      8  C   UNL     1     -24.080  81.937  11.224  0.00  0.00    +0.000 C 
ATOM      9  C   UNL     1     -25.614  79.856  10.883  0.00  0.00    +0.000 C 
ATOM     10  C   UNL     1     -24.207  80.444  10.940  0.00  0.00    +0.000 C 
ENDROOT
BRANCH   3  11
ATOM     11  C   UNL     1     -27.443  85.458  11.978  0.00  0.00    +0.000 A 
ATOM     12  C   UNL     1     -26.324  86.092  12.536  0.00  0.00    +0.000 A 
ATOM     13  C   UNL     1     -26.466  87.180  13.393  0.00  0.00    +0.000 A 
ATOM     14  C   UNL     1     -27.745  87.646  13.683  0.00  0.00    +0.000 A 
ATOM     15  C   UNL     1     -28.877  87.051  13.134  0.00  0.00    +0.000 A 
ATOM     16  C   UNL     1     -28.717  85.964  12.280  0.00  0.00    +0.000 A 
BRANCH  14  17
ATOM     17  N   UNL     1     -27.901  88.778  14.576  0.00  0.00    +0.000 N 
ATOM     18  O   UNL     1     -27.560  89.892  14.155  0.00  0.00    +0.000 OA
ATOM     19  O   UNL     1     -28.368  88.562  15.703  0.00  0.00    +0.000 OA
ENDBRANCH  14  17
ENDBRANCH   3  11
BRANCH   2  20
ATOM     20  C   UNL     1     -29.665  81.557   9.943  0.00  0.00    +0.000 A 
ATOM     21  C   UNL     1     -30.774  80.973  10.563  0.00  0.00    +0.000 A 
ATOM     22  C   UNL     1     -31.727  80.260   9.835  0.00  0.00    +0.000 A 
ATOM     23  C   UNL     1     -31.594  80.123   8.455  0.00  0.00    +0.000 A 
ATOM     24  C   UNL     1     -30.504  80.705   7.814  0.00  0.00    +0.000 A 
ATOM     25  C   UNL     1     -29.557  81.415   8.552  0.00  0.00    +0.000 A 
BRANCH  23  26
ATOM     26  O   UNL     1     -32.472  79.445   7.649  0.00  0.00    +0.000 OA
BRANCH  26  27
ATOM     27  C   UNL     1     -31.908  78.588   6.802  0.00  0.00    +0.000 C 
ATOM     28  C   UNL     1     -31.261  77.610   5.813  0.00  0.00    +0.000 C 
ENDBRANCH  26  27
ENDBRANCH  23  26
ENDBRANCH   2  20
BRANCH   3  29
ATOM     29  O   UNL     1     -26.579  84.740   9.862  0.00  0.00    +0.000 OA
ATOM     30  H   UNL     1     -27.001  85.575   9.600  0.00  0.00    +0.000 HD
ENDBRANCH   3  29
TORSDOF 6
ENDMDL
