MODEL 1
REMARK VINA RESULT:      -7.0      0.000      0.000
REMARK  Name = 5280445_Luteolin.pdbqt.pdb
REMARK  5 active torsions:
REMARK  status: ('A' for Active; 'I' for Inactive)
REMARK    1  A    between atoms: C_5  and  C_12
REMARK    2  A    between atoms: C_8  and  O_22
REMARK    3  A    between atoms: C_10  and  O_24
REMARK    4  A    between atoms: C_15  and  O_18
REMARK    5  A    between atoms: C_17  and  O_20
REMARK                            x       y       z     vdW  Elec       q    Type
REMARK                         _______ _______ _______ _____ _____    ______ ____
ROOT
ATOM      1  O   UNL     1     -33.641 100.585  14.187  0.00  0.00    +0.000 OA
ATOM      2  O   UNL     1     -32.549  97.470  16.641  0.00  0.00    +0.000 OA
ATOM      3  C   UNL     1     -31.827  99.403  15.414  0.00  0.00    +0.000 A 
ATOM      4  C   UNL     1     -32.306 100.438  14.573  0.00  0.00    +0.000 A 
ATOM      5  C   UNL     1     -34.584  99.659  14.648  0.00  0.00    +0.000 A 
ATOM      6  C   UNL     1     -32.800  98.414  15.914  0.00  0.00    +0.000 A 
ATOM      7  C   UNL     1     -34.083  98.743  15.408  0.00  0.00    +0.000 A 
ATOM      8  C   UNL     1     -30.476  99.330  15.753  0.00  0.00    +0.000 A 
ATOM      9  C   UNL     1     -31.418 101.390  14.083  0.00  0.00    +0.000 A 
ATOM     10  C   UNL     1     -30.071 101.304  14.430  0.00  0.00    +0.000 A 
ATOM     11  C   UNL     1     -29.594 100.286  15.257  0.00  0.00    +0.000 A 
ENDROOT
BRANCH   5  12
ATOM     12  C   UNL     1     -35.976  99.814  14.243  0.00  0.00    +0.000 A 
ATOM     13  C   UNL     1     -37.007  99.600  15.161  0.00  0.00    +0.000 A 
ATOM     14  C   UNL     1     -36.303 100.181  12.931  0.00  0.00    +0.000 A 
ATOM     15  C   UNL     1     -38.330  99.750  14.765  0.00  0.00    +0.000 A 
ATOM     16  C   UNL     1     -37.631 100.332  12.532  0.00  0.00    +0.000 A 
ATOM     17  C   UNL     1     -38.641 100.114  13.460  0.00  0.00    +0.000 A 
BRANCH  15  18
ATOM     18  O   UNL     1     -39.329  99.538  15.673  0.00  0.00    +0.000 OA
ATOM     19  H   UNL     1     -39.666  98.641  15.476  0.00  0.00    +0.000 HD
ENDBRANCH  15  18
BRANCH  17  20
ATOM     20  O   UNL     1     -39.959 100.249  13.120  0.00  0.00    +0.000 OA
ATOM     21  H   UNL     1     -40.137 101.200  12.996  0.00  0.00    +0.000 HD
ENDBRANCH  17  20
ENDBRANCH   5  12
BRANCH   8  22
ATOM     22  O   UNL     1     -29.955  98.356  16.559  0.00  0.00    +0.000 OA
ATOM     23  H   UNL     1     -30.569  97.590  16.587  0.00  0.00    +0.000 HD
ENDBRANCH   8  22
BRANCH  10  24
ATOM     24  O   UNL     1     -29.217 102.248  13.936  0.00  0.00    +0.000 OA
ATOM     25  H   UNL     1     -29.732 102.870  13.391  0.00  0.00    +0.000 HD
ENDBRANCH  10  24
TORSDOF 5
ENDMDL
MODEL 2
REMARK VINA RESULT:      -6.9      1.423      3.021
REMARK  Name = 5280445_Luteolin.pdbqt.pdb
REMARK  5 active torsions:
REMARK  status: ('A' for Active; 'I' for Inactive)
REMARK    1  A    between atoms: C_5  and  C_12
REMARK    2  A    between atoms: C_8  and  O_22
REMARK    3  A    between atoms: C_10  and  O_24
REMARK    4  A    between atoms: C_15  and  O_18
REMARK    5  A    between atoms: C_17  and  O_20
REMARK                            x       y       z     vdW  Elec       q    Type
REMARK                         _______ _______ _______ _____ _____    ______ ____
ROOT
ATOM      1  O   UNL     1     -34.289  99.081  15.460  0.00  0.00    +0.000 OA
ATOM      2  O   UNL     1     -31.472 101.288  13.432  0.00  0.00    +0.000 OA
ATOM      3  C   UNL     1     -31.888  99.654  15.142  0.00  0.00    +0.000 A 
ATOM      4  C   UNL     1     -32.935  98.943  15.779  0.00  0.00    +0.000 A 
ATOM      5  C   UNL     1     -34.658  99.976  14.448  0.00  0.00    +0.000 A 
ATOM      6  C   UNL     1     -32.249 100.604  14.072  0.00  0.00    +0.000 A 
ATOM      7  C   UNL     1     -33.658 100.590  13.910  0.00  0.00    +0.000 A 
ATOM      8  C   UNL     1     -30.561  99.457  15.521  0.00  0.00    +0.000 A 
ATOM      9  C   UNL     1     -32.634  98.039  16.791  0.00  0.00    +0.000 A 
ATOM     10  C   UNL     1     -31.302  97.852  17.159  0.00  0.00    +0.000 A 
ATOM     11  C   UNL     1     -30.267  98.551  16.536  0.00  0.00    +0.000 A 
ENDROOT
BRANCH   5  12
ATOM     12  C   UNL     1     -36.070 100.117  14.117  0.00  0.00    +0.000 A 
ATOM     13  C   UNL     1     -36.510 101.191  13.339  0.00  0.00    +0.000 A 
ATOM     14  C   UNL     1     -37.009  99.181  14.572  0.00  0.00    +0.000 A 
ATOM     15  C   UNL     1     -37.859 101.317  13.030  0.00  0.00    +0.000 A 
ATOM     16  C   UNL     1     -38.363  99.306  14.262  0.00  0.00    +0.000 A 
ATOM     17  C   UNL     1     -38.780 100.381  13.487  0.00  0.00    +0.000 A 
BRANCH  15  18
ATOM     18  O   UNL     1     -38.275 102.371  12.268  0.00  0.00    +0.000 OA
ATOM     19  H   UNL     1     -38.328 102.021  11.356  0.00  0.00    +0.000 HD
ENDBRANCH  15  18
BRANCH  17  20
ATOM     20  O   UNL     1     -40.096 100.549  13.155  0.00  0.00    +0.000 OA
ATOM     21  H   UNL     1     -40.619 100.481  13.975  0.00  0.00    +0.000 HD
ENDBRANCH  17  20
ENDBRANCH   5  12
BRANCH   8  22
ATOM     22  O   UNL     1     -29.509 100.113  14.945  0.00  0.00    +0.000 OA
ATOM     23  H   UNL     1     -29.604 100.092  13.968  0.00  0.00    +0.000 HD
ENDBRANCH   8  22
BRANCH  10  24
ATOM     24  O   UNL     1     -31.029  96.960  18.156  0.00  0.00    +0.000 OA
ATOM     25  H   UNL     1     -30.847  97.460  18.972  0.00  0.00    +0.000 HD
ENDBRANCH  10  24
TORSDOF 5
ENDMDL
MODEL 3
REMARK VINA RESULT:      -6.6      2.135      6.977
REMARK  Name = 5280445_Luteolin.pdbqt.pdb
REMARK  5 active torsions:
REMARK  status: ('A' for Active; 'I' for Inactive)
REMARK    1  A    between atoms: C_5  and  C_12
REMARK    2  A    between atoms: C_8  and  O_22
REMARK    3  A    between atoms: C_10  and  O_24
REMARK    4  A    between atoms: C_15  and  O_18
REMARK    5  A    between atoms: C_17  and  O_20
REMARK                            x       y       z     vdW  Elec       q    Type
REMARK                         _______ _______ _______ _____ _____    ______ ____
ROOT
ATOM      1  O   UNL     1     -35.195 101.925  13.960  0.00  0.00    +0.000 OA
ATOM      2  O   UNL     1     -37.933  98.860  13.775  0.00  0.00    +0.000 OA
ATOM      3  C   UNL     1     -37.567 101.231  13.661  0.00  0.00    +0.000 A 
ATOM      4  C   UNL     1     -36.546 102.210  13.742  0.00  0.00    +0.000 A 
ATOM      5  C   UNL     1     -34.802 100.590  14.112  0.00  0.00    +0.000 A 
ATOM      6  C   UNL     1     -37.179  99.816  13.818  0.00  0.00    +0.000 A 
ATOM      7  C   UNL     1     -35.778  99.749  14.028  0.00  0.00    +0.000 A 
ATOM      8  C   UNL     1     -38.892 101.601  13.439  0.00  0.00    +0.000 A 
ATOM      9  C   UNL     1     -36.872 103.554  13.598  0.00  0.00    +0.000 A 
ATOM     10  C   UNL     1     -38.202 103.910  13.377  0.00  0.00    +0.000 A 
ATOM     11  C   UNL     1     -39.211 102.948  13.297  0.00  0.00    +0.000 A 
ENDROOT
BRANCH   5  12
ATOM     12  C   UNL     1     -33.393 100.295  14.340  0.00  0.00    +0.000 A 
ATOM     13  C   UNL     1     -33.012  99.113  14.980  0.00  0.00    +0.000 A 
ATOM     14  C   UNL     1     -32.398 101.189  13.920  0.00  0.00    +0.000 A 
ATOM     15  C   UNL     1     -31.666  98.842  15.193  0.00  0.00    +0.000 A 
ATOM     16  C   UNL     1     -31.047 100.917  14.133  0.00  0.00    +0.000 A 
ATOM     17  C   UNL     1     -30.689  99.737  14.771  0.00  0.00    +0.000 A 
BRANCH  15  18
ATOM     18  O   UNL     1     -31.308  97.683  15.820  0.00  0.00    +0.000 OA
ATOM     19  H   UNL     1     -30.566  97.930  16.408  0.00  0.00    +0.000 HD
ENDBRANCH  15  18
BRANCH  17  20
ATOM     20  O   UNL     1     -29.378  99.424  15.003  0.00  0.00    +0.000 OA
ATOM     21  H   UNL     1     -29.012  99.052  14.180  0.00  0.00    +0.000 HD
ENDBRANCH  17  20
ENDBRANCH   5  12
BRANCH   8  22
ATOM     22  O   UNL     1     -39.919 100.703  13.353  0.00  0.00    +0.000 OA
ATOM     23  H   UNL     1     -40.650 100.980  13.947  0.00  0.00    +0.000 HD
ENDBRANCH   8  22
BRANCH  10  24
ATOM     24  O   UNL     1     -38.500 105.235  13.239  0.00  0.00    +0.000 OA
ATOM     25  H   UNL     1     -37.750 105.754  13.581  0.00  0.00    +0.000 HD
ENDBRANCH  10  24
TORSDOF 5
ENDMDL
MODEL 4
REMARK VINA RESULT:      -6.4     14.456     17.645
REMARK  Name = 5280445_Luteolin.pdbqt.pdb
REMARK  5 active torsions:
REMARK  status: ('A' for Active; 'I' for Inactive)
REMARK    1  A    between atoms: C_5  and  C_12
REMARK    2  A    between atoms: C_8  and  O_22
REMARK    3  A    between atoms: C_10  and  O_24
REMARK    4  A    between atoms: C_15  and  O_18
REMARK    5  A    between atoms: C_17  and  O_20
REMARK                            x       y       z     vdW  Elec       q    Type
REMARK                         _______ _______ _______ _____ _____    ______ ____
ROOT
ATOM      1  O   UNL     1     -23.960 102.895   0.974  0.00  0.00    +0.000 OA
ATOM      2  O   UNL     1     -26.113 106.400   0.942  0.00  0.00    +0.000 OA
ATOM      3  C   UNL     1     -24.889 104.787  -0.349  0.00  0.00    +0.000 A 
ATOM      4  C   UNL     1     -24.164 103.576  -0.229  0.00  0.00    +0.000 A 
ATOM      5  C   UNL     1     -24.498 103.427   2.152  0.00  0.00    +0.000 A 
ATOM      6  C   UNL     1     -25.466 105.370   0.877  0.00  0.00    +0.000 A 
ATOM      7  C   UNL     1     -25.146 104.530   1.974  0.00  0.00    +0.000 A 
ATOM      8  C   UNL     1     -25.047 105.402  -1.591  0.00  0.00    +0.000 A 
ATOM      9  C   UNL     1     -23.605 102.996  -1.363  0.00  0.00    +0.000 A 
ATOM     10  C   UNL     1     -23.771 103.622  -2.597  0.00  0.00    +0.000 A 
ATOM     11  C   UNL     1     -24.484 104.815  -2.720  0.00  0.00    +0.000 A 
ENDROOT
BRANCH   5  12
ATOM     12  C   UNL     1     -24.284 102.715   3.406  0.00  0.00    +0.000 A 
ATOM     13  C   UNL     1     -24.784 101.421   3.578  0.00  0.00    +0.000 A 
ATOM     14  C   UNL     1     -23.574 103.313   4.456  0.00  0.00    +0.000 A 
ATOM     15  C   UNL     1     -24.575 100.752   4.777  0.00  0.00    +0.000 A 
ATOM     16  C   UNL     1     -23.364 102.641   5.661  0.00  0.00    +0.000 A 
ATOM     17  C   UNL     1     -23.869 101.356   5.812  0.00  0.00    +0.000 A 
BRANCH  15  18
ATOM     18  O   UNL     1     -25.068  99.488   4.932  0.00  0.00    +0.000 OA
ATOM     19  H   UNL     1     -24.405  99.021   5.479  0.00  0.00    +0.000 HD
ENDBRANCH  15  18
BRANCH  17  20
ATOM     20  O   UNL     1     -23.690 100.655   6.972  0.00  0.00    +0.000 OA
ATOM     21  H   UNL     1     -23.234 101.240   7.604  0.00  0.00    +0.000 HD
ENDBRANCH  17  20
ENDBRANCH   5  12
BRANCH   8  22
ATOM     22  O   UNL     1     -25.734 106.570  -1.769  0.00  0.00    +0.000 OA
ATOM     23  H   UNL     1     -25.872 107.006  -0.900  0.00  0.00    +0.000 HD
ENDBRANCH   8  22
BRANCH  10  24
ATOM     24  O   UNL     1     -23.213 103.036  -3.697  0.00  0.00    +0.000 OA
ATOM     25  H   UNL     1     -23.921 102.598  -4.201  0.00  0.00    +0.000 HD
ENDBRANCH  10  24
TORSDOF 5
ENDMDL
MODEL 5
REMARK VINA RESULT:      -6.3      1.846      2.265
REMARK  Name = 5280445_Luteolin.pdbqt.pdb
REMARK  5 active torsions:
REMARK  status: ('A' for Active; 'I' for Inactive)
REMARK    1  A    between atoms: C_5  and  C_12
REMARK    2  A    between atoms: C_8  and  O_22
REMARK    3  A    between atoms: C_10  and  O_24
REMARK    4  A    between atoms: C_15  and  O_18
REMARK    5  A    between atoms: C_17  and  O_20
REMARK                            x       y       z     vdW  Elec       q    Type
REMARK                         _______ _______ _______ _____ _____    ______ ____
ROOT
ATOM      1  O   UNL     1     -32.689  99.920  15.631  0.00  0.00    +0.000 OA
ATOM      2  O   UNL     1     -33.252  96.495  17.838  0.00  0.00    +0.000 OA
ATOM      3  C   UNL     1     -31.769  98.300  17.281  0.00  0.00    +0.000 A 
ATOM      4  C   UNL     1     -31.676  99.465  16.480  0.00  0.00    +0.000 A 
ATOM      5  C   UNL     1     -33.882  99.192  15.550  0.00  0.00    +0.000 A 
ATOM      6  C   UNL     1     -33.016  97.514  17.215  0.00  0.00    +0.000 A 
ATOM      7  C   UNL     1     -33.902  98.144  16.304  0.00  0.00    +0.000 A 
ATOM      8  C   UNL     1     -30.710  97.916  18.103  0.00  0.00    +0.000 A 
ATOM      9  C   UNL     1     -30.517 100.231  16.515  0.00  0.00    +0.000 A 
ATOM     10  C   UNL     1     -29.467  99.835  17.342  0.00  0.00    +0.000 A 
ATOM     11  C   UNL     1     -29.553  98.688  18.133  0.00  0.00    +0.000 A 
ENDROOT
BRANCH   5  12
ATOM     12  C   UNL     1     -34.937  99.669  14.665  0.00  0.00    +0.000 A 
ATOM     13  C   UNL     1     -36.217  99.112  14.725  0.00  0.00    +0.000 A 
ATOM     14  C   UNL     1     -34.686 100.692  13.740  0.00  0.00    +0.000 A 
ATOM     15  C   UNL     1     -37.215  99.574  13.876  0.00  0.00    +0.000 A 
ATOM     16  C   UNL     1     -35.688 101.156  12.887  0.00  0.00    +0.000 A 
ATOM     17  C   UNL     1     -36.953 100.589  12.963  0.00  0.00    +0.000 A 
BRANCH  15  18
ATOM     18  O   UNL     1     -38.462  99.021  13.946  0.00  0.00    +0.000 OA
ATOM     19  H   UNL     1     -38.692  98.793  13.023  0.00  0.00    +0.000 HD
ENDBRANCH  15  18
BRANCH  17  20
ATOM     20  O   UNL     1     -37.970 101.009  12.149  0.00  0.00    +0.000 OA
ATOM     21  H   UNL     1     -37.598 101.147  11.259  0.00  0.00    +0.000 HD
ENDBRANCH  17  20
ENDBRANCH   5  12
BRANCH   8  22
ATOM     22  O   UNL     1     -30.741  96.803  18.897  0.00  0.00    +0.000 OA
ATOM     23  H   UNL     1     -30.003  96.204  18.652  0.00  0.00    +0.000 HD
ENDBRANCH   8  22
BRANCH  10  24
ATOM     24  O   UNL     1     -28.337 100.601  17.360  0.00  0.00    +0.000 OA
ATOM     25  H   UNL     1     -28.604 101.536  17.418  0.00  0.00    +0.000 HD
ENDBRANCH  10  24
TORSDOF 5
ENDMDL
MODEL 6
REMARK VINA RESULT:      -6.2      1.670      7.003
REMARK  Name = 5280445_Luteolin.pdbqt.pdb
REMARK  5 active torsions:
REMARK  status: ('A' for Active; 'I' for Inactive)
REMARK    1  A    between atoms: C_5  and  C_12
REMARK    2  A    between atoms: C_8  and  O_22
REMARK    3  A    between atoms: C_10  and  O_24
REMARK    4  A    between atoms: C_15  and  O_18
REMARK    5  A    between atoms: C_17  and  O_20
REMARK                            x       y       z     vdW  Elec       q    Type
REMARK                         _______ _______ _______ _____ _____    ______ ____
ROOT
ATOM      1  O   UNL     1     -33.251 100.640  14.240  0.00  0.00    +0.000 OA
ATOM      2  O   UNL     1     -34.500  98.191  17.299  0.00  0.00    +0.000 OA
ATOM      3  C   UNL     1     -35.102  99.339  15.278  0.00  0.00    +0.000 A 
ATOM      4  C   UNL     1     -34.572 100.185  14.272  0.00  0.00    +0.000 A 
ATOM      5  C   UNL     1     -32.376 100.248  15.260  0.00  0.00    +0.000 A 
ATOM      6  C   UNL     1     -34.200  98.912  16.365  0.00  0.00    +0.000 A 
ATOM      7  C   UNL     1     -32.920  99.480  16.143  0.00  0.00    +0.000 A 
ATOM      8  C   UNL     1     -36.434  98.930  15.235  0.00  0.00    +0.000 A 
ATOM      9  C   UNL     1     -35.391 100.608  13.231  0.00  0.00    +0.000 A 
ATOM     10  C   UNL     1     -36.721 100.191  13.201  0.00  0.00    +0.000 A 
ATOM     11  C   UNL     1     -37.247  99.359  14.190  0.00  0.00    +0.000 A 
ENDROOT
BRANCH   5  12
ATOM     12  C   UNL     1     -30.999 100.724  15.223  0.00  0.00    +0.000 A 
ATOM     13  C   UNL     1     -30.572 101.577  14.201  0.00  0.00    +0.000 A 
ATOM     14  C   UNL     1     -30.082 100.338  16.210  0.00  0.00    +0.000 A 
ATOM     15  C   UNL     1     -29.257 102.024  14.176  0.00  0.00    +0.000 A 
ATOM     16  C   UNL     1     -28.761 100.787  16.185  0.00  0.00    +0.000 A 
ATOM     17  C   UNL     1     -28.357 101.633  15.161  0.00  0.00    +0.000 A 
BRANCH  15  18
ATOM     18  O   UNL     1     -28.853 102.857  13.171  0.00  0.00    +0.000 OA
ATOM     19  H   UNL     1     -27.876 102.835  13.200  0.00  0.00    +0.000 HD
ENDBRANCH  15  18
BRANCH  17  20
ATOM     20  O   UNL     1     -27.074 102.102  15.091  0.00  0.00    +0.000 OA
ATOM     21  H   UNL     1     -26.896 102.601  15.908  0.00  0.00    +0.000 HD
ENDBRANCH  17  20
ENDBRANCH   5  12
BRANCH   8  22
ATOM     22  O   UNL     1     -37.001  98.116  16.176  0.00  0.00    +0.000 OA
ATOM     23  H   UNL     1     -36.368  97.406  16.421  0.00  0.00    +0.000 HD
ENDBRANCH   8  22
BRANCH  10  24
ATOM     24  O   UNL     1     -37.507 100.619  12.171  0.00  0.00    +0.000 OA
ATOM     25  H   UNL     1     -38.038  99.865  11.857  0.00  0.00    +0.000 HD
ENDBRANCH  10  24
TORSDOF 5
ENDMDL
MODEL 7
REMARK VINA RESULT:      -6.2     12.385     15.588
REMARK  Name = 5280445_Luteolin.pdbqt.pdb
REMARK  5 active torsions:
REMARK  status: ('A' for Active; 'I' for Inactive)
REMARK    1  A    between atoms: C_5  and  C_12
REMARK    2  A    between atoms: C_8  and  O_22
REMARK    3  A    between atoms: C_10  and  O_24
REMARK    4  A    between atoms: C_15  and  O_18
REMARK    5  A    between atoms: C_17  and  O_20
REMARK                            x       y       z     vdW  Elec       q    Type
REMARK                         _______ _______ _______ _____ _____    ______ ____
ROOT
ATOM      1  O   UNL     1     -41.142 102.582   3.456  0.00  0.00    +0.000 OA
ATOM      2  O   UNL     1     -42.662 100.462   0.276  0.00  0.00    +0.000 OA
ATOM      3  C   UNL     1     -43.054 101.320   2.484  0.00  0.00    +0.000 A 
ATOM      4  C   UNL     1     -42.438 102.062   3.521  0.00  0.00    +0.000 A 
ATOM      5  C   UNL     1     -40.384 102.367   2.298  0.00  0.00    +0.000 A 
ATOM      6  C   UNL     1     -42.277 101.078   1.253  0.00  0.00    +0.000 A 
ATOM      7  C   UNL     1     -41.003 101.685   1.393  0.00  0.00    +0.000 A 
ATOM      8  C   UNL     1     -44.354 100.836   2.630  0.00  0.00    +0.000 A 
ATOM      9  C   UNL     1     -43.138 102.311   4.697  0.00  0.00    +0.000 A 
ATOM     10  C   UNL     1     -44.436 101.821   4.829  0.00  0.00    +0.000 A 
ATOM     11  C   UNL     1     -45.048 101.089   3.810  0.00  0.00    +0.000 A 
ENDROOT
BRANCH   5  12
ATOM     12  C   UNL     1     -39.034 102.911   2.232  0.00  0.00    +0.000 A 
ATOM     13  C   UNL     1     -38.071 102.528   3.170  0.00  0.00    +0.000 A 
ATOM     14  C   UNL     1     -38.678 103.823   1.230  0.00  0.00    +0.000 A 
ATOM     15  C   UNL     1     -36.787 103.053   3.099  0.00  0.00    +0.000 A 
ATOM     16  C   UNL     1     -37.388 104.350   1.158  0.00  0.00    +0.000 A 
ATOM     17  C   UNL     1     -36.447 103.957   2.099  0.00  0.00    +0.000 A 
BRANCH  15  18
ATOM     18  O   UNL     1     -35.856 102.671   4.022  0.00  0.00    +0.000 OA
ATOM     19  H   UNL     1     -34.993 102.913   3.629  0.00  0.00    +0.000 HD
ENDBRANCH  15  18
BRANCH  17  20
ATOM     20  O   UNL     1     -35.169 104.445   2.072  0.00  0.00    +0.000 OA
ATOM     21  H   UNL     1     -34.561 103.687   2.142  0.00  0.00    +0.000 HD
ENDBRANCH  17  20
ENDBRANCH   5  12
BRANCH   8  22
ATOM     22  O   UNL     1     -45.000 100.114   1.666  0.00  0.00    +0.000 OA
ATOM     23  H   UNL     1     -45.295  99.255   2.041  0.00  0.00    +0.000 HD
ENDBRANCH   8  22
BRANCH  10  24
ATOM     24  O   UNL     1     -45.106 102.076   5.991  0.00  0.00    +0.000 OA
ATOM     25  H   UNL     1     -46.018 102.332   5.768  0.00  0.00    +0.000 HD
ENDBRANCH  10  24
TORSDOF 5
ENDMDL
MODEL 8
REMARK VINA RESULT:      -6.0      2.753      6.650
REMARK  Name = 5280445_Luteolin.pdbqt.pdb
REMARK  5 active torsions:
REMARK  status: ('A' for Active; 'I' for Inactive)
REMARK    1  A    between atoms: C_5  and  C_12
REMARK    2  A    between atoms: C_8  and  O_22
REMARK    3  A    between atoms: C_10  and  O_24
REMARK    4  A    between atoms: C_15  and  O_18
REMARK    5  A    between atoms: C_17  and  O_20
REMARK                            x       y       z     vdW  Elec       q    Type
REMARK                         _______ _______ _______ _____ _____    ______ ____
ROOT
ATOM      1  O   UNL     1     -36.256  98.495  16.027  0.00  0.00    +0.000 OA
ATOM      2  O   UNL     1     -33.309 100.450  13.926  0.00  0.00    +0.000 OA
ATOM      3  C   UNL     1     -35.652  99.958  14.105  0.00  0.00    +0.000 A 
ATOM      4  C   UNL     1     -36.589  99.248  14.897  0.00  0.00    +0.000 A 
ATOM      5  C   UNL     1     -34.914  98.424  16.420  0.00  0.00    +0.000 A 
ATOM      6  C   UNL     1     -34.232  99.899  14.498  0.00  0.00    +0.000 A 
ATOM      7  C   UNL     1     -34.114  99.092  15.658  0.00  0.00    +0.000 A 
ATOM      8  C   UNL     1     -36.069 100.687  12.992  0.00  0.00    +0.000 A 
ATOM      9  C   UNL     1     -37.938  99.280  14.558  0.00  0.00    +0.000 A 
ATOM     10  C   UNL     1     -38.339 100.012  13.442  0.00  0.00    +0.000 A 
ATOM     11  C   UNL     1     -37.420 100.713  12.659  0.00  0.00    +0.000 A 
ENDROOT
BRANCH   5  12
ATOM     12  C   UNL     1     -34.570  97.639  17.599  0.00  0.00    +0.000 A 
ATOM     13  C   UNL     1     -35.571  97.015  18.350  0.00  0.00    +0.000 A 
ATOM     14  C   UNL     1     -33.235  97.495  17.998  0.00  0.00    +0.000 A 
ATOM     15  C   UNL     1     -35.232  96.270  19.472  0.00  0.00    +0.000 A 
ATOM     16  C   UNL     1     -32.894  96.746  19.125  0.00  0.00    +0.000 A 
ATOM     17  C   UNL     1     -33.903  96.135  19.858  0.00  0.00    +0.000 A 
BRANCH  15  18
ATOM     18  O   UNL     1     -36.219  95.666  20.197  0.00  0.00    +0.000 OA
ATOM     19  H   UNL     1     -36.169  96.073  21.085  0.00  0.00    +0.000 HD
ENDBRANCH  15  18
BRANCH  17  20
ATOM     20  O   UNL     1     -33.621  95.390  20.970  0.00  0.00    +0.000 OA
ATOM     21  H   UNL     1     -34.273  95.625  21.656  0.00  0.00    +0.000 HD
ENDBRANCH  17  20
ENDBRANCH   5  12
BRANCH   8  22
ATOM     22  O   UNL     1     -35.214 101.390  12.191  0.00  0.00    +0.000 OA
ATOM     23  H   UNL     1     -35.632 102.239  11.929  0.00  0.00    +0.000 HD
ENDBRANCH   8  22
BRANCH  10  24
ATOM     24  O   UNL     1     -39.668 100.029  13.127  0.00  0.00    +0.000 OA
ATOM     25  H   UNL     1     -40.131  99.414  13.724  0.00  0.00    +0.000 HD
ENDBRANCH  10  24
TORSDOF 5
ENDMDL
MODEL 9
REMARK VINA RESULT:      -5.9      5.102      9.032
REMARK  Name = 5280445_Luteolin.pdbqt.pdb
REMARK  5 active torsions:
REMARK  status: ('A' for Active; 'I' for Inactive)
REMARK    1  A    between atoms: C_5  and  C_12
REMARK    2  A    between atoms: C_8  and  O_22
REMARK    3  A    between atoms: C_10  and  O_24
REMARK    4  A    between atoms: C_15  and  O_18
REMARK    5  A    between atoms: C_17  and  O_20
REMARK                            x       y       z     vdW  Elec       q    Type
REMARK                         _______ _______ _______ _____ _____    ______ ____
ROOT
ATOM      1  O   UNL     1     -28.805  99.961  18.869  0.00  0.00    +0.000 OA
ATOM      2  O   UNL     1     -31.324  96.755  18.330  0.00  0.00    +0.000 OA
ATOM      3  C   UNL     1     -30.219  98.628  17.313  0.00  0.00    +0.000 A 
ATOM      4  C   UNL     1     -29.344  99.704  17.605  0.00  0.00    +0.000 A 
ATOM      5  C   UNL     1     -29.139  99.113  19.932  0.00  0.00    +0.000 A 
ATOM      6  C   UNL     1     -30.587  97.720  18.416  0.00  0.00    +0.000 A 
ATOM      7  C   UNL     1     -29.939  98.156  19.600  0.00  0.00    +0.000 A 
ATOM      8  C   UNL     1     -30.711  98.441  16.022  0.00  0.00    +0.000 A 
ATOM      9  C   UNL     1     -28.973 100.581  16.591  0.00  0.00    +0.000 A 
ATOM     10  C   UNL     1     -29.473 100.382  15.306  0.00  0.00    +0.000 A 
ATOM     11  C   UNL     1     -30.336  99.324  15.014  0.00  0.00    +0.000 A 
ENDROOT
BRANCH   5  12
ATOM     12  C   UNL     1     -28.576  99.384  21.249  0.00  0.00    +0.000 A 
ATOM     13  C   UNL     1     -28.578  98.394  22.236  0.00  0.00    +0.000 A 
ATOM     14  C   UNL     1     -28.023 100.637  21.547  0.00  0.00    +0.000 A 
ATOM     15  C   UNL     1     -28.039  98.663  23.488  0.00  0.00    +0.000 A 
ATOM     16  C   UNL     1     -27.482 100.907  22.804  0.00  0.00    +0.000 A 
ATOM     17  C   UNL     1     -27.494  99.910  23.771  0.00  0.00    +0.000 A 
BRANCH  15  18
ATOM     18  O   UNL     1     -28.048  97.687  24.443  0.00  0.00    +0.000 OA
ATOM     19  H   UNL     1     -28.972  97.649  24.761  0.00  0.00    +0.000 HD
ENDBRANCH  15  18
BRANCH  17  20
ATOM     20  O   UNL     1     -26.976 100.125  25.018  0.00  0.00    +0.000 OA
ATOM     21  H   UNL     1     -26.372 100.887  24.961  0.00  0.00    +0.000 HD
ENDBRANCH  17  20
ENDBRANCH   5  12
BRANCH   8  22
ATOM     22  O   UNL     1     -31.558  97.424  15.681  0.00  0.00    +0.000 OA
ATOM     23  H   UNL     1     -31.351  96.629  16.219  0.00  0.00    +0.000 HD
ENDBRANCH   8  22
BRANCH  10  24
ATOM     24  O   UNL     1     -29.097 101.255  14.326  0.00  0.00    +0.000 OA
ATOM     25  H   UNL     1     -28.756 100.740  13.573  0.00  0.00    +0.000 HD
ENDBRANCH  10  24
TORSDOF 5
ENDMDL
