MODEL 1
REMARK VINA RESULT:      -6.6      0.000      0.000
REMARK  Name = 5281239_Fucoxanthin.pdbqt.pdb
REMARK  19 active torsions:
REMARK  status: ('A' for Active; 'I' for Inactive)
REMARK    1  A    between atoms: C_1  and  C_5
REMARK    2  A    between atoms: C_2  and  C_26
REMARK    3  A    between atoms: C_3  and  C_5
REMARK    4  A    between atoms: C_3  and  C_7
REMARK    5  A    between atoms: C_6  and  C_10
REMARK    6  A    between atoms: C_8  and  C_10
REMARK    7  A    between atoms: C_8  and  C_12
REMARK    8  A    between atoms: C_12  and  C_13
REMARK    9  A    between atoms: C_13  and  C_15
REMARK   10  A    between atoms: C_20  and  O_24
REMARK   11  A    between atoms: C_26  and  C_27
REMARK   12  A    between atoms: C_27  and  C_30
REMARK   13  A    between atoms: C_29  and  C_33
REMARK   14  A    between atoms: C_31  and  C_33
REMARK   15  A    between atoms: C_31  and  C_44
REMARK   16  A    between atoms: C_35  and  O_45
REMARK   17  A    between atoms: C_37  and  O_47
REMARK   18  A    between atoms: C_39  and  C_43
REMARK   19  A    between atoms: O_47  and  C_49
REMARK                            x       y       z     vdW  Elec       q    Type
REMARK                         _______ _______ _______ _____ _____    ______ ____
ROOT
ATOM      1  C   UNL     1     -29.052  93.793  25.510  0.00  0.00    +0.000 C 
ATOM      2  C   UNL     1     -28.431  94.816  25.598  0.00  0.00    +0.000 C 
ENDROOT
BRANCH   2   3
ATOM      3  C   UNL     1     -27.636  96.122  25.718  0.00  0.00    +0.000 C 
BRANCH   3   4
ATOM      4  C   UNL     1     -26.968  97.228  25.818  0.00  0.00    +0.000 C 
ATOM      5  C   UNL     1     -25.938  97.385  26.896  0.00  0.00    +0.000 C 
BRANCH   4   7
ATOM      6  C   UNL     1     -27.354  99.145  24.080  0.00  0.00    +0.000 C 
ATOM      7  C   UNL     1     -27.176  98.266  24.879  0.00  0.00    +0.000 C 
BRANCH   6   8
ATOM      8  C   UNL     1     -27.586 100.265  23.059  0.00  0.00    +0.000 C 
BRANCH   8   9
ATOM      9  C   UNL     1     -27.781 101.205  22.188  0.00  0.00    +0.000 C 
ATOM     10  C   UNL     1     -27.569 102.639  22.566  0.00  0.00    +0.000 C 
BRANCH   9  12
ATOM     11  C   UNL     1     -28.751 100.607  19.829  0.00  0.00    +0.000 C 
ATOM     12  C   UNL     1     -28.307 100.885  20.912  0.00  0.00    +0.000 C 
BRANCH  11  18
ATOM     13  C   UNL     1     -29.436 101.356  17.538  0.00  0.00    +0.000 C 
ATOM     14  C   UNL     1     -29.674  98.884  18.312  0.00  0.00    +0.000 C 
ATOM     15  C   UNL     1     -29.695 100.723  16.237  0.00  0.00    +0.000 C 
ATOM     16  C   UNL     1     -29.909  99.440  15.698  0.00  0.00    +0.000 C 
ATOM     17  C   UNL     1     -29.854  98.673  16.880  0.00  0.00    +0.000 C 
ATOM     18  C   UNL     1     -29.234 100.302  18.640  0.00  0.00    +0.000 C 
ATOM     19  C   UNL     1     -30.632 102.262  17.934  0.00  0.00    +0.000 C 
ATOM     20  C   UNL     1     -28.141 102.215  17.410  0.00  0.00    +0.000 C 
ATOM     21  C   UNL     1     -30.936  98.509  19.095  0.00  0.00    +0.000 C 
BRANCH  14  22
ATOM     22  O   UNL     1     -28.688  97.979  18.757  0.00  0.00    +0.000 OA
ATOM     23  H   UNL     1     -28.433  98.375  19.610  0.00  0.00    +0.000 HD
ENDBRANCH  14  22
BRANCH  16  24
ATOM     24  O   UNL     1     -30.938  99.253  14.785  0.00  0.00    +0.000 OA
BRANCH  24  26
ATOM     25  O   UNL     1     -32.064  97.332  15.526  0.00  0.00    +0.000 OA
ATOM     26  C   UNL     1     -31.936  98.530  15.353  0.00  0.00    +0.000 C 
ATOM     27  C   UNL     1     -33.079  99.348  15.839  0.00  0.00    +0.000 C 
ENDBRANCH  24  26
ENDBRANCH  16  24
ENDBRANCH  11  18
ENDBRANCH   9  12
ENDBRANCH   8   9
ENDBRANCH   6   8
ENDBRANCH   4   7
ENDBRANCH   3   4
ENDBRANCH   2   3
BRANCH   1  28
ATOM     28  C   UNL     1     -29.842  92.484  25.408  0.00  0.00    +0.000 C 
BRANCH  28  29
ATOM     29  C   UNL     1     -30.519  91.383  25.315  0.00  0.00    +0.000 C 
ATOM     30  C   UNL     1     -30.167  90.212  26.181  0.00  0.00    +0.000 C 
BRANCH  29  32
ATOM     31  C   UNL     1     -32.455  91.174  23.567  0.00  0.00    +0.000 C 
ATOM     32  C   UNL     1     -31.565  91.278  24.367  0.00  0.00    +0.000 C 
BRANCH  31  33
ATOM     33  C   UNL     1     -33.591  91.027  22.549  0.00  0.00    +0.000 C 
BRANCH  33  34
ATOM     34  C   UNL     1     -34.552  90.893  21.682  0.00  0.00    +0.000 C 
ATOM     35  C   UNL     1     -35.848  91.617  21.984  0.00  0.00    +0.000 C 
BRANCH  34  37
ATOM     36  O   UNL     1     -35.262  89.296  20.054  0.00  0.00    +0.000 OA
ATOM     37  C   UNL     1     -34.371  90.023  20.480  0.00  0.00    +0.000 C 
BRANCH  37  38
ATOM     38  C   UNL     1     -33.121  90.005  19.758  0.00  0.00    +0.000 C 
BRANCH  38  40
ATOM     39  O   UNL     1     -31.428  88.614  18.839  0.00  0.00    +0.000 OA
ATOM     40  C   UNL     1     -31.883  89.986  19.002  0.00  0.00    +0.000 C 
ATOM     41  C   UNL     1     -31.843  89.263  17.639  0.00  0.00    +0.000 C 
ATOM     42  C   UNL     1     -30.777  91.061  19.301  0.00  0.00    +0.000 C 
ATOM     43  C   UNL     1     -30.743  89.556  16.777  0.00  0.00    +0.000 C 
ATOM     44  C   UNL     1     -29.801  90.984  18.212  0.00  0.00    +0.000 C 
ATOM     45  C   UNL     1     -29.620  90.383  16.951  0.00  0.00    +0.000 C 
ATOM     46  C   UNL     1     -33.078  88.623  16.999  0.00  0.00    +0.000 C 
ATOM     47  C   UNL     1     -31.513  92.423  19.297  0.00  0.00    +0.000 C 
ATOM     48  C   UNL     1     -30.203  90.704  20.690  0.00  0.00    +0.000 C 
BRANCH  45  49
ATOM     49  O   UNL     1     -29.031  91.052  15.922  0.00  0.00    +0.000 OA
ATOM     50  H   UNL     1     -29.007  92.014  16.070  0.00  0.00    +0.000 HD
ENDBRANCH  45  49
ENDBRANCH  38  40
ENDBRANCH  37  38
ENDBRANCH  34  37
ENDBRANCH  33  34
ENDBRANCH  31  33
ENDBRANCH  29  32
ENDBRANCH  28  29
ENDBRANCH   1  28
TORSDOF 19
ENDMDL
MODEL 2
REMARK VINA RESULT:      -6.0     10.270     15.784
REMARK  Name = 5281239_Fucoxanthin.pdbqt.pdb
REMARK  19 active torsions:
REMARK  status: ('A' for Active; 'I' for Inactive)
REMARK    1  A    between atoms: C_1  and  C_5
REMARK    2  A    between atoms: C_2  and  C_26
REMARK    3  A    between atoms: C_3  and  C_5
REMARK    4  A    between atoms: C_3  and  C_7
REMARK    5  A    between atoms: C_6  and  C_10
REMARK    6  A    between atoms: C_8  and  C_10
REMARK    7  A    between atoms: C_8  and  C_12
REMARK    8  A    between atoms: C_12  and  C_13
REMARK    9  A    between atoms: C_13  and  C_15
REMARK   10  A    between atoms: C_20  and  O_24
REMARK   11  A    between atoms: C_26  and  C_27
REMARK   12  A    between atoms: C_27  and  C_30
REMARK   13  A    between atoms: C_29  and  C_33
REMARK   14  A    between atoms: C_31  and  C_33
REMARK   15  A    between atoms: C_31  and  C_44
REMARK   16  A    between atoms: C_35  and  O_45
REMARK   17  A    between atoms: C_37  and  O_47
REMARK   18  A    between atoms: C_39  and  C_43
REMARK   19  A    between atoms: O_47  and  C_49
REMARK                            x       y       z     vdW  Elec       q    Type
REMARK                         _______ _______ _______ _____ _____    ______ ____
ROOT
ATOM      1  C   UNL     1     -34.431 107.000  13.177  0.00  0.00    +0.000 C 
ATOM      2  C   UNL     1     -34.630 107.593  12.152  0.00  0.00    +0.000 C 
ENDROOT
BRANCH   2   3
ATOM      3  C   UNL     1     -34.883 108.356  10.847  0.00  0.00    +0.000 C 
BRANCH   3   4
ATOM      4  C   UNL     1     -35.101 109.001   9.744  0.00  0.00    +0.000 C 
ATOM      5  C   UNL     1     -35.365 110.475   9.779  0.00  0.00    +0.000 C 
BRANCH   4   7
ATOM      6  C   UNL     1     -34.982 107.745   7.451  0.00  0.00    +0.000 C 
ATOM      7  C   UNL     1     -35.038 108.321   8.504  0.00  0.00    +0.000 C 
BRANCH   6   8
ATOM      8  C   UNL     1     -34.906 107.011   6.108  0.00  0.00    +0.000 C 
BRANCH   8   9
ATOM      9  C   UNL     1     -34.852 106.388   4.972  0.00  0.00    +0.000 C 
ATOM     10  C   UNL     1     -33.732 106.661   4.015  0.00  0.00    +0.000 C 
BRANCH   9  12
ATOM     11  C   UNL     1     -36.819 104.814   4.252  0.00  0.00    +0.000 C 
ATOM     12  C   UNL     1     -35.916 105.535   4.585  0.00  0.00    +0.000 C 
BRANCH  11  18
ATOM     13  C   UNL     1     -37.754 103.168   2.610  0.00  0.00    +0.000 C 
ATOM     14  C   UNL     1     -39.103 103.970   4.685  0.00  0.00    +0.000 C 
ATOM     15  C   UNL     1     -38.836 102.174   2.589  0.00  0.00    +0.000 C 
ATOM     16  C   UNL     1     -39.975 101.821   3.337  0.00  0.00    +0.000 C 
ATOM     17  C   UNL     1     -39.928 102.821   4.330  0.00  0.00    +0.000 C 
ATOM     18  C   UNL     1     -37.811 104.028   3.886  0.00  0.00    +0.000 C 
ATOM     19  C   UNL     1     -37.871 104.105   1.378  0.00  0.00    +0.000 C 
ATOM     20  C   UNL     1     -36.395 102.406   2.569  0.00  0.00    +0.000 C 
ATOM     21  C   UNL     1     -39.885 105.280   4.554  0.00  0.00    +0.000 C 
BRANCH  14  22
ATOM     22  O   UNL     1     -38.794 103.867   6.057  0.00  0.00    +0.000 OA
ATOM     23  H   UNL     1     -38.647 102.908   6.151  0.00  0.00    +0.000 HD
ENDBRANCH  14  22
BRANCH  16  24
ATOM     24  O   UNL     1     -41.163 101.545   2.672  0.00  0.00    +0.000 OA
BRANCH  24  26
ATOM     25  O   UNL     1     -40.861 102.278   0.464  0.00  0.00    +0.000 OA
ATOM     26  C   UNL     1     -41.293 102.363   1.598  0.00  0.00    +0.000 C 
ATOM     27  C   UNL     1     -42.098 103.587   1.860  0.00  0.00    +0.000 C 
ENDBRANCH  24  26
ENDBRANCH  16  24
ENDBRANCH  11  18
ENDBRANCH   9  12
ENDBRANCH   8   9
ENDBRANCH   6   8
ENDBRANCH   4   7
ENDBRANCH   3   4
ENDBRANCH   2   3
BRANCH   1  28
ATOM     28  C   UNL     1     -34.176 106.252  14.490  0.00  0.00    +0.000 C 
BRANCH  28  29
ATOM     29  C   UNL     1     -33.968 105.627  15.606  0.00  0.00    +0.000 C 
ATOM     30  C   UNL     1     -33.220 106.302  16.715  0.00  0.00    +0.000 C 
BRANCH  29  32
ATOM     31  C   UNL     1     -34.809 103.165  15.887  0.00  0.00    +0.000 C 
ATOM     32  C   UNL     1     -34.415 104.293  15.758  0.00  0.00    +0.000 C 
BRANCH  31  33
ATOM     33  C   UNL     1     -35.326 101.731  16.053  0.00  0.00    +0.000 C 
BRANCH  33  34
ATOM     34  C   UNL     1     -35.765 100.517  16.202  0.00  0.00    +0.000 C 
ATOM     35  C   UNL     1     -36.985 100.335  17.081  0.00  0.00    +0.000 C 
BRANCH  34  37
ATOM     36  O   UNL     1     -35.495  98.782  14.581  0.00  0.00    +0.000 OA
ATOM     37  C   UNL     1     -35.050  99.370  15.562  0.00  0.00    +0.000 C 
BRANCH  37  38
ATOM     38  C   UNL     1     -33.785  98.902  16.077  0.00  0.00    +0.000 C 
BRANCH  38  40
ATOM     39  O   UNL     1     -31.855  97.590  15.631  0.00  0.00    +0.000 OA
ATOM     40  C   UNL     1     -32.504  98.464  16.596  0.00  0.00    +0.000 C 
ATOM     41  C   UNL     1     -31.214  98.847  15.839  0.00  0.00    +0.000 C 
ATOM     42  C   UNL     1     -32.380  98.054  18.107  0.00  0.00    +0.000 C 
ATOM     43  C   UNL     1     -29.979  98.711  16.543  0.00  0.00    +0.000 C 
ATOM     44  C   UNL     1     -30.949  97.953  18.406  0.00  0.00    +0.000 C 
ATOM     45  C   UNL     1     -29.694  98.240  17.836  0.00  0.00    +0.000 C 
ATOM     46  C   UNL     1     -31.212  99.741  14.596  0.00  0.00    +0.000 C 
ATOM     47  C   UNL     1     -33.036  99.208  18.903  0.00  0.00    +0.000 C 
ATOM     48  C   UNL     1     -33.150  96.723  18.251  0.00  0.00    +0.000 C 
BRANCH  45  49
ATOM     49  O   UNL     1     -28.666  98.725  18.587  0.00  0.00    +0.000 OA
ATOM     50  H   UNL     1     -27.963  98.065  18.724  0.00  0.00    +0.000 HD
ENDBRANCH  45  49
ENDBRANCH  38  40
ENDBRANCH  37  38
ENDBRANCH  34  37
ENDBRANCH  33  34
ENDBRANCH  31  33
ENDBRANCH  29  32
ENDBRANCH  28  29
ENDBRANCH   1  28
TORSDOF 19
ENDMDL
MODEL 3
REMARK VINA RESULT:      -5.9     18.905     25.215
REMARK  Name = 5281239_Fucoxanthin.pdbqt.pdb
REMARK  19 active torsions:
REMARK  status: ('A' for Active; 'I' for Inactive)
REMARK    1  A    between atoms: C_1  and  C_5
REMARK    2  A    between atoms: C_2  and  C_26
REMARK    3  A    between atoms: C_3  and  C_5
REMARK    4  A    between atoms: C_3  and  C_7
REMARK    5  A    between atoms: C_6  and  C_10
REMARK    6  A    between atoms: C_8  and  C_10
REMARK    7  A    between atoms: C_8  and  C_12
REMARK    8  A    between atoms: C_12  and  C_13
REMARK    9  A    between atoms: C_13  and  C_15
REMARK   10  A    between atoms: C_20  and  O_24
REMARK   11  A    between atoms: C_26  and  C_27
REMARK   12  A    between atoms: C_27  and  C_30
REMARK   13  A    between atoms: C_29  and  C_33
REMARK   14  A    between atoms: C_31  and  C_33
REMARK   15  A    between atoms: C_31  and  C_44
REMARK   16  A    between atoms: C_35  and  O_45
REMARK   17  A    between atoms: C_37  and  O_47
REMARK   18  A    between atoms: C_39  and  C_43
REMARK   19  A    between atoms: O_47  and  C_49
REMARK                            x       y       z     vdW  Elec       q    Type
REMARK                         _______ _______ _______ _____ _____    ______ ____
ROOT
ATOM      1  C   UNL     1     -21.877 100.198   3.769  0.00  0.00    +0.000 C 
ATOM      2  C   UNL     1     -21.084  99.388   4.161  0.00  0.00    +0.000 C 
ENDROOT
BRANCH   2   3
ATOM      3  C   UNL     1     -20.074  98.352   4.668  0.00  0.00    +0.000 C 
BRANCH   3   4
ATOM      4  C   UNL     1     -19.223  97.474   5.098  0.00  0.00    +0.000 C 
ATOM      5  C   UNL     1     -18.588  97.646   6.444  0.00  0.00    +0.000 C 
BRANCH   4   7
ATOM      6  C   UNL     1     -18.688  95.358   3.655  0.00  0.00    +0.000 C 
ATOM      7  C   UNL     1     -18.935  96.329   4.318  0.00  0.00    +0.000 C 
BRANCH   6   8
ATOM      8  C   UNL     1     -18.368  94.119   2.811  0.00  0.00    +0.000 C 
BRANCH   8   9
ATOM      9  C   UNL     1     -18.089  93.076   2.093  0.00  0.00    +0.000 C 
ATOM     10  C   UNL     1     -17.435  93.235   0.755  0.00  0.00    +0.000 C 
BRANCH   9  12
ATOM     11  C   UNL     1     -18.870  90.705   2.892  0.00  0.00    +0.000 C 
ATOM     12  C   UNL     1     -18.509  91.792   2.523  0.00  0.00    +0.000 C 
BRANCH  11  18
ATOM     13  C   UNL     1     -18.893  88.956   4.686  0.00  0.00    +0.000 C 
ATOM     14  C   UNL     1     -20.065  88.598   2.391  0.00  0.00    +0.000 C 
ATOM     15  C   UNL     1     -19.690  87.764   5.008  0.00  0.00    +0.000 C 
ATOM     16  C   UNL     1     -20.630  86.912   4.399  0.00  0.00    +0.000 C 
ATOM     17  C   UNL     1     -20.684  87.495   3.116  0.00  0.00    +0.000 C 
ATOM     18  C   UNL     1     -19.263  89.515   3.300  0.00  0.00    +0.000 C 
ATOM     19  C   UNL     1     -17.382  88.600   4.688  0.00  0.00    +0.000 C 
ATOM     20  C   UNL     1     -19.184  90.040   5.768  0.00  0.00    +0.000 C 
ATOM     21  C   UNL     1     -19.204  88.089   1.231  0.00  0.00    +0.000 C 
BRANCH  14  22
ATOM     22  O   UNL     1     -21.096  89.340   1.779  0.00  0.00    +0.000 OA
ATOM     23  H   UNL     1     -21.794  89.299   2.458  0.00  0.00    +0.000 HD
ENDBRANCH  14  22
BRANCH  16  24
ATOM     24  O   UNL     1     -20.490  85.538   4.541  0.00  0.00    +0.000 OA
BRANCH  24  26
ATOM     25  O   UNL     1     -21.811  84.434   2.947  0.00  0.00    +0.000 OA
ATOM     26  C   UNL     1     -21.583  84.906   4.046  0.00  0.00    +0.000 C 
ATOM     27  C   UNL     1     -22.705  84.780   5.015  0.00  0.00    +0.000 C 
ENDBRANCH  24  26
ENDBRANCH  16  24
ENDBRANCH  11  18
ENDBRANCH   9  12
ENDBRANCH   8   9
ENDBRANCH   6   8
ENDBRANCH   4   7
ENDBRANCH   3   4
ENDBRANCH   2   3
BRANCH   1  28
ATOM     28  C   UNL     1     -22.898 101.231   3.276  0.00  0.00    +0.000 C 
BRANCH  28  29
ATOM     29  C   UNL     1     -23.762 102.097   2.851  0.00  0.00    +0.000 C 
ATOM     30  C   UNL     1     -24.766 102.681   3.797  0.00  0.00    +0.000 C 
BRANCH  29  32
ATOM     31  C   UNL     1     -23.781 102.774   0.323  0.00  0.00    +0.000 C 
ATOM     32  C   UNL     1     -23.780 102.460   1.483  0.00  0.00    +0.000 C 
BRANCH  31  33
ATOM     33  C   UNL     1     -23.769 103.182  -1.155  0.00  0.00    +0.000 C 
BRANCH  33  34
ATOM     34  C   UNL     1     -23.755 103.536  -2.405  0.00  0.00    +0.000 C 
ATOM     35  C   UNL     1     -24.959 104.303  -2.912  0.00  0.00    +0.000 C 
BRANCH  34  37
ATOM     36  O   UNL     1     -21.454 103.099  -2.882  0.00  0.00    +0.000 OA
ATOM     37  C   UNL     1     -22.611 103.150  -3.288  0.00  0.00    +0.000 C 
BRANCH  37  38
ATOM     38  C   UNL     1     -22.825 102.811  -4.675  0.00  0.00    +0.000 C 
BRANCH  38  40
ATOM     39  O   UNL     1     -23.215 101.037  -6.206  0.00  0.00    +0.000 OA
ATOM     40  C   UNL     1     -23.005 102.470  -6.073  0.00  0.00    +0.000 C 
ATOM     41  C   UNL     1     -24.342 101.849  -6.532  0.00  0.00    +0.000 C 
ATOM     42  C   UNL     1     -22.095 103.150  -7.159  0.00  0.00    +0.000 C 
ATOM     43  C   UNL     1     -24.617 101.853  -7.932  0.00  0.00    +0.000 C 
ATOM     44  C   UNL     1     -22.691 102.851  -8.463  0.00  0.00    +0.000 C 
ATOM     45  C   UNL     1     -23.856 102.297  -9.028  0.00  0.00    +0.000 C 
ATOM     46  C   UNL     1     -25.531 101.643  -5.589  0.00  0.00    +0.000 C 
ATOM     47  C   UNL     1     -22.151 104.666  -6.854  0.00  0.00    +0.000 C 
ATOM     48  C   UNL     1     -20.683 102.557  -6.960  0.00  0.00    +0.000 C 
BRANCH  45  49
ATOM     49  O   UNL     1     -24.420 102.821 -10.152  0.00  0.00    +0.000 OA
ATOM     50  H   UNL     1     -24.197 103.760 -10.276  0.00  0.00    +0.000 HD
ENDBRANCH  45  49
ENDBRANCH  38  40
ENDBRANCH  37  38
ENDBRANCH  34  37
ENDBRANCH  33  34
ENDBRANCH  31  33
ENDBRANCH  29  32
ENDBRANCH  28  29
ENDBRANCH   1  28
TORSDOF 19
ENDMDL
MODEL 4
REMARK VINA RESULT:      -5.8     20.258     26.526
REMARK  Name = 5281239_Fucoxanthin.pdbqt.pdb
REMARK  19 active torsions:
REMARK  status: ('A' for Active; 'I' for Inactive)
REMARK    1  A    between atoms: C_1  and  C_5
REMARK    2  A    between atoms: C_2  and  C_26
REMARK    3  A    between atoms: C_3  and  C_5
REMARK    4  A    between atoms: C_3  and  C_7
REMARK    5  A    between atoms: C_6  and  C_10
REMARK    6  A    between atoms: C_8  and  C_10
REMARK    7  A    between atoms: C_8  and  C_12
REMARK    8  A    between atoms: C_12  and  C_13
REMARK    9  A    between atoms: C_13  and  C_15
REMARK   10  A    between atoms: C_20  and  O_24
REMARK   11  A    between atoms: C_26  and  C_27
REMARK   12  A    between atoms: C_27  and  C_30
REMARK   13  A    between atoms: C_29  and  C_33
REMARK   14  A    between atoms: C_31  and  C_33
REMARK   15  A    between atoms: C_31  and  C_44
REMARK   16  A    between atoms: C_35  and  O_45
REMARK   17  A    between atoms: C_37  and  O_47
REMARK   18  A    between atoms: C_39  and  C_43
REMARK   19  A    between atoms: O_47  and  C_49
REMARK                            x       y       z     vdW  Elec       q    Type
REMARK                         _______ _______ _______ _____ _____    ______ ____
ROOT
ATOM      1  C   UNL     1     -21.798 102.738  -3.525  0.00  0.00    +0.000 C 
ATOM      2  C   UNL     1     -22.369 103.141  -2.550  0.00  0.00    +0.000 C 
ENDROOT
BRANCH   2   3
ATOM      3  C   UNL     1     -23.100 103.663  -1.307  0.00  0.00    +0.000 C 
BRANCH   3   4
ATOM      4  C   UNL     1     -23.716 104.101  -0.254  0.00  0.00    +0.000 C 
ATOM      5  C   UNL     1     -24.275 105.492  -0.240  0.00  0.00    +0.000 C 
BRANCH   4   7
ATOM      6  C   UNL     1     -24.063 102.524   1.804  0.00  0.00    +0.000 C 
ATOM      7  C   UNL     1     -23.903 103.249   0.860  0.00  0.00    +0.000 C 
BRANCH   6   8
ATOM      8  C   UNL     1     -24.265 101.594   3.006  0.00  0.00    +0.000 C 
BRANCH   8   9
ATOM      9  C   UNL     1     -24.431 100.801   4.018  0.00  0.00    +0.000 C 
ATOM     10  C   UNL     1     -25.794 100.271   4.345  0.00  0.00    +0.000 C 
BRANCH   9  12
ATOM     11  C   UNL     1     -22.424 100.295   5.624  0.00  0.00    +0.000 C 
ATOM     12  C   UNL     1     -23.344 100.527   4.884  0.00  0.00    +0.000 C 
BRANCH  11  18
ATOM     13  C   UNL     1     -21.229 100.791   7.770  0.00  0.00    +0.000 C 
ATOM     14  C   UNL     1     -20.341  99.036   6.068  0.00  0.00    +0.000 C 
ATOM     15  C   UNL     1     -20.223 100.131   8.612  0.00  0.00    +0.000 C 
ATOM     16  C   UNL     1     -19.300  99.070   8.540  0.00  0.00    +0.000 C 
ATOM     17  C   UNL     1     -19.518  98.655   7.210  0.00  0.00    +0.000 C 
ATOM     18  C   UNL     1     -21.416 100.046   6.437  0.00  0.00    +0.000 C 
ATOM     19  C   UNL     1     -20.791 102.249   7.464  0.00  0.00    +0.000 C 
ATOM     20  C   UNL     1     -22.582 100.797   8.545  0.00  0.00    +0.000 C 
ATOM     21  C   UNL     1     -19.484  99.549   4.908  0.00  0.00    +0.000 C 
BRANCH  14  22
ATOM     22  O   UNL     1     -20.956  97.866   5.575  0.00  0.00    +0.000 OA
ATOM     23  H   UNL     1     -21.634  97.702   6.256  0.00  0.00    +0.000 HD
ENDBRANCH  14  22
BRANCH  16  24
ATOM     24  O   UNL     1     -18.010  99.261   9.015  0.00  0.00    +0.000 OA
BRANCH  24  26
ATOM     25  O   UNL     1     -17.311  97.163   9.798  0.00  0.00    +0.000 OA
ATOM     26  C   UNL     1     -17.705  98.307   9.929  0.00  0.00    +0.000 C 
ATOM     27  C   UNL     1     -17.900  98.734  11.342  0.00  0.00    +0.000 C 
ENDBRANCH  24  26
ENDBRANCH  16  24
ENDBRANCH  11  18
ENDBRANCH   9  12
ENDBRANCH   8   9
ENDBRANCH   6   8
ENDBRANCH   4   7
ENDBRANCH   3   4
ENDBRANCH   2   3
BRANCH   1  28
ATOM     28  C   UNL     1     -21.070 102.232  -4.776  0.00  0.00    +0.000 C 
BRANCH  28  29
ATOM     29  C   UNL     1     -20.465 101.799  -5.836  0.00  0.00    +0.000 C 
ATOM     30  C   UNL     1     -18.991 101.530  -5.801  0.00  0.00    +0.000 C 
BRANCH  29  32
ATOM     31  C   UNL     1     -21.799 101.455  -8.061  0.00  0.00    +0.000 C 
ATOM     32  C   UNL     1     -21.192 101.617  -7.037  0.00  0.00    +0.000 C 
BRANCH  31  33
ATOM     33  C   UNL     1     -22.560 101.238  -9.374  0.00  0.00    +0.000 C 
BRANCH  33  34
ATOM     34  C   UNL     1     -23.203 101.046 -10.487  0.00  0.00    +0.000 C 
ATOM     35  C   UNL     1     -22.425 100.420 -11.626  0.00  0.00    +0.000 C 
BRANCH  34  37
ATOM     36  O   UNL     1     -25.453 100.831 -11.263  0.00  0.00    +0.000 OA
ATOM     37  C   UNL     1     -24.630 101.476 -10.621  0.00  0.00    +0.000 C 
BRANCH  37  38
ATOM     38  C   UNL     1     -25.104 102.684  -9.990  0.00  0.00    +0.000 C 
BRANCH  38  40
ATOM     39  O   UNL     1     -25.681 104.969 -10.288  0.00  0.00    +0.000 OA
ATOM     40  C   UNL     1     -25.569 103.886  -9.324  0.00  0.00    +0.000 C 
ATOM     41  C   UNL     1     -26.917 104.508  -9.746  0.00  0.00    +0.000 C 
ATOM     42  C   UNL     1     -24.992 104.261  -7.912  0.00  0.00    +0.000 C 
ATOM     43  C   UNL     1     -27.504 105.459  -8.858  0.00  0.00    +0.000 C 
ATOM     44  C   UNL     1     -25.842 105.324  -7.372  0.00  0.00    +0.000 C 
ATOM     45  C   UNL     1     -27.054 105.991  -7.637  0.00  0.00    +0.000 C 
ATOM     46  C   UNL     1     -27.837 103.870 -10.791  0.00  0.00    +0.000 C 
ATOM     47  C   UNL     1     -25.104 102.971  -7.064  0.00  0.00    +0.000 C 
ATOM     48  C   UNL     1     -23.526 104.685  -8.151  0.00  0.00    +0.000 C 
BRANCH  45  49
ATOM     49  O   UNL     1     -27.901 106.351  -6.633  0.00  0.00    +0.000 OA
ATOM     50  H   UNL     1     -27.446 106.440  -5.777  0.00  0.00    +0.000 HD
ENDBRANCH  45  49
ENDBRANCH  38  40
ENDBRANCH  37  38
ENDBRANCH  34  37
ENDBRANCH  33  34
ENDBRANCH  31  33
ENDBRANCH  29  32
ENDBRANCH  28  29
ENDBRANCH   1  28
TORSDOF 19
ENDMDL
MODEL 5
REMARK VINA RESULT:      -5.7     20.575     25.651
REMARK  Name = 5281239_Fucoxanthin.pdbqt.pdb
REMARK  19 active torsions:
REMARK  status: ('A' for Active; 'I' for Inactive)
REMARK    1  A    between atoms: C_1  and  C_5
REMARK    2  A    between atoms: C_2  and  C_26
REMARK    3  A    between atoms: C_3  and  C_5
REMARK    4  A    between atoms: C_3  and  C_7
REMARK    5  A    between atoms: C_6  and  C_10
REMARK    6  A    between atoms: C_8  and  C_10
REMARK    7  A    between atoms: C_8  and  C_12
REMARK    8  A    between atoms: C_12  and  C_13
REMARK    9  A    between atoms: C_13  and  C_15
REMARK   10  A    between atoms: C_20  and  O_24
REMARK   11  A    between atoms: C_26  and  C_27
REMARK   12  A    between atoms: C_27  and  C_30
REMARK   13  A    between atoms: C_29  and  C_33
REMARK   14  A    between atoms: C_31  and  C_33
REMARK   15  A    between atoms: C_31  and  C_44
REMARK   16  A    between atoms: C_35  and  O_45
REMARK   17  A    between atoms: C_37  and  O_47
REMARK   18  A    between atoms: C_39  and  C_43
REMARK   19  A    between atoms: O_47  and  C_49
REMARK                            x       y       z     vdW  Elec       q    Type
REMARK                         _______ _______ _______ _____ _____    ______ ____
ROOT
ATOM      1  C   UNL     1     -26.569 106.151   1.862  0.00  0.00    +0.000 C 
ATOM      2  C   UNL     1     -25.743 105.314   1.623  0.00  0.00    +0.000 C 
ENDROOT
BRANCH   2   3
ATOM      3  C   UNL     1     -24.691 104.242   1.312  0.00  0.00    +0.000 C 
BRANCH   3   4
ATOM      4  C   UNL     1     -23.802 103.336   1.053  0.00  0.00    +0.000 C 
ATOM      5  C   UNL     1     -23.524 102.254   2.052  0.00  0.00    +0.000 C 
BRANCH   4   7
ATOM      6  C   UNL     1     -22.561 103.342  -1.250  0.00  0.00    +0.000 C 
ATOM      7  C   UNL     1     -23.132 103.341  -0.194  0.00  0.00    +0.000 C 
BRANCH   6   8
ATOM      8  C   UNL     1     -21.832 103.339  -2.599  0.00  0.00    +0.000 C 
BRANCH   8   9
ATOM      9  C   UNL     1     -21.212 103.327  -3.738  0.00  0.00    +0.000 C 
ATOM     10  C   UNL     1     -19.751 103.653  -3.804  0.00  0.00    +0.000 C 
BRANCH   9  12
ATOM     11  C   UNL     1     -22.564 102.940  -5.948  0.00  0.00    +0.000 C 
ATOM     12  C   UNL     1     -21.942 103.120  -4.935  0.00  0.00    +0.000 C 
BRANCH  11  18
ATOM     13  C   UNL     1     -23.131 103.674  -8.276  0.00  0.00    +0.000 C 
ATOM     14  C   UNL     1     -24.230 101.586  -7.179  0.00  0.00    +0.000 C 
ATOM     15  C   UNL     1     -23.744 103.073  -9.468  0.00  0.00    +0.000 C 
ATOM     16  C   UNL     1     -24.492 101.935  -9.826  0.00  0.00    +0.000 C 
ATOM     17  C   UNL     1     -24.620 101.328  -8.560  0.00  0.00    +0.000 C 
ATOM     18  C   UNL     1     -23.244 102.738  -7.059  0.00  0.00    +0.000 C 
ATOM     19  C   UNL     1     -23.837 105.014  -7.935  0.00  0.00    +0.000 C 
ATOM     20  C   UNL     1     -21.625 103.932  -8.583  0.00  0.00    +0.000 C 
ATOM     21  C   UNL     1     -25.453 101.820  -6.287  0.00  0.00    +0.000 C 
BRANCH  14  22
ATOM     22  O   UNL     1     -23.633 100.412  -6.676  0.00  0.00    +0.000 OA
ATOM     23  H   UNL     1     -23.187 100.066  -7.470  0.00  0.00    +0.000 HD
ENDBRANCH  14  22
BRANCH  16  24
ATOM     24  O   UNL     1     -25.599 102.085 -10.650  0.00  0.00    +0.000 OA
BRANCH  24  26
ATOM     25  O   UNL     1     -26.450 100.100 -11.569  0.00  0.00    +0.000 OA
ATOM     26  C   UNL     1     -25.679 101.041 -11.512  0.00  0.00    +0.000 C 
ATOM     27  C   UNL     1     -24.632 101.043 -12.569  0.00  0.00    +0.000 C 
ENDBRANCH  24  26
ENDBRANCH  16  24
ENDBRANCH  11  18
ENDBRANCH   9  12
ENDBRANCH   8   9
ENDBRANCH   6   8
ENDBRANCH   4   7
ENDBRANCH   3   4
ENDBRANCH   2   3
BRANCH   1  28
ATOM     28  C   UNL     1     -27.631 107.216   2.158  0.00  0.00    +0.000 C 
BRANCH  28  29
ATOM     29  C   UNL     1     -28.519 108.125   2.408  0.00  0.00    +0.000 C 
ATOM     30  C   UNL     1     -28.103 109.554   2.580  0.00  0.00    +0.000 C 
BRANCH  29  32
ATOM     31  C   UNL     1     -31.029 107.435   2.672  0.00  0.00    +0.000 C 
ATOM     32  C   UNL     1     -29.879 107.758   2.556  0.00  0.00    +0.000 C 
BRANCH  31  33
ATOM     33  C   UNL     1     -32.496 107.011   2.811  0.00  0.00    +0.000 C 
BRANCH  33  34
ATOM     34  C   UNL     1     -33.742 106.656   2.922  0.00  0.00    +0.000 C 
ATOM     35  C   UNL     1     -34.394 106.866   4.273  0.00  0.00    +0.000 C 
BRANCH  34  37
ATOM     36  O   UNL     1     -33.986 106.014   0.633  0.00  0.00    +0.000 OA
ATOM     37  C   UNL     1     -34.456 106.031   1.766  0.00  0.00    +0.000 C 
BRANCH  37  38
ATOM     38  C   UNL     1     -35.747 105.408   1.940  0.00  0.00    +0.000 C 
BRANCH  38  40
ATOM     39  O   UNL     1     -38.097 105.759   1.914  0.00  0.00    +0.000 OA
ATOM     40  C   UNL     1     -37.042 104.771   2.082  0.00  0.00    +0.000 C 
ATOM     41  C   UNL     1     -38.019 104.773   0.886  0.00  0.00    +0.000 C 
ATOM     42  C   UNL     1     -37.258 103.700   3.210  0.00  0.00    +0.000 C 
ATOM     43  C   UNL     1     -39.112 103.857   0.935  0.00  0.00    +0.000 C 
ATOM     44  C   UNL     1     -38.529 103.030   2.926  0.00  0.00    +0.000 C 
ATOM     45  C   UNL     1     -39.512 102.938   1.921  0.00  0.00    +0.000 C 
ATOM     46  C   UNL     1     -37.656 105.353  -0.484  0.00  0.00    +0.000 C 
ATOM     47  C   UNL     1     -36.069 102.718   3.080  0.00  0.00    +0.000 C 
ATOM     48  C   UNL     1     -37.239 104.478   4.544  0.00  0.00    +0.000 C 
BRANCH  45  49
ATOM     49  O   UNL     1     -40.116 101.754   1.623  0.00  0.00    +0.000 OA
ATOM     50  H   UNL     1     -40.847 101.860   0.990  0.00  0.00    +0.000 HD
ENDBRANCH  45  49
ENDBRANCH  38  40
ENDBRANCH  37  38
ENDBRANCH  34  37
ENDBRANCH  33  34
ENDBRANCH  31  33
ENDBRANCH  29  32
ENDBRANCH  28  29
ENDBRANCH   1  28
TORSDOF 19
ENDMDL
MODEL 6
REMARK VINA RESULT:      -5.7     19.986     26.146
REMARK  Name = 5281239_Fucoxanthin.pdbqt.pdb
REMARK  19 active torsions:
REMARK  status: ('A' for Active; 'I' for Inactive)
REMARK    1  A    between atoms: C_1  and  C_5
REMARK    2  A    between atoms: C_2  and  C_26
REMARK    3  A    between atoms: C_3  and  C_5
REMARK    4  A    between atoms: C_3  and  C_7
REMARK    5  A    between atoms: C_6  and  C_10
REMARK    6  A    between atoms: C_8  and  C_10
REMARK    7  A    between atoms: C_8  and  C_12
REMARK    8  A    between atoms: C_12  and  C_13
REMARK    9  A    between atoms: C_13  and  C_15
REMARK   10  A    between atoms: C_20  and  O_24
REMARK   11  A    between atoms: C_26  and  C_27
REMARK   12  A    between atoms: C_27  and  C_30
REMARK   13  A    between atoms: C_29  and  C_33
REMARK   14  A    between atoms: C_31  and  C_33
REMARK   15  A    between atoms: C_31  and  C_44
REMARK   16  A    between atoms: C_35  and  O_45
REMARK   17  A    between atoms: C_37  and  O_47
REMARK   18  A    between atoms: C_39  and  C_43
REMARK   19  A    between atoms: O_47  and  C_49
REMARK                            x       y       z     vdW  Elec       q    Type
REMARK                         _______ _______ _______ _____ _____    ______ ____
ROOT
ATOM      1  C   UNL     1     -20.944 103.125  -2.996  0.00  0.00    +0.000 C 
ATOM      2  C   UNL     1     -21.733 103.441  -2.149  0.00  0.00    +0.000 C 
ENDROOT
BRANCH   2   3
ATOM      3  C   UNL     1     -22.744 103.849  -1.071  0.00  0.00    +0.000 C 
BRANCH   3   4
ATOM      4  C   UNL     1     -23.596 104.192  -0.157  0.00  0.00    +0.000 C 
ATOM      5  C   UNL     1     -24.360 105.474  -0.289  0.00  0.00    +0.000 C 
BRANCH   4   7
ATOM      6  C   UNL     1     -24.050 102.595   1.866  0.00  0.00    +0.000 C 
ATOM      7  C   UNL     1     -23.842 103.329   0.938  0.00  0.00    +0.000 C 
BRANCH   6   8
ATOM      8  C   UNL     1     -24.311 101.654   3.048  0.00  0.00    +0.000 C 
BRANCH   8   9
ATOM      9  C   UNL     1     -24.523 100.855   4.046  0.00  0.00    +0.000 C 
ATOM     10  C   UNL     1     -25.869 100.227   4.237  0.00  0.00    +0.000 C 
BRANCH   9  12
ATOM     11  C   UNL     1     -22.662 100.505   5.857  0.00  0.00    +0.000 C 
ATOM     12  C   UNL     1     -23.515 100.668   5.025  0.00  0.00    +0.000 C 
BRANCH  11  18
ATOM     13  C   UNL     1     -21.694 101.139   8.080  0.00  0.00    +0.000 C 
ATOM     14  C   UNL     1     -20.596  99.337   6.558  0.00  0.00    +0.000 C 
ATOM     15  C   UNL     1     -20.756 100.552   9.045  0.00  0.00    +0.000 C 
ATOM     16  C   UNL     1     -19.800  99.520   9.113  0.00  0.00    +0.000 C 
ATOM     17  C   UNL     1     -19.876  99.038   7.790  0.00  0.00    +0.000 C 
ATOM     18  C   UNL     1     -21.731 100.327   6.773  0.00  0.00    +0.000 C 
ATOM     19  C   UNL     1     -21.271 102.595   7.745  0.00  0.00    +0.000 C 
ATOM     20  C   UNL     1     -23.115 101.135   8.722  0.00  0.00    +0.000 C 
ATOM     21  C   UNL     1     -19.646  99.826   5.460  0.00  0.00    +0.000 C 
BRANCH  14  22
ATOM     22  O   UNL     1     -21.126  98.126   6.067  0.00  0.00    +0.000 OA
ATOM     23  H   UNL     1     -21.757  98.448   5.397  0.00  0.00    +0.000 HD
ENDBRANCH  14  22
BRANCH  16  24
ATOM     24  O   UNL     1     -18.567  99.777   9.698  0.00  0.00    +0.000 OA
BRANCH  24  26
ATOM     25  O   UNL     1     -18.284 101.294  11.465  0.00  0.00    +0.000 OA
ATOM     26  C   UNL     1     -18.742 100.297  10.938  0.00  0.00    +0.000 C 
ATOM     27  C   UNL     1     -19.643  99.497  11.812  0.00  0.00    +0.000 C 
ENDBRANCH  24  26
ENDBRANCH  16  24
ENDBRANCH  11  18
ENDBRANCH   9  12
ENDBRANCH   8   9
ENDBRANCH   6   8
ENDBRANCH   4   7
ENDBRANCH   3   4
ENDBRANCH   2   3
BRANCH   1  28
ATOM     28  C   UNL     1     -19.941 102.729  -4.086  0.00  0.00    +0.000 C 
BRANCH  28  29
ATOM     29  C   UNL     1     -19.084 102.400  -5.000  0.00  0.00    +0.000 C 
ATOM     30  C   UNL     1     -17.640 102.765  -4.841  0.00  0.00    +0.000 C 
BRANCH  29  32
ATOM     31  C   UNL     1     -19.910 101.163  -7.153  0.00  0.00    +0.000 C 
ATOM     32  C   UNL     1     -19.524 101.729  -6.166  0.00  0.00    +0.000 C 
BRANCH  31  33
ATOM     33  C   UNL     1     -20.418 100.444  -8.408  0.00  0.00    +0.000 C 
BRANCH  33  34
ATOM     34  C   UNL     1     -20.856  99.841  -9.474  0.00  0.00    +0.000 C 
ATOM     35  C   UNL     1     -20.137  98.572  -9.884  0.00  0.00    +0.000 C 
BRANCH  34  37
ATOM     36  O   UNL     1     -22.086 100.274 -11.476  0.00  0.00    +0.000 OA
ATOM     37  C   UNL     1     -21.985 100.423 -10.263  0.00  0.00    +0.000 C 
BRANCH  37  38
ATOM     38  C   UNL     1     -23.022 101.193  -9.618  0.00  0.00    +0.000 C 
BRANCH  38  40
ATOM     39  O   UNL     1     -25.084 101.101  -8.442  0.00  0.00    +0.000 OA
ATOM     40  C   UNL     1     -24.040 101.978  -8.947  0.00  0.00    +0.000 C 
ATOM     41  C   UNL     1     -24.300 101.749  -7.443  0.00  0.00    +0.000 C 
ATOM     42  C   UNL     1     -24.511 103.337  -9.579  0.00  0.00    +0.000 C 
ATOM     43  C   UNL     1     -25.037 102.754  -6.747  0.00  0.00    +0.000 C 
ATOM     44  C   UNL     1     -25.299 104.033  -8.558  0.00  0.00    +0.000 C 
ATOM     45  C   UNL     1     -25.632 103.946  -7.193  0.00  0.00    +0.000 C 
ATOM     46  C   UNL     1     -23.475 100.778  -6.594  0.00  0.00    +0.000 C 
ATOM     47  C   UNL     1     -23.212 104.113  -9.907  0.00  0.00    +0.000 C 
ATOM     48  C   UNL     1     -25.311 102.961 -10.846  0.00  0.00    +0.000 C 
BRANCH  45  49
ATOM     49  O   UNL     1     -25.729 105.058  -6.413  0.00  0.00    +0.000 OA
ATOM     50  H   UNL     1     -25.992 104.850  -5.499  0.00  0.00    +0.000 HD
ENDBRANCH  45  49
ENDBRANCH  38  40
ENDBRANCH  37  38
ENDBRANCH  34  37
ENDBRANCH  33  34
ENDBRANCH  31  33
ENDBRANCH  29  32
ENDBRANCH  28  29
ENDBRANCH   1  28
TORSDOF 19
ENDMDL
MODEL 7
REMARK VINA RESULT:      -5.6     17.216     21.384
REMARK  Name = 5281239_Fucoxanthin.pdbqt.pdb
REMARK  19 active torsions:
REMARK  status: ('A' for Active; 'I' for Inactive)
REMARK    1  A    between atoms: C_1  and  C_5
REMARK    2  A    between atoms: C_2  and  C_26
REMARK    3  A    between atoms: C_3  and  C_5
REMARK    4  A    between atoms: C_3  and  C_7
REMARK    5  A    between atoms: C_6  and  C_10
REMARK    6  A    between atoms: C_8  and  C_10
REMARK    7  A    between atoms: C_8  and  C_12
REMARK    8  A    between atoms: C_12  and  C_13
REMARK    9  A    between atoms: C_13  and  C_15
REMARK   10  A    between atoms: C_20  and  O_24
REMARK   11  A    between atoms: C_26  and  C_27
REMARK   12  A    between atoms: C_27  and  C_30
REMARK   13  A    between atoms: C_29  and  C_33
REMARK   14  A    between atoms: C_31  and  C_33
REMARK   15  A    between atoms: C_31  and  C_44
REMARK   16  A    between atoms: C_35  and  O_45
REMARK   17  A    between atoms: C_37  and  O_47
REMARK   18  A    between atoms: C_39  and  C_43
REMARK   19  A    between atoms: O_47  and  C_49
REMARK                            x       y       z     vdW  Elec       q    Type
REMARK                         _______ _______ _______ _____ _____    ______ ____
ROOT
ATOM      1  C   UNL     1     -32.488 108.559   4.257  0.00  0.00    +0.000 C 
ATOM      2  C   UNL     1     -31.311 108.741   4.112  0.00  0.00    +0.000 C 
ENDROOT
BRANCH   2   3
ATOM      3  C   UNL     1     -29.805 108.970   3.934  0.00  0.00    +0.000 C 
BRANCH   3   4
ATOM      4  C   UNL     1     -28.532 109.161   3.785  0.00  0.00    +0.000 C 
ATOM      5  C   UNL     1     -27.906 110.437   4.259  0.00  0.00    +0.000 C 
BRANCH   4   7
ATOM      6  C   UNL     1     -27.046 107.278   2.739  0.00  0.00    +0.000 C 
ATOM      7  C   UNL     1     -27.728 108.142   3.221  0.00  0.00    +0.000 C 
BRANCH   6   8
ATOM      8  C   UNL     1     -26.174 106.179   2.122  0.00  0.00    +0.000 C 
BRANCH   8   9
ATOM      9  C   UNL     1     -25.441 105.243   1.605  0.00  0.00    +0.000 C 
ATOM     10  C   UNL     1     -25.322 105.113   0.117  0.00  0.00    +0.000 C 
BRANCH   9  12
ATOM     11  C   UNL     1     -24.344 103.439   3.156  0.00  0.00    +0.000 C 
ATOM     12  C   UNL     1     -24.846 104.269   2.445  0.00  0.00    +0.000 C 
BRANCH  11  18
ATOM     13  C   UNL     1     -22.618 102.845   4.873  0.00  0.00    +0.000 C 
ATOM     14  C   UNL     1     -24.274 101.084   3.912  0.00  0.00    +0.000 C 
ATOM     15  C   UNL     1     -22.397 101.759   5.838  0.00  0.00    +0.000 C 
ATOM     16  C   UNL     1     -22.875 100.464   6.115  0.00  0.00    +0.000 C 
ATOM     17  C   UNL     1     -23.797 100.319   5.058  0.00  0.00    +0.000 C 
ATOM     18  C   UNL     1     -23.798 102.528   3.937  0.00  0.00    +0.000 C 
ATOM     19  C   UNL     1     -21.345 103.055   4.010  0.00  0.00    +0.000 C 
ATOM     20  C   UNL     1     -22.937 104.145   5.673  0.00  0.00    +0.000 C 
ATOM     21  C   UNL     1     -23.894 100.407   2.591  0.00  0.00    +0.000 C 
BRANCH  14  22
ATOM     22  O   UNL     1     -25.684 101.061   3.939  0.00  0.00    +0.000 OA
ATOM     23  H   UNL     1     -25.900 101.863   3.427  0.00  0.00    +0.000 HD
ENDBRANCH  14  22
BRANCH  16  24
ATOM     24  O   UNL     1     -21.965  99.453   6.399  0.00  0.00    +0.000 OA
BRANCH  24  26
ATOM     25  O   UNL     1     -21.892  99.889   8.703  0.00  0.00    +0.000 OA
ATOM     26  C   UNL     1     -21.399  99.667   7.612  0.00  0.00    +0.000 C 
ATOM     27  C   UNL     1     -19.912  99.635   7.604  0.00  0.00    +0.000 C 
ENDBRANCH  24  26
ENDBRANCH  16  24
ENDBRANCH  11  18
ENDBRANCH   9  12
ENDBRANCH   8   9
ENDBRANCH   6   8
ENDBRANCH   4   7
ENDBRANCH   3   4
ENDBRANCH   2   3
BRANCH   1  28
ATOM     28  C   UNL     1     -33.991 108.324   4.452  0.00  0.00    +0.000 C 
BRANCH  28  29
ATOM     29  C   UNL     1     -35.258 108.118   4.625  0.00  0.00    +0.000 C 
ATOM     30  C   UNL     1     -36.067 109.075   5.447  0.00  0.00    +0.000 C 
BRANCH  29  32
ATOM     31  C   UNL     1     -36.385 105.987   3.609  0.00  0.00    +0.000 C 
ATOM     32  C   UNL     1     -35.867 106.968   4.068  0.00  0.00    +0.000 C 
BRANCH  31  33
ATOM     33  C   UNL     1     -37.048 104.728   3.038  0.00  0.00    +0.000 C 
BRANCH  33  34
ATOM     34  C   UNL     1     -37.611 103.664   2.546  0.00  0.00    +0.000 C 
ATOM     35  C   UNL     1     -36.884 102.350   2.749  0.00  0.00    +0.000 C 
BRANCH  34  37
ATOM     36  O   UNL     1     -39.025 104.529   0.825  0.00  0.00    +0.000 OA
ATOM     37  C   UNL     1     -38.891 103.771   1.780  0.00  0.00    +0.000 C 
BRANCH  37  38
ATOM     38  C   UNL     1     -40.039 102.972   2.137  0.00  0.00    +0.000 C 
BRANCH  38  40
ATOM     39  O   UNL     1     -40.762 101.056   3.341  0.00  0.00    +0.000 OA
ATOM     40  C   UNL     1     -41.181 102.144   2.472  0.00  0.00    +0.000 C 
ATOM     41  C   UNL     1     -41.617 102.022   3.948  0.00  0.00    +0.000 C 
ATOM     42  C   UNL     1     -42.233 101.788   1.361  0.00  0.00    +0.000 C 
ATOM     43  C   UNL     1     -42.921 101.503   4.203  0.00  0.00    +0.000 C 
ATOM     44  C   UNL     1     -43.396 101.214   2.041  0.00  0.00    +0.000 C 
ATOM     45  C   UNL     1     -43.917 101.023   3.335  0.00  0.00    +0.000 C 
ATOM     46  C   UNL     1     -40.943 102.801   5.082  0.00  0.00    +0.000 C 
ATOM     47  C   UNL     1     -42.589 103.134   0.684  0.00  0.00    +0.000 C 
ATOM     48  C   UNL     1     -41.519 100.813   0.398  0.00  0.00    +0.000 C 
BRANCH  45  49
ATOM     49  O   UNL     1     -45.247 101.159   3.593  0.00  0.00    +0.000 OA
ATOM     50  H   UNL     1     -45.490 102.073   3.824  0.00  0.00    +0.000 HD
ENDBRANCH  45  49
ENDBRANCH  38  40
ENDBRANCH  37  38
ENDBRANCH  34  37
ENDBRANCH  33  34
ENDBRANCH  31  33
ENDBRANCH  29  32
ENDBRANCH  28  29
ENDBRANCH   1  28
TORSDOF 19
ENDMDL
MODEL 8
REMARK VINA RESULT:      -5.6     12.596     18.546
REMARK  Name = 5281239_Fucoxanthin.pdbqt.pdb
REMARK  19 active torsions:
REMARK  status: ('A' for Active; 'I' for Inactive)
REMARK    1  A    between atoms: C_1  and  C_5
REMARK    2  A    between atoms: C_2  and  C_26
REMARK    3  A    between atoms: C_3  and  C_5
REMARK    4  A    between atoms: C_3  and  C_7
REMARK    5  A    between atoms: C_6  and  C_10
REMARK    6  A    between atoms: C_8  and  C_10
REMARK    7  A    between atoms: C_8  and  C_12
REMARK    8  A    between atoms: C_12  and  C_13
REMARK    9  A    between atoms: C_13  and  C_15
REMARK   10  A    between atoms: C_20  and  O_24
REMARK   11  A    between atoms: C_26  and  C_27
REMARK   12  A    between atoms: C_27  and  C_30
REMARK   13  A    between atoms: C_29  and  C_33
REMARK   14  A    between atoms: C_31  and  C_33
REMARK   15  A    between atoms: C_31  and  C_44
REMARK   16  A    between atoms: C_35  and  O_45
REMARK   17  A    between atoms: C_37  and  O_47
REMARK   18  A    between atoms: C_39  and  C_43
REMARK   19  A    between atoms: O_47  and  C_49
REMARK                            x       y       z     vdW  Elec       q    Type
REMARK                         _______ _______ _______ _____ _____    ______ ____
ROOT
ATOM      1  C   UNL     1     -44.314  82.409  16.200  0.00  0.00    +0.000 C 
ATOM      2  C   UNL     1     -43.470  83.103  16.696  0.00  0.00    +0.000 C 
ENDROOT
BRANCH   2   3
ATOM      3  C   UNL     1     -42.388  83.984  17.333  0.00  0.00    +0.000 C 
BRANCH   3   4
ATOM      4  C   UNL     1     -41.476  84.731  17.870  0.00  0.00    +0.000 C 
ATOM      5  C   UNL     1     -41.868  85.826  18.815  0.00  0.00    +0.000 C 
BRANCH   4   7
ATOM      6  C   UNL     1     -38.948  84.265  17.381  0.00  0.00    +0.000 C 
ATOM      7  C   UNL     1     -40.109  84.479  17.604  0.00  0.00    +0.000 C 
BRANCH   6   8
ATOM      8  C   UNL     1     -37.466  83.991  17.100  0.00  0.00    +0.000 C 
BRANCH   8   9
ATOM      9  C   UNL     1     -36.213  83.753  16.871  0.00  0.00    +0.000 C 
ATOM     10  C   UNL     1     -35.783  82.415  16.351  0.00  0.00    +0.000 C 
BRANCH   9  12
ATOM     11  C   UNL     1     -34.412  85.540  17.524  0.00  0.00    +0.000 C 
ATOM     12  C   UNL     1     -35.236  84.718  17.222  0.00  0.00    +0.000 C 
BRANCH  11  18
ATOM     13  C   UNL     1     -33.852  87.939  17.980  0.00  0.00    +0.000 C 
ATOM     14  C   UNL     1     -32.055  86.061  18.068  0.00  0.00    +0.000 C 
ATOM     15  C   UNL     1     -32.767  88.679  18.638  0.00  0.00    +0.000 C 
ATOM     16  C   UNL     1     -31.458  88.459  19.109  0.00  0.00    +0.000 C 
ATOM     17  C   UNL     1     -31.296  87.108  18.740  0.00  0.00    +0.000 C 
ATOM     18  C   UNL     1     -33.510  86.444  17.852  0.00  0.00    +0.000 C 
ATOM     19  C   UNL     1     -34.100  88.513  16.560  0.00  0.00    +0.000 C 
ATOM     20  C   UNL     1     -35.139  88.096  18.847  0.00  0.00    +0.000 C 
ATOM     21  C   UNL     1     -31.396  85.654  16.746  0.00  0.00    +0.000 C 
BRANCH  14  22
ATOM     22  O   UNL     1     -31.996  84.905  18.874  0.00  0.00    +0.000 OA
ATOM     23  H   UNL     1     -32.598  84.305  18.396  0.00  0.00    +0.000 HD
ENDBRANCH  14  22
BRANCH  16  24
ATOM     24  O   UNL     1     -30.469  89.391  18.820  0.00  0.00    +0.000 OA
BRANCH  24  26
ATOM     25  O   UNL     1     -31.316  90.541  16.958  0.00  0.00    +0.000 OA
ATOM     26  C   UNL     1     -30.558  89.773  17.522  0.00  0.00    +0.000 C 
ATOM     27  C   UNL     1     -29.557  89.129  16.628  0.00  0.00    +0.000 C 
ENDBRANCH  24  26
ENDBRANCH  16  24
ENDBRANCH  11  18
ENDBRANCH   9  12
ENDBRANCH   8   9
ENDBRANCH   6   8
ENDBRANCH   4   7
ENDBRANCH   3   4
ENDBRANCH   2   3
BRANCH   1  28
ATOM     28  C   UNL     1     -45.387  81.515  15.568  0.00  0.00    +0.000 C 
BRANCH  28  29
ATOM     29  C   UNL     1     -46.288  80.749  15.040  0.00  0.00    +0.000 C 
ATOM     30  C   UNL     1     -47.478  80.325  15.845  0.00  0.00    +0.000 C 
BRANCH  29  32
ATOM     31  C   UNL     1     -45.974  79.888  12.589  0.00  0.00    +0.000 C 
ATOM     32  C   UNL     1     -46.126  80.284  13.712  0.00  0.00    +0.000 C 
BRANCH  31  33
ATOM     33  C   UNL     1     -45.765  79.382  11.157  0.00  0.00    +0.000 C 
BRANCH  33  34
ATOM     34  C   UNL     1     -45.580  78.959   9.941  0.00  0.00    +0.000 C 
ATOM     35  C   UNL     1     -44.491  77.926   9.736  0.00  0.00    +0.000 C 
BRANCH  34  37
ATOM     36  O   UNL     1     -47.614  79.530   8.825  0.00  0.00    +0.000 OA
ATOM     37  C   UNL     1     -46.387  79.520   8.814  0.00  0.00    +0.000 C 
BRANCH  37  38
ATOM     38  C   UNL     1     -45.746  80.082   7.649  0.00  0.00    +0.000 C 
BRANCH  38  40
ATOM     39  O   UNL     1     -45.997  81.508   5.766  0.00  0.00    +0.000 OA
ATOM     40  C   UNL     1     -45.091  80.616   6.471  0.00  0.00    +0.000 C 
ATOM     41  C   UNL     1     -44.864  82.139   6.359  0.00  0.00    +0.000 C 
ATOM     42  C   UNL     1     -44.206  79.670   5.582  0.00  0.00    +0.000 C 
ATOM     43  C   UNL     1     -43.925  82.589   5.382  0.00  0.00    +0.000 C 
ATOM     44  C   UNL     1     -43.451  80.527   4.666  0.00  0.00    +0.000 C 
ATOM     45  C   UNL     1     -43.161  81.886   4.434  0.00  0.00    +0.000 C 
ATOM     46  C   UNL     1     -45.230  83.120   7.476  0.00  0.00    +0.000 C 
ATOM     47  C   UNL     1     -43.263  78.940   6.569  0.00  0.00    +0.000 C 
ATOM     48  C   UNL     1     -45.188  78.706   4.880  0.00  0.00    +0.000 C 
BRANCH  45  49
ATOM     49  O   UNL     1     -41.923  82.291   4.039  0.00  0.00    +0.000 OA
ATOM     50  H   UNL     1     -41.436  81.592   3.569  0.00  0.00    +0.000 HD
ENDBRANCH  45  49
ENDBRANCH  38  40
ENDBRANCH  37  38
ENDBRANCH  34  37
ENDBRANCH  33  34
ENDBRANCH  31  33
ENDBRANCH  29  32
ENDBRANCH  28  29
ENDBRANCH   1  28
TORSDOF 19
ENDMDL
MODEL 9
REMARK VINA RESULT:      -5.6     16.179     22.903
REMARK  Name = 5281239_Fucoxanthin.pdbqt.pdb
REMARK  19 active torsions:
REMARK  status: ('A' for Active; 'I' for Inactive)
REMARK    1  A    between atoms: C_1  and  C_5
REMARK    2  A    between atoms: C_2  and  C_26
REMARK    3  A    between atoms: C_3  and  C_5
REMARK    4  A    between atoms: C_3  and  C_7
REMARK    5  A    between atoms: C_6  and  C_10
REMARK    6  A    between atoms: C_8  and  C_10
REMARK    7  A    between atoms: C_8  and  C_12
REMARK    8  A    between atoms: C_12  and  C_13
REMARK    9  A    between atoms: C_13  and  C_15
REMARK   10  A    between atoms: C_20  and  O_24
REMARK   11  A    between atoms: C_26  and  C_27
REMARK   12  A    between atoms: C_27  and  C_30
REMARK   13  A    between atoms: C_29  and  C_33
REMARK   14  A    between atoms: C_31  and  C_33
REMARK   15  A    between atoms: C_31  and  C_44
REMARK   16  A    between atoms: C_35  and  O_45
REMARK   17  A    between atoms: C_37  and  O_47
REMARK   18  A    between atoms: C_39  and  C_43
REMARK   19  A    between atoms: O_47  and  C_49
REMARK                            x       y       z     vdW  Elec       q    Type
REMARK                         _______ _______ _______ _____ _____    ______ ____
ROOT
ATOM      1  C   UNL     1     -26.358 105.877  -1.799  0.00  0.00    +0.000 C 
ATOM      2  C   UNL     1     -25.479 105.190  -1.357  0.00  0.00    +0.000 C 
ENDROOT
BRANCH   2   3
ATOM      3  C   UNL     1     -24.360 104.311  -0.785  0.00  0.00    +0.000 C 
BRANCH   3   4
ATOM      4  C   UNL     1     -23.414 103.571  -0.298  0.00  0.00    +0.000 C 
ATOM      5  C   UNL     1     -22.057 103.578  -0.932  0.00  0.00    +0.000 C 
BRANCH   4   7
ATOM      6  C   UNL     1     -23.856 102.140   1.848  0.00  0.00    +0.000 C 
ATOM      7  C   UNL     1     -23.652 102.796   0.862  0.00  0.00    +0.000 C 
BRANCH   6   8
ATOM      8  C   UNL     1     -24.120 101.304   3.105  0.00  0.00    +0.000 C 
BRANCH   8   9
ATOM      9  C   UNL     1     -24.341 100.604   4.174  0.00  0.00    +0.000 C 
ATOM     10  C   UNL     1     -25.726 100.131   4.493  0.00  0.00    +0.000 C 
BRANCH   9  12
ATOM     11  C   UNL     1     -22.404 100.207   5.893  0.00  0.00    +0.000 C 
ATOM     12  C   UNL     1     -23.292 100.387   5.102  0.00  0.00    +0.000 C 
BRANCH  11  18
ATOM     13  C   UNL     1     -21.342 100.781   8.089  0.00  0.00    +0.000 C 
ATOM     14  C   UNL     1     -20.289  99.052   6.455  0.00  0.00    +0.000 C 
ATOM     15  C   UNL     1     -20.350 100.178   8.989  0.00  0.00    +0.000 C 
ATOM     16  C   UNL     1     -19.376  99.161   8.975  0.00  0.00    +0.000 C 
ATOM     17  C   UNL     1     -19.507  98.723   7.641  0.00  0.00    +0.000 C 
ATOM     18  C   UNL     1     -21.427 100.014   6.757  0.00  0.00    +0.000 C 
ATOM     19  C   UNL     1     -20.958 102.255   7.787  0.00  0.00    +0.000 C 
ATOM     20  C   UNL     1     -22.731 100.731   8.796  0.00  0.00    +0.000 C 
ATOM     21  C   UNL     1     -19.400  99.594   5.333  0.00  0.00    +0.000 C 
BRANCH  14  22
ATOM     22  O   UNL     1     -20.823  97.850   5.947  0.00  0.00    +0.000 OA
ATOM     23  H   UNL     1     -21.742  97.894   6.271  0.00  0.00    +0.000 HD
ENDBRANCH  14  22
BRANCH  16  24
ATOM     24  O   UNL     1     -18.121  99.419   9.511  0.00  0.00    +0.000 OA
BRANCH  24  26
ATOM     25  O   UNL     1     -17.319  97.250   9.910  0.00  0.00    +0.000 OA
ATOM     26  C   UNL     1     -17.702  98.356  10.243  0.00  0.00    +0.000 C 
ATOM     27  C   UNL     1     -17.729  98.582  11.713  0.00  0.00    +0.000 C 
ENDBRANCH  24  26
ENDBRANCH  16  24
ENDBRANCH  11  18
ENDBRANCH   9  12
ENDBRANCH   8   9
ENDBRANCH   6   8
ENDBRANCH   4   7
ENDBRANCH   3   4
ENDBRANCH   2   3
BRANCH   1  28
ATOM     28  C   UNL     1     -27.485 106.756  -2.354  0.00  0.00    +0.000 C 
BRANCH  28  29
ATOM     29  C   UNL     1     -28.441 107.489  -2.829  0.00  0.00    +0.000 C 
ATOM     30  C   UNL     1     -28.137 108.559  -3.833  0.00  0.00    +0.000 C 
BRANCH  29  32
ATOM     31  C   UNL     1     -30.885 107.138  -1.964  0.00  0.00    +0.000 C 
ATOM     32  C   UNL     1     -29.766 107.303  -2.367  0.00  0.00    +0.000 C 
BRANCH  31  33
ATOM     33  C   UNL     1     -32.308 106.919  -1.436  0.00  0.00    +0.000 C 
BRANCH  33  34
ATOM     34  C   UNL     1     -33.515 106.726  -0.993  0.00  0.00    +0.000 C 
ATOM     35  C   UNL     1     -34.651 107.071  -1.933  0.00  0.00    +0.000 C 
BRANCH  34  37
ATOM     36  O   UNL     1     -32.857 106.245   1.254  0.00  0.00    +0.000 OA
ATOM     37  C   UNL     1     -33.739 106.230   0.400  0.00  0.00    +0.000 C 
BRANCH  37  38
ATOM     38  C   UNL     1     -35.022 105.708   0.805  0.00  0.00    +0.000 C 
BRANCH  38  40
ATOM     39  O   UNL     1     -36.228 103.811   1.575  0.00  0.00    +0.000 OA
ATOM     40  C   UNL     1     -36.325 105.216   1.213  0.00  0.00    +0.000 C 
ATOM     41  C   UNL     1     -36.518 104.698   2.654  0.00  0.00    +0.000 C 
ATOM     42  C   UNL     1     -37.601 105.645   0.404  0.00  0.00    +0.000 C 
ATOM     43  C   UNL     1     -37.859 104.556   3.122  0.00  0.00    +0.000 C 
ATOM     44  C   UNL     1     -38.765 105.254   1.204  0.00  0.00    +0.000 C 
ATOM     45  C   UNL     1     -39.094 104.770   2.484  0.00  0.00    +0.000 C 
ATOM     46  C   UNL     1     -35.413 104.749   3.712  0.00  0.00    +0.000 C 
ATOM     47  C   UNL     1     -37.508 107.185   0.271  0.00  0.00    +0.000 C 
ATOM     48  C   UNL     1     -37.502 104.927  -0.959  0.00  0.00    +0.000 C 
BRANCH  45  49
ATOM     49  O   UNL     1     -40.199 105.208   3.148  0.00  0.00    +0.000 OA
ATOM     50  H   UNL     1     -41.010 104.752   2.860  0.00  0.00    +0.000 HD
ENDBRANCH  45  49
ENDBRANCH  38  40
ENDBRANCH  37  38
ENDBRANCH  34  37
ENDBRANCH  33  34
ENDBRANCH  31  33
ENDBRANCH  29  32
ENDBRANCH  28  29
ENDBRANCH   1  28
TORSDOF 19
ENDMDL
