REMARK  Name = 5281416_Esculetin.pdbqt.pdb
REMARK  2 active torsions:
REMARK  status: ('A' for Active; 'I' for Inactive)
REMARK    1  A    between atoms: C_7  and  O_12
REMARK    2  A    between atoms: C_8  and  O_14
REMARK                            x       y       z     vdW  Elec       q    Type
REMARK                         _______ _______ _______ _____ _____    ______ ____
ROOT
ATOM      1  O   UNL     1      -1.626   1.171   0.000  0.00  0.00    +0.000 OA
ATOM      2  O   UNL     1      -3.941   0.788   0.000  0.00  0.00    +0.000 OA
ATOM      3  C   UNL     1      -0.171  -0.854   0.000  0.00  0.00    +0.000 A 
ATOM      4  C   UNL     1      -0.314   0.561   0.000  0.00  0.00    +0.000 A 
ATOM      5  C   UNL     1       1.082  -1.445   0.000  0.00  0.00    +0.000 A 
ATOM      6  C   UNL     1       0.791   1.400   0.000  0.00  0.00    +0.000 A 
ATOM      7  C   UNL     1       2.189  -0.600   0.000  0.00  0.00    +0.000 A 
ATOM      8  C   UNL     1       2.044   0.796   0.000  0.00  0.00    +0.000 A 
ATOM      9  C   UNL     1      -1.400  -1.559   0.000  0.00  0.00    +0.000 A 
ATOM     10  C   UNL     1      -2.473  -1.036   0.000  0.00  0.00    +0.000 A 
ATOM     11  C   UNL     1      -2.797   0.364   0.000  0.00  0.00    +0.000 A 
ENDROOT
BRANCH   7  12
ATOM     12  O   UNL     1       3.462  -1.107   0.000  0.00  0.00    +0.000 OA
ATOM     13  H   UNL     1       3.396  -2.080  -0.001  0.00  0.00    +0.000 HD
ENDBRANCH   7  12
BRANCH   8  14
ATOM     14  O   UNL     1       3.159   1.588   0.000  0.00  0.00    +0.000 OA
ATOM     15  H   UNL     1       3.916   0.968   0.000  0.00  0.00    +0.000 HD
ENDBRANCH   8  14
TORSDOF 2
