MODEL 1
REMARK VINA RESULT:      -5.2      0.000      0.000
REMARK  Name = 5281416_Esculetin.pdbqt.pdb
REMARK  2 active torsions:
REMARK  status: ('A' for Active; 'I' for Inactive)
REMARK    1  A    between atoms: C_7  and  O_12
REMARK    2  A    between atoms: C_8  and  O_14
REMARK                            x       y       z     vdW  Elec       q    Type
REMARK                         _______ _______ _______ _____ _____    ______ ____
ROOT
ATOM      1  O   UNL     1     -28.260 101.009  17.659  0.00  0.00    +0.000 OA
ATOM      2  O   UNL     1     -26.913 102.892  17.273  0.00  0.00    +0.000 OA
ATOM      3  C   UNL     1     -29.550 100.153  15.705  0.00  0.00    +0.000 A 
ATOM      4  C   UNL     1     -29.185 100.062  17.076  0.00  0.00    +0.000 A 
ATOM      5  C   UNL     1     -30.435  99.250  15.140  0.00  0.00    +0.000 A 
ATOM      6  C   UNL     1     -29.699  99.069  17.897  0.00  0.00    +0.000 A 
ATOM      7  C   UNL     1     -30.949  98.254  15.966  0.00  0.00    +0.000 A 
ATOM      8  C   UNL     1     -30.587  98.167  17.320  0.00  0.00    +0.000 A 
ATOM      9  C   UNL     1     -28.933 101.225  15.013  0.00  0.00    +0.000 A 
ATOM     10  C   UNL     1     -28.172 101.996  15.513  0.00  0.00    +0.000 A 
ATOM     11  C   UNL     1     -27.699 102.050  16.869  0.00  0.00    +0.000 A 
ENDROOT
BRANCH   7  12
ATOM     12  O   UNL     1     -31.830  97.322  15.483  0.00  0.00    +0.000 OA
ATOM     13  H   UNL     1     -32.714  97.734  15.454  0.00  0.00    +0.000 HD
ENDBRANCH   7  12
BRANCH   8  14
ATOM     14  O   UNL     1     -31.116  97.173  18.095  0.00  0.00    +0.000 OA
ATOM     15  H   UNL     1     -30.382  96.873  18.668  0.00  0.00    +0.000 HD
ENDBRANCH   8  14
TORSDOF 2
ENDMDL
MODEL 2
REMARK VINA RESULT:      -5.2      3.841      5.673
REMARK  Name = 5281416_Esculetin.pdbqt.pdb
REMARK  2 active torsions:
REMARK  status: ('A' for Active; 'I' for Inactive)
REMARK    1  A    between atoms: C_7  and  O_12
REMARK    2  A    between atoms: C_8  and  O_14
REMARK                            x       y       z     vdW  Elec       q    Type
REMARK                         _______ _______ _______ _____ _____    ______ ____
ROOT
ATOM      1  O   UNL     1     -33.785 101.475  13.454  0.00  0.00    +0.000 OA
ATOM      2  O   UNL     1     -35.968 102.169  12.945  0.00  0.00    +0.000 OA
ATOM      3  C   UNL     1     -33.576  99.446  14.887  0.00  0.00    +0.000 A 
ATOM      4  C   UNL     1     -32.973 100.500  14.148  0.00  0.00    +0.000 A 
ATOM      5  C   UNL     1     -32.805  98.509  15.555  0.00  0.00    +0.000 A 
ATOM      6  C   UNL     1     -31.594 100.630  14.069  0.00  0.00    +0.000 A 
ATOM      7  C   UNL     1     -31.421  98.642  15.473  0.00  0.00    +0.000 A 
ATOM      8  C   UNL     1     -30.829  99.684  14.743  0.00  0.00    +0.000 A 
ATOM      9  C   UNL     1     -34.993  99.461  14.864  0.00  0.00    +0.000 A 
ATOM     10  C   UNL     1     -35.645 100.276  14.284  0.00  0.00    +0.000 A 
ATOM     11  C   UNL     1     -35.204 101.395  13.498  0.00  0.00    +0.000 A 
ENDROOT
BRANCH   7  12
ATOM     12  O   UNL     1     -30.589  97.756  16.105  0.00  0.00    +0.000 OA
ATOM     13  H   UNL     1     -30.956  96.861  15.980  0.00  0.00    +0.000 HD
ENDBRANCH   7  12
BRANCH   8  14
ATOM     14  O   UNL     1     -29.465  99.777  14.689  0.00  0.00    +0.000 OA
ATOM     15  H   UNL     1     -29.182  99.959  15.608  0.00  0.00    +0.000 HD
ENDBRANCH   8  14
TORSDOF 2
ENDMDL
MODEL 3
REMARK VINA RESULT:      -5.1      3.651      5.587
REMARK  Name = 5281416_Esculetin.pdbqt.pdb
REMARK  2 active torsions:
REMARK  status: ('A' for Active; 'I' for Inactive)
REMARK    1  A    between atoms: C_7  and  O_12
REMARK    2  A    between atoms: C_8  and  O_14
REMARK                            x       y       z     vdW  Elec       q    Type
REMARK                         _______ _______ _______ _____ _____    ______ ____
ROOT
ATOM      1  O   UNL     1     -34.996  99.537  14.825  0.00  0.00    +0.000 OA
ATOM      2  O   UNL     1     -36.977 100.535  14.058  0.00  0.00    +0.000 OA
ATOM      3  C   UNL     1     -32.865 100.564  14.037  0.00  0.00    +0.000 A 
ATOM      4  C   UNL     1     -33.550  99.575  14.796  0.00  0.00    +0.000 A 
ATOM      5  C   UNL     1     -31.480 100.606  14.005  0.00  0.00    +0.000 A 
ATOM      6  C   UNL     1     -32.862  98.619  15.529  0.00  0.00    +0.000 A 
ATOM      7  C   UNL     1     -30.792  99.646  14.742  0.00  0.00    +0.000 A 
ATOM      8  C   UNL     1     -31.472  98.671  15.489  0.00  0.00    +0.000 A 
ATOM      9  C   UNL     1     -33.720 101.460  13.350  0.00  0.00    +0.000 A 
ATOM     10  C   UNL     1     -34.912 101.411  13.387  0.00  0.00    +0.000 A 
ATOM     11  C   UNL     1     -35.758 100.490  14.094  0.00  0.00    +0.000 A 
ENDROOT
BRANCH   7  12
ATOM     12  O   UNL     1     -29.423  99.620  14.762  0.00  0.00    +0.000 OA
ATOM     13  H   UNL     1     -29.104 100.512  14.528  0.00  0.00    +0.000 HD
ENDBRANCH   7  12
BRANCH   8  14
ATOM     14  O   UNL     1     -30.756  97.747  16.199  0.00  0.00    +0.000 OA
ATOM     15  H   UNL     1     -31.380  97.393  16.865  0.00  0.00    +0.000 HD
ENDBRANCH   8  14
TORSDOF 2
ENDMDL
MODEL 4
REMARK VINA RESULT:      -5.1      5.687      7.232
REMARK  Name = 5281416_Esculetin.pdbqt.pdb
REMARK  2 active torsions:
REMARK  status: ('A' for Active; 'I' for Inactive)
REMARK    1  A    between atoms: C_7  and  O_12
REMARK    2  A    between atoms: C_8  and  O_14
REMARK                            x       y       z     vdW  Elec       q    Type
REMARK                         _______ _______ _______ _____ _____    ______ ____
ROOT
ATOM      1  O   UNL     1     -34.995  98.768  15.907  0.00  0.00    +0.000 OA
ATOM      2  O   UNL     1     -32.814  98.595  16.754  0.00  0.00    +0.000 OA
ATOM      3  C   UNL     1     -35.288 100.217  13.898  0.00  0.00    +0.000 A 
ATOM      4  C   UNL     1     -35.838  99.355  14.888  0.00  0.00    +0.000 A 
ATOM      5  C   UNL     1     -36.089 100.783  12.920  0.00  0.00    +0.000 A 
ATOM      6  C   UNL     1     -37.191  99.050  14.910  0.00  0.00    +0.000 A 
ATOM      7  C   UNL     1     -37.447 100.474  12.945  0.00  0.00    +0.000 A 
ATOM      8  C   UNL     1     -37.985  99.623  13.923  0.00  0.00    +0.000 A 
ATOM      9  C   UNL     1     -33.892 100.422  14.022  0.00  0.00    +0.000 A 
ATOM     10  C   UNL     1     -33.214  99.927  14.871  0.00  0.00    +0.000 A 
ATOM     11  C   UNL     1     -33.600  99.043  15.936  0.00  0.00    +0.000 A 
ENDROOT
BRANCH   7  12
ATOM     12  O   UNL     1     -38.305 100.994  12.012  0.00  0.00    +0.000 OA
ATOM     13  H   UNL     1     -38.333 100.377  11.256  0.00  0.00    +0.000 HD
ENDBRANCH   7  12
BRANCH   8  14
ATOM     14  O   UNL     1     -39.325  99.347  13.910  0.00  0.00    +0.000 OA
ATOM     15  H   UNL     1     -39.615  99.435  14.840  0.00  0.00    +0.000 HD
ENDBRANCH   8  14
TORSDOF 2
ENDMDL
MODEL 5
REMARK VINA RESULT:      -4.8     14.928     15.792
REMARK  Name = 5281416_Esculetin.pdbqt.pdb
REMARK  2 active torsions:
REMARK  status: ('A' for Active; 'I' for Inactive)
REMARK    1  A    between atoms: C_7  and  O_12
REMARK    2  A    between atoms: C_8  and  O_14
REMARK                            x       y       z     vdW  Elec       q    Type
REMARK                         _______ _______ _______ _____ _____    ______ ____
ROOT
ATOM      1  O   UNL     1     -37.319 104.366   4.781  0.00  0.00    +0.000 OA
ATOM      2  O   UNL     1     -35.111 104.662   4.046  0.00  0.00    +0.000 OA
ATOM      3  C   UNL     1     -38.598 102.507   3.719  0.00  0.00    +0.000 A 
ATOM      4  C   UNL     1     -38.531 103.588   4.641  0.00  0.00    +0.000 A 
ATOM      5  C   UNL     1     -39.754 101.758   3.579  0.00  0.00    +0.000 A 
ATOM      6  C   UNL     1     -39.617 103.931   5.433  0.00  0.00    +0.000 A 
ATOM      7  C   UNL     1     -40.843 102.105   4.376  0.00  0.00    +0.000 A 
ATOM      8  C   UNL     1     -40.773 103.172   5.285  0.00  0.00    +0.000 A 
ATOM      9  C   UNL     1     -37.401 102.294   2.991  0.00  0.00    +0.000 A 
ATOM     10  C   UNL     1     -36.411 102.948   3.122  0.00  0.00    +0.000 A 
ATOM     11  C   UNL     1     -36.172 104.063   3.997  0.00  0.00    +0.000 A 
ENDROOT
BRANCH   7  12
ATOM     12  O   UNL     1     -42.022 101.412   4.297  0.00  0.00    +0.000 OA
ATOM     13  H   UNL     1     -42.706 101.935   4.756  0.00  0.00    +0.000 HD
ENDBRANCH   7  12
BRANCH   8  14
ATOM     14  O   UNL     1     -41.866 103.478   6.048  0.00  0.00    +0.000 OA
ATOM     15  H   UNL     1     -41.537 103.513   6.968  0.00  0.00    +0.000 HD
ENDBRANCH   8  14
TORSDOF 2
ENDMDL
MODEL 6
REMARK VINA RESULT:      -4.7      7.372      8.939
REMARK  Name = 5281416_Esculetin.pdbqt.pdb
REMARK  2 active torsions:
REMARK  status: ('A' for Active; 'I' for Inactive)
REMARK    1  A    between atoms: C_7  and  O_12
REMARK    2  A    between atoms: C_8  and  O_14
REMARK                            x       y       z     vdW  Elec       q    Type
REMARK                         _______ _______ _______ _____ _____    ______ ____
ROOT
ATOM      1  O   UNL     1     -36.149  98.476  15.986  0.00  0.00    +0.000 OA
ATOM      2  O   UNL     1     -36.328  97.643  18.172  0.00  0.00    +0.000 OA
ATOM      3  C   UNL     1     -38.059  99.857  15.171  0.00  0.00    +0.000 A 
ATOM      4  C   UNL     1     -36.786  99.261  14.951  0.00  0.00    +0.000 A 
ATOM      5  C   UNL     1     -38.675 100.609  14.184  0.00  0.00    +0.000 A 
ATOM      6  C   UNL     1     -36.115  99.411  13.746  0.00  0.00    +0.000 A 
ATOM      7  C   UNL     1     -37.999 100.758  12.975  0.00  0.00    +0.000 A 
ATOM      8  C   UNL     1     -36.743 100.169  12.762  0.00  0.00    +0.000 A 
ATOM      9  C   UNL     1     -38.601  99.604  16.455  0.00  0.00    +0.000 A 
ATOM     10  C   UNL     1     -38.059  98.953  17.295  0.00  0.00    +0.000 A 
ATOM     11  C   UNL     1     -36.787  98.287  17.243  0.00  0.00    +0.000 A 
ENDROOT
BRANCH   7  12
ATOM     12  O   UNL     1     -38.541 101.487  11.950  0.00  0.00    +0.000 OA
ATOM     13  H   UNL     1     -39.382 101.866  12.266  0.00  0.00    +0.000 HD
ENDBRANCH   7  12
BRANCH   8  14
ATOM     14  O   UNL     1     -36.115 100.341  11.560  0.00  0.00    +0.000 OA
ATOM     15  H   UNL     1     -36.132 101.305  11.395  0.00  0.00    +0.000 HD
ENDBRANCH   8  14
TORSDOF 2
ENDMDL
MODEL 7
REMARK VINA RESULT:      -4.6     10.690     11.970
REMARK  Name = 5281416_Esculetin.pdbqt.pdb
REMARK  2 active torsions:
REMARK  status: ('A' for Active; 'I' for Inactive)
REMARK    1  A    between atoms: C_7  and  O_12
REMARK    2  A    between atoms: C_8  and  O_14
REMARK                            x       y       z     vdW  Elec       q    Type
REMARK                         _______ _______ _______ _____ _____    ______ ____
ROOT
ATOM      1  O   UNL     1     -22.098 100.598   9.756  0.00  0.00    +0.000 OA
ATOM      2  O   UNL     1     -20.829 100.323  11.711  0.00  0.00    +0.000 OA
ATOM      3  C   UNL     1     -21.160  99.587   7.679  0.00  0.00    +0.000 A 
ATOM      4  C   UNL     1     -22.183 100.322   8.339  0.00  0.00    +0.000 A 
ATOM      5  C   UNL     1     -21.236  99.318   6.322  0.00  0.00    +0.000 A 
ATOM      6  C   UNL     1     -23.291 100.796   7.651  0.00  0.00    +0.000 A 
ATOM      7  C   UNL     1     -22.349  99.796   5.635  0.00  0.00    +0.000 A 
ATOM      8  C   UNL     1     -23.357 100.521   6.289  0.00  0.00    +0.000 A 
ATOM      9  C   UNL     1     -20.103  99.178   8.529  0.00  0.00    +0.000 A 
ATOM     10  C   UNL     1     -20.051  99.417   9.697  0.00  0.00    +0.000 A 
ATOM     11  C   UNL     1     -20.987 100.139  10.515  0.00  0.00    +0.000 A 
ENDROOT
BRANCH   7  12
ATOM     12  O   UNL     1     -22.497  99.572   4.291  0.00  0.00    +0.000 OA
ATOM     13  H   UNL     1     -23.375  99.171   4.150  0.00  0.00    +0.000 HD
ENDBRANCH   7  12
BRANCH   8  14
ATOM     14  O   UNL     1     -24.433 100.971   5.575  0.00  0.00    +0.000 OA
ATOM     15  H   UNL     1     -24.073 101.646   4.964  0.00  0.00    +0.000 HD
ENDBRANCH   8  14
TORSDOF 2
ENDMDL
MODEL 8
REMARK VINA RESULT:      -4.5     14.625     16.008
REMARK  Name = 5281416_Esculetin.pdbqt.pdb
REMARK  2 active torsions:
REMARK  status: ('A' for Active; 'I' for Inactive)
REMARK    1  A    between atoms: C_7  and  O_12
REMARK    2  A    between atoms: C_8  and  O_14
REMARK                            x       y       z     vdW  Elec       q    Type
REMARK                         _______ _______ _______ _____ _____    ______ ____
ROOT
ATOM      1  O   UNL     1     -25.525 105.073   2.001  0.00  0.00    +0.000 OA
ATOM      2  O   UNL     1     -26.148 106.652   0.382  0.00  0.00    +0.000 OA
ATOM      3  C   UNL     1     -24.162 103.145   1.198  0.00  0.00    +0.000 A 
ATOM      4  C   UNL     1     -24.817 103.836   2.254  0.00  0.00    +0.000 A 
ATOM      5  C   UNL     1     -23.483 101.961   1.433  0.00  0.00    +0.000 A 
ATOM      6  C   UNL     1     -24.801 103.353   3.555  0.00  0.00    +0.000 A 
ATOM      7  C   UNL     1     -23.468 101.479   2.739  0.00  0.00    +0.000 A 
ATOM      8  C   UNL     1     -24.116 102.163   3.779  0.00  0.00    +0.000 A 
ATOM      9  C   UNL     1     -24.278 103.777  -0.065  0.00  0.00    +0.000 A 
ATOM     10  C   UNL     1     -24.867 104.798  -0.253  0.00  0.00    +0.000 A 
ATOM     11  C   UNL     1     -25.577 105.619   0.689  0.00  0.00    +0.000 A 
ENDROOT
BRANCH   7  12
ATOM     12  O   UNL     1     -22.818 100.314   3.053  0.00  0.00    +0.000 OA
ATOM     13  H   UNL     1     -22.906  99.709   2.293  0.00  0.00    +0.000 HD
ENDBRANCH   7  12
BRANCH   8  14
ATOM     14  O   UNL     1     -24.076 101.653   5.048  0.00  0.00    +0.000 OA
ATOM     15  H   UNL     1     -23.528 102.281   5.561  0.00  0.00    +0.000 HD
ENDBRANCH   8  14
TORSDOF 2
ENDMDL
MODEL 9
REMARK VINA RESULT:      -4.4     14.817     15.852
REMARK  Name = 5281416_Esculetin.pdbqt.pdb
REMARK  2 active torsions:
REMARK  status: ('A' for Active; 'I' for Inactive)
REMARK    1  A    between atoms: C_7  and  O_12
REMARK    2  A    between atoms: C_8  and  O_14
REMARK                            x       y       z     vdW  Elec       q    Type
REMARK                         _______ _______ _______ _____ _____    ______ ____
ROOT
ATOM      1  O   UNL     1     -38.471 104.158   5.459  0.00  0.00    +0.000 OA
ATOM      2  O   UNL     1     -40.381 102.871   5.909  0.00  0.00    +0.000 OA
ATOM      3  C   UNL     1     -37.148 103.505   3.449  0.00  0.00    +0.000 A 
ATOM      4  C   UNL     1     -37.344 104.353   4.573  0.00  0.00    +0.000 A 
ATOM      5  C   UNL     1     -36.070 103.686   2.597  0.00  0.00    +0.000 A 
ATOM      6  C   UNL     1     -36.468 105.391   4.859  0.00  0.00    +0.000 A 
ATOM      7  C   UNL     1     -35.193 104.728   2.886  0.00  0.00    +0.000 A 
ATOM      8  C   UNL     1     -35.390 105.564   3.997  0.00  0.00    +0.000 A 
ATOM      9  C   UNL     1     -38.134 102.498   3.306  0.00  0.00    +0.000 A 
ATOM     10  C   UNL     1     -39.058 102.354   4.048  0.00  0.00    +0.000 A 
ATOM     11  C   UNL     1     -39.404 103.111   5.219  0.00  0.00    +0.000 A 
ENDROOT
BRANCH   7  12
ATOM     12  O   UNL     1     -34.104 104.972   2.092  0.00  0.00    +0.000 OA
ATOM     13  H   UNL     1     -33.844 105.904   2.220  0.00  0.00    +0.000 HD
ENDBRANCH   7  12
BRANCH   8  14
ATOM     14  O   UNL     1     -34.503 106.575   4.243  0.00  0.00    +0.000 OA
ATOM     15  H   UNL     1     -33.992 106.286   5.026  0.00  0.00    +0.000 HD
ENDBRANCH   8  14
TORSDOF 2
ENDMDL
