MODEL 1
REMARK VINA RESULT:      -6.4      0.000      0.000
REMARK  Name = 5281698_sexangularetin.pdbqt.pdb
REMARK  6 active torsions:
REMARK  status: ('A' for Active; 'I' for Inactive)
REMARK    1  A    between atoms: C_5  and  C_12
REMARK    2  A    between atoms: C_6  and  O_20
REMARK    3  A    between atoms: C_8  and  O_22
REMARK    4  A    between atoms: C_9  and  O_24
REMARK    5  A    between atoms: C_10  and  O_26
REMARK    6  A    between atoms: C_17  and  O_18
REMARK                            x       y       z     vdW  Elec       q    Type
REMARK                         _______ _______ _______ _____ _____    ______ ____
ROOT
ATOM      1  O   UNL     1     -34.514  99.288  15.379  0.00  0.00    +0.000 OA
ATOM      2  O   UNL     1     -31.438 101.092  13.456  0.00  0.00    +0.000 OA
ATOM      3  C   UNL     1     -32.123  99.574  15.119  0.00  0.00    +0.000 A 
ATOM      4  C   UNL     1     -33.225  98.997  15.748  0.00  0.00    +0.000 A 
ATOM      5  C   UNL     1     -34.751 100.231  14.385  0.00  0.00    +0.000 A 
ATOM      6  C   UNL     1     -33.024  98.071  16.781  0.00  0.00    +0.000 A 
ATOM      7  C   UNL     1     -32.364 100.549  14.054  0.00  0.00    +0.000 A 
ATOM      8  C   UNL     1     -33.769 100.859  13.710  0.00  0.00    +0.000 A 
ATOM      9  C   UNL     1     -30.824  99.215  15.497  0.00  0.00    +0.000 A 
ATOM     10  C   UNL     1     -31.722  97.689  17.125  0.00  0.00    +0.000 A 
ATOM     11  C   UNL     1     -30.623  98.266  16.494  0.00  0.00    +0.000 A 
ENDROOT
BRANCH   5  12
ATOM     12  C   UNL     1     -36.189 100.454  14.135  0.00  0.00    +0.000 A 
ATOM     13  C   UNL     1     -36.902 101.351  14.940  0.00  0.00    +0.000 A 
ATOM     14  C   UNL     1     -36.860  99.845  13.070  0.00  0.00    +0.000 A 
ATOM     15  C   UNL     1     -38.249 101.617  14.705  0.00  0.00    +0.000 A 
ATOM     16  C   UNL     1     -38.208 100.101  12.825  0.00  0.00    +0.000 A 
ATOM     17  C   UNL     1     -38.892 100.987  13.647  0.00  0.00    +0.000 A 
BRANCH  17  18
ATOM     18  O   UNL     1     -40.211 101.226  13.391  0.00  0.00    +0.000 OA
ATOM     19  H   UNL     1     -40.731 100.898  14.145  0.00  0.00    +0.000 HD
ENDBRANCH  17  18
ENDBRANCH   5  12
BRANCH   6  20
ATOM     20  O   UNL     1     -34.082  97.457  17.405  0.00  0.00    +0.000 OA
ATOM     21  C   UNL     1     -34.501  98.189  18.533  0.00  0.00    +0.000 C 
ENDBRANCH   6  20
BRANCH   8  22
ATOM     22  O   UNL     1     -33.979 101.770  12.693  0.00  0.00    +0.000 OA
ATOM     23  H   UNL     1     -33.794 102.651  13.082  0.00  0.00    +0.000 HD
ENDBRANCH   8  22
BRANCH   9  24
ATOM     24  O   UNL     1     -29.702  99.742  14.918  0.00  0.00    +0.000 OA
ATOM     25  H   UNL     1     -29.867  99.862  13.955  0.00  0.00    +0.000 HD
ENDBRANCH   9  24
BRANCH  10  26
ATOM     26  O   UNL     1     -31.523  96.727  18.075  0.00  0.00    +0.000 OA
ATOM     27  H   UNL     1     -30.972  96.019  17.692  0.00  0.00    +0.000 HD
ENDBRANCH  10  26
TORSDOF 6
ENDMDL
MODEL 2
REMARK VINA RESULT:      -6.4      1.102      3.353
REMARK  Name = 5281698_sexangularetin.pdbqt.pdb
REMARK  6 active torsions:
REMARK  status: ('A' for Active; 'I' for Inactive)
REMARK    1  A    between atoms: C_5  and  C_12
REMARK    2  A    between atoms: C_6  and  O_20
REMARK    3  A    between atoms: C_8  and  O_22
REMARK    4  A    between atoms: C_9  and  O_24
REMARK    5  A    between atoms: C_10  and  O_26
REMARK    6  A    between atoms: C_17  and  O_18
REMARK                            x       y       z     vdW  Elec       q    Type
REMARK                         _______ _______ _______ _____ _____    ______ ____
ROOT
ATOM      1  O   UNL     1     -33.910  99.860  14.820  0.00  0.00    +0.000 OA
ATOM      2  O   UNL     1     -34.144  97.263  17.921  0.00  0.00    +0.000 OA
ATOM      3  C   UNL     1     -32.770  98.422  16.402  0.00  0.00    +0.000 A 
ATOM      4  C   UNL     1     -32.759  99.312  15.329  0.00  0.00    +0.000 A 
ATOM      5  C   UNL     1     -35.142  99.483  15.342  0.00  0.00    +0.000 A 
ATOM      6  C   UNL     1     -31.536  99.685  14.754  0.00  0.00    +0.000 A 
ATOM      7  C   UNL     1     -34.063  98.040  16.972  0.00  0.00    +0.000 A 
ATOM      8  C   UNL     1     -35.281  98.627  16.372  0.00  0.00    +0.000 A 
ATOM      9  C   UNL     1     -31.570  97.921  16.919  0.00  0.00    +0.000 A 
ATOM     10  C   UNL     1     -30.339  99.210  15.303  0.00  0.00    +0.000 A 
ATOM     11  C   UNL     1     -30.354  98.321  16.374  0.00  0.00    +0.000 A 
ENDROOT
BRANCH   5  12
ATOM     12  C   UNL     1     -36.278 100.135  14.659  0.00  0.00    +0.000 A 
ATOM     13  C   UNL     1     -36.802 101.328  15.171  0.00  0.00    +0.000 A 
ATOM     14  C   UNL     1     -36.813  99.635  13.467  0.00  0.00    +0.000 A 
ATOM     15  C   UNL     1     -37.845 101.992  14.529  0.00  0.00    +0.000 A 
ATOM     16  C   UNL     1     -37.858 100.288  12.816  0.00  0.00    +0.000 A 
ATOM     17  C   UNL     1     -38.365 101.464  13.353  0.00  0.00    +0.000 A 
BRANCH  17  18
ATOM     18  O   UNL     1     -39.386 102.090  12.700  0.00  0.00    +0.000 OA
ATOM     19  H   UNL     1     -39.216 103.048  12.717  0.00  0.00    +0.000 HD
ENDBRANCH  17  18
ENDBRANCH   5  12
BRANCH   6  20
ATOM     20  O   UNL     1     -31.480 100.583  13.716  0.00  0.00    +0.000 OA
ATOM     21  C   UNL     1     -31.400 101.906  14.193  0.00  0.00    +0.000 C 
ENDBRANCH   6  20
BRANCH   8  22
ATOM     22  O   UNL     1     -36.492  98.268  16.932  0.00  0.00    +0.000 OA
ATOM     23  H   UNL     1     -36.369  98.345  17.902  0.00  0.00    +0.000 HD
ENDBRANCH   8  22
BRANCH   9  24
ATOM     24  O   UNL     1     -31.513  97.048  17.970  0.00  0.00    +0.000 OA
ATOM     25  H   UNL     1     -32.198  96.353  17.845  0.00  0.00    +0.000 HD
ENDBRANCH   9  24
BRANCH  10  26
ATOM     26  O   UNL     1     -29.143  99.634  14.796  0.00  0.00    +0.000 OA
ATOM     27  H   UNL     1     -28.613 100.011  15.523  0.00  0.00    +0.000 HD
ENDBRANCH  10  26
TORSDOF 6
ENDMDL
MODEL 3
REMARK VINA RESULT:      -6.2     11.366     13.907
REMARK  Name = 5281698_sexangularetin.pdbqt.pdb
REMARK  6 active torsions:
REMARK  status: ('A' for Active; 'I' for Inactive)
REMARK    1  A    between atoms: C_5  and  C_12
REMARK    2  A    between atoms: C_6  and  O_20
REMARK    3  A    between atoms: C_8  and  O_22
REMARK    4  A    between atoms: C_9  and  O_24
REMARK    5  A    between atoms: C_10  and  O_26
REMARK    6  A    between atoms: C_17  and  O_18
REMARK                            x       y       z     vdW  Elec       q    Type
REMARK                         _______ _______ _______ _____ _____    ______ ____
ROOT
ATOM      1  O   UNL     1     -29.394  87.190  15.632  0.00  0.00    +0.000 OA
ATOM      2  O   UNL     1     -28.612  91.121  16.221  0.00  0.00    +0.000 OA
ATOM      3  C   UNL     1     -29.653  89.164  17.011  0.00  0.00    +0.000 A 
ATOM      4  C   UNL     1     -29.895  87.817  16.744  0.00  0.00    +0.000 A 
ATOM      5  C   UNL     1     -28.665  87.919  14.699  0.00  0.00    +0.000 A 
ATOM      6  C   UNL     1     -30.659  87.061  17.645  0.00  0.00    +0.000 A 
ATOM      7  C   UNL     1     -28.865  89.931  16.046  0.00  0.00    +0.000 A 
ATOM      8  C   UNL     1     -28.372  89.225  14.843  0.00  0.00    +0.000 A 
ATOM      9  C   UNL     1     -30.147  89.753  18.180  0.00  0.00    +0.000 A 
ATOM     10  C   UNL     1     -31.114  87.649  18.830  0.00  0.00    +0.000 A 
ATOM     11  C   UNL     1     -30.871  88.994  19.094  0.00  0.00    +0.000 A 
ENDROOT
BRANCH   5  12
ATOM     12  C   UNL     1     -28.231  87.104  13.546  0.00  0.00    +0.000 A 
ATOM     13  C   UNL     1     -26.911  86.640  13.482  0.00  0.00    +0.000 A 
ATOM     14  C   UNL     1     -29.117  86.716  12.536  0.00  0.00    +0.000 A 
ATOM     15  C   UNL     1     -26.480  85.834  12.431  0.00  0.00    +0.000 A 
ATOM     16  C   UNL     1     -28.698  85.911  11.478  0.00  0.00    +0.000 A 
ATOM     17  C   UNL     1     -27.380  85.476  11.435  0.00  0.00    +0.000 A 
BRANCH  17  18
ATOM     18  O   UNL     1     -26.989  84.688  10.392  0.00  0.00    +0.000 OA
ATOM     19  H   UNL     1     -26.160  85.049  10.032  0.00  0.00    +0.000 HD
ENDBRANCH  17  18
ENDBRANCH   5  12
BRANCH   6  20
ATOM     20  O   UNL     1     -30.895  85.724  17.434  0.00  0.00    +0.000 OA
ATOM     21  C   UNL     1     -32.150  85.519  16.829  0.00  0.00    +0.000 C 
ENDBRANCH   6  20
BRANCH   8  22
ATOM     22  O   UNL     1     -27.617  89.960  13.949  0.00  0.00    +0.000 OA
ATOM     23  H   UNL     1     -27.415  90.805  14.404  0.00  0.00    +0.000 HD
ENDBRANCH   8  22
BRANCH   9  24
ATOM     24  O   UNL     1     -29.942  91.067  18.502  0.00  0.00    +0.000 OA
ATOM     25  H   UNL     1     -30.801  91.469  18.764  0.00  0.00    +0.000 HD
ENDBRANCH   9  24
BRANCH  10  26
ATOM     26  O   UNL     1     -31.790  86.895  19.748  0.00  0.00    +0.000 OA
ATOM     27  H   UNL     1     -31.271  86.871  20.574  0.00  0.00    +0.000 HD
ENDBRANCH  10  26
TORSDOF 6
ENDMDL
MODEL 4
REMARK VINA RESULT:      -6.0      1.982      6.125
REMARK  Name = 5281698_sexangularetin.pdbqt.pdb
REMARK  6 active torsions:
REMARK  status: ('A' for Active; 'I' for Inactive)
REMARK    1  A    between atoms: C_5  and  C_12
REMARK    2  A    between atoms: C_6  and  O_20
REMARK    3  A    between atoms: C_8  and  O_22
REMARK    4  A    between atoms: C_9  and  O_24
REMARK    5  A    between atoms: C_10  and  O_26
REMARK    6  A    between atoms: C_17  and  O_18
REMARK                            x       y       z     vdW  Elec       q    Type
REMARK                         _______ _______ _______ _____ _____    ______ ____
ROOT
ATOM      1  O   UNL     1     -35.157  99.943  15.434  0.00  0.00    +0.000 OA
ATOM      2  O   UNL     1     -37.236 100.850  12.076  0.00  0.00    +0.000 OA
ATOM      3  C   UNL     1     -37.295 100.095  14.305  0.00  0.00    +0.000 A 
ATOM      4  C   UNL     1     -36.521  99.790  15.423  0.00  0.00    +0.000 A 
ATOM      5  C   UNL     1     -34.501 100.361  14.281  0.00  0.00    +0.000 A 
ATOM      6  C   UNL     1     -37.145  99.329  16.591  0.00  0.00    +0.000 A 
ATOM      7  C   UNL     1     -36.614 100.560  13.096  0.00  0.00    +0.000 A 
ATOM      8  C   UNL     1     -35.139 100.678  13.138  0.00  0.00    +0.000 A 
ATOM      9  C   UNL     1     -38.688  99.967  14.352  0.00  0.00    +0.000 A 
ATOM     10  C   UNL     1     -38.541  99.242  16.641  0.00  0.00    +0.000 A 
ATOM     11  C   UNL     1     -39.312  99.548  15.523  0.00  0.00    +0.000 A 
ENDROOT
BRANCH   5  12
ATOM     12  C   UNL     1     -33.036 100.437  14.450  0.00  0.00    +0.000 A 
ATOM     13  C   UNL     1     -32.336  99.329  14.943  0.00  0.00    +0.000 A 
ATOM     14  C   UNL     1     -32.303 101.565  14.067  0.00  0.00    +0.000 A 
ATOM     15  C   UNL     1     -30.950  99.352  15.074  0.00  0.00    +0.000 A 
ATOM     16  C   UNL     1     -30.916 101.602  14.195  0.00  0.00    +0.000 A 
ATOM     17  C   UNL     1     -30.250 100.492  14.699  0.00  0.00    +0.000 A 
BRANCH  17  18
ATOM     18  O   UNL     1     -28.891 100.547  14.815  0.00  0.00    +0.000 OA
ATOM     19  H   UNL     1     -28.676 100.981  15.659  0.00  0.00    +0.000 HD
ENDBRANCH  17  18
ENDBRANCH   5  12
BRANCH   6  20
ATOM     20  O   UNL     1     -36.421  99.047  17.724  0.00  0.00    +0.000 OA
ATOM     21  C   UNL     1     -35.936  97.725  17.699  0.00  0.00    +0.000 C 
ENDBRANCH   6  20
BRANCH   8  22
ATOM     22  O   UNL     1     -34.513 101.133  11.993  0.00  0.00    +0.000 OA
ATOM     23  H   UNL     1     -35.117 101.803  11.609  0.00  0.00    +0.000 HD
ENDBRANCH   8  22
BRANCH   9  24
ATOM     24  O   UNL     1     -39.503 100.253  13.292  0.00  0.00    +0.000 OA
ATOM     25  H   UNL     1     -40.102 100.993  13.541  0.00  0.00    +0.000 HD
ENDBRANCH   9  24
BRANCH  10  26
ATOM     26  O   UNL     1     -39.159  98.871  17.802  0.00  0.00    +0.000 OA
ATOM     27  H   UNL     1     -38.737  99.343  18.544  0.00  0.00    +0.000 HD
ENDBRANCH  10  26
TORSDOF 6
ENDMDL
MODEL 5
REMARK VINA RESULT:      -5.9      1.905      6.293
REMARK  Name = 5281698_sexangularetin.pdbqt.pdb
REMARK  6 active torsions:
REMARK  status: ('A' for Active; 'I' for Inactive)
REMARK    1  A    between atoms: C_5  and  C_12
REMARK    2  A    between atoms: C_6  and  O_20
REMARK    3  A    between atoms: C_8  and  O_22
REMARK    4  A    between atoms: C_9  and  O_24
REMARK    5  A    between atoms: C_10  and  O_26
REMARK    6  A    between atoms: C_17  and  O_18
REMARK                            x       y       z     vdW  Elec       q    Type
REMARK                         _______ _______ _______ _____ _____    ______ ____
ROOT
ATOM      1  O   UNL     1     -34.864  99.608  15.786  0.00  0.00    +0.000 OA
ATOM      2  O   UNL     1     -35.007 101.226  12.074  0.00  0.00    +0.000 OA
ATOM      3  C   UNL     1     -36.197 100.324  13.894  0.00  0.00    +0.000 A 
ATOM      4  C   UNL     1     -36.078  99.763  15.165  0.00  0.00    +0.000 A 
ATOM      5  C   UNL     1     -33.697  99.962  15.118  0.00  0.00    +0.000 A 
ATOM      6  C   UNL     1     -37.231  99.359  15.851  0.00  0.00    +0.000 A 
ATOM      7  C   UNL     1     -34.974 100.723  13.195  0.00  0.00    +0.000 A 
ATOM      8  C   UNL     1     -33.684 100.506  13.886  0.00  0.00    +0.000 A 
ATOM      9  C   UNL     1     -37.458 100.505  13.315  0.00  0.00    +0.000 A 
ATOM     10  C   UNL     1     -38.490  99.581  15.282  0.00  0.00    +0.000 A 
ATOM     11  C   UNL     1     -38.605 100.141  14.012  0.00  0.00    +0.000 A 
ENDROOT
BRANCH   5  12
ATOM     12  C   UNL     1     -32.479  99.697  15.910  0.00  0.00    +0.000 A 
ATOM     13  C   UNL     1     -31.789  98.490  15.737  0.00  0.00    +0.000 A 
ATOM     14  C   UNL     1     -31.944 100.645  16.787  0.00  0.00    +0.000 A 
ATOM     15  C   UNL     1     -30.614  98.226  16.436  0.00  0.00    +0.000 A 
ATOM     16  C   UNL     1     -30.770 100.392  17.494  0.00  0.00    +0.000 A 
ATOM     17  C   UNL     1     -30.113  99.182  17.312  0.00  0.00    +0.000 A 
BRANCH  17  18
ATOM     18  O   UNL     1     -28.964  98.954  18.012  0.00  0.00    +0.000 OA
ATOM     19  H   UNL     1     -28.694  99.790  18.431  0.00  0.00    +0.000 HD
ENDBRANCH  17  18
ENDBRANCH   5  12
BRANCH   6  20
ATOM     20  O   UNL     1     -37.160  98.831  17.118  0.00  0.00    +0.000 OA
ATOM     21  C   UNL     1     -37.172  99.848  18.093  0.00  0.00    +0.000 C 
ENDBRANCH   6  20
BRANCH   8  22
ATOM     22  O   UNL     1     -32.540 100.902  13.218  0.00  0.00    +0.000 OA
ATOM     23  H   UNL     1     -32.499 101.876  13.318  0.00  0.00    +0.000 HD
ENDBRANCH   8  22
BRANCH   9  24
ATOM     24  O   UNL     1     -37.642 101.051  12.075  0.00  0.00    +0.000 OA
ATOM     25  H   UNL     1     -38.051 100.376  11.487  0.00  0.00    +0.000 HD
ENDBRANCH   9  24
BRANCH  10  26
ATOM     26  O   UNL     1     -39.620  99.263  15.981  0.00  0.00    +0.000 OA
ATOM     27  H   UNL     1     -39.513  99.567  16.902  0.00  0.00    +0.000 HD
ENDBRANCH  10  26
TORSDOF 6
ENDMDL
MODEL 6
REMARK VINA RESULT:      -5.8      1.699      2.640
REMARK  Name = 5281698_sexangularetin.pdbqt.pdb
REMARK  6 active torsions:
REMARK  status: ('A' for Active; 'I' for Inactive)
REMARK    1  A    between atoms: C_5  and  C_12
REMARK    2  A    between atoms: C_6  and  O_20
REMARK    3  A    between atoms: C_8  and  O_22
REMARK    4  A    between atoms: C_9  and  O_24
REMARK    5  A    between atoms: C_10  and  O_26
REMARK    6  A    between atoms: C_17  and  O_18
REMARK                            x       y       z     vdW  Elec       q    Type
REMARK                         _______ _______ _______ _____ _____    ______ ____
ROOT
ATOM      1  O   UNL     1     -35.502  98.528  16.392  0.00  0.00    +0.000 OA
ATOM      2  O   UNL     1     -31.481  98.793  15.969  0.00  0.00    +0.000 OA
ATOM      3  C   UNL     1     -33.297  97.883  17.159  0.00  0.00    +0.000 A 
ATOM      4  C   UNL     1     -34.687  97.843  17.258  0.00  0.00    +0.000 A 
ATOM      5  C   UNL     1     -34.941  99.339  15.412  0.00  0.00    +0.000 A 
ATOM      6  C   UNL     1     -35.286  97.066  18.259  0.00  0.00    +0.000 A 
ATOM      7  C   UNL     1     -32.699  98.715  16.114  0.00  0.00    +0.000 A 
ATOM      8  C   UNL     1     -33.613  99.464  15.223  0.00  0.00    +0.000 A 
ATOM      9  C   UNL     1     -32.503  97.134  18.036  0.00  0.00    +0.000 A 
ATOM     10  C   UNL     1     -34.486  96.289  19.105  0.00  0.00    +0.000 A 
ATOM     11  C   UNL     1     -33.098  96.331  19.003  0.00  0.00    +0.000 A 
ENDROOT
BRANCH   5  12
ATOM     12  C   UNL     1     -35.954 100.032  14.591  0.00  0.00    +0.000 A 
ATOM     13  C   UNL     1     -36.422 101.292  14.985  0.00  0.00    +0.000 A 
ATOM     14  C   UNL     1     -36.420  99.501  13.384  0.00  0.00    +0.000 A 
ATOM     15  C   UNL     1     -37.345 101.992  14.211  0.00  0.00    +0.000 A 
ATOM     16  C   UNL     1     -37.345 100.190  12.602  0.00  0.00    +0.000 A 
ATOM     17  C   UNL     1     -37.801 101.433  13.024  0.00  0.00    +0.000 A 
BRANCH  17  18
ATOM     18  O   UNL     1     -38.705 102.093  12.243  0.00  0.00    +0.000 OA
ATOM     19  H   UNL     1     -38.697 103.032  12.498  0.00  0.00    +0.000 HD
ENDBRANCH  17  18
ENDBRANCH   5  12
BRANCH   6  20
ATOM     20  O   UNL     1     -36.652  96.976  18.371  0.00  0.00    +0.000 OA
ATOM     21  C   UNL     1     -37.157  97.966  19.235  0.00  0.00    +0.000 C 
ENDBRANCH   6  20
BRANCH   8  22
ATOM     22  O   UNL     1     -33.034 100.232  14.232  0.00  0.00    +0.000 OA
ATOM     23  H   UNL     1     -32.075 100.248  14.435  0.00  0.00    +0.000 HD
ENDBRANCH   8  22
BRANCH   9  24
ATOM     24  O   UNL     1     -31.136  97.127  17.990  0.00  0.00    +0.000 OA
ATOM     25  H   UNL     1     -30.787  97.514  18.824  0.00  0.00    +0.000 HD
ENDBRANCH   9  24
BRANCH  10  26
ATOM     26  O   UNL     1     -35.068  95.468  20.029  0.00  0.00    +0.000 OA
ATOM     27  H   UNL     1     -35.630  96.008  20.615  0.00  0.00    +0.000 HD
ENDBRANCH  10  26
TORSDOF 6
ENDMDL
MODEL 7
REMARK VINA RESULT:      -5.7      2.168      6.745
REMARK  Name = 5281698_sexangularetin.pdbqt.pdb
REMARK  6 active torsions:
REMARK  status: ('A' for Active; 'I' for Inactive)
REMARK    1  A    between atoms: C_5  and  C_12
REMARK    2  A    between atoms: C_6  and  O_20
REMARK    3  A    between atoms: C_8  and  O_22
REMARK    4  A    between atoms: C_9  and  O_24
REMARK    5  A    between atoms: C_10  and  O_26
REMARK    6  A    between atoms: C_17  and  O_18
REMARK                            x       y       z     vdW  Elec       q    Type
REMARK                         _______ _______ _______ _____ _____    ______ ____
ROOT
ATOM      1  O   UNL     1     -36.193 101.342  15.445  0.00  0.00    +0.000 OA
ATOM      2  O   UNL     1     -38.424 101.039  12.077  0.00  0.00    +0.000 OA
ATOM      3  C   UNL     1     -38.364 101.505  14.383  0.00  0.00    +0.000 A 
ATOM      4  C   UNL     1     -37.543 101.580  15.507  0.00  0.00    +0.000 A 
ATOM      5  C   UNL     1     -35.616 100.954  14.241  0.00  0.00    +0.000 A 
ATOM      6  C   UNL     1     -38.098 101.931  16.746  0.00  0.00    +0.000 A 
ATOM      7  C   UNL     1     -37.759 101.122  13.107  0.00  0.00    +0.000 A 
ATOM      8  C   UNL     1     -36.306 100.840  13.090  0.00  0.00    +0.000 A 
ATOM      9  C   UNL     1     -39.728 101.800  14.482  0.00  0.00    +0.000 A 
ATOM     10  C   UNL     1     -39.455 102.263  16.827  0.00  0.00    +0.000 A 
ATOM     11  C   UNL     1     -40.273 102.187  15.703  0.00  0.00    +0.000 A 
ENDROOT
BRANCH   5  12
ATOM     12  C   UNL     1     -34.165 100.701  14.354  0.00  0.00    +0.000 A 
ATOM     13  C   UNL     1     -33.712  99.535  14.984  0.00  0.00    +0.000 A 
ATOM     14  C   UNL     1     -33.216 101.559  13.791  0.00  0.00    +0.000 A 
ATOM     15  C   UNL     1     -32.353  99.244  15.070  0.00  0.00    +0.000 A 
ATOM     16  C   UNL     1     -31.853 101.281  13.872  0.00  0.00    +0.000 A 
ATOM     17  C   UNL     1     -31.432 100.122  14.513  0.00  0.00    +0.000 A 
BRANCH  17  18
ATOM     18  O   UNL     1     -30.094  99.867  14.580  0.00  0.00    +0.000 OA
ATOM     19  H   UNL     1     -29.633 100.706  14.759  0.00  0.00    +0.000 HD
ENDBRANCH  17  18
ENDBRANCH   5  12
BRANCH   6  20
ATOM     20  O   UNL     1     -37.318 102.047  17.871  0.00  0.00    +0.000 OA
ATOM     21  C   UNL     1     -37.249 100.825  18.569  0.00  0.00    +0.000 C 
ENDBRANCH   6  20
BRANCH   8  22
ATOM     22  O   UNL     1     -35.748 100.494  11.875  0.00  0.00    +0.000 OA
ATOM     23  H   UNL     1     -36.369  99.852  11.470  0.00  0.00    +0.000 HD
ENDBRANCH   8  22
BRANCH   9  24
ATOM     24  O   UNL     1     -40.586 101.747  13.418  0.00  0.00    +0.000 OA
ATOM     25  H   UNL     1     -40.065 101.806  12.586  0.00  0.00    +0.000 HD
ENDBRANCH   9  24
BRANCH  10  26
ATOM     26  O   UNL     1     -39.983 102.683  18.015  0.00  0.00    +0.000 OA
ATOM     27  H   UNL     1     -39.283 102.657  18.694  0.00  0.00    +0.000 HD
ENDBRANCH  10  26
TORSDOF 6
ENDMDL
MODEL 8
REMARK VINA RESULT:      -5.7     13.797     15.980
REMARK  Name = 5281698_sexangularetin.pdbqt.pdb
REMARK  6 active torsions:
REMARK  status: ('A' for Active; 'I' for Inactive)
REMARK    1  A    between atoms: C_5  and  C_12
REMARK    2  A    between atoms: C_6  and  O_20
REMARK    3  A    between atoms: C_8  and  O_22
REMARK    4  A    between atoms: C_9  and  O_24
REMARK    5  A    between atoms: C_10  and  O_26
REMARK    6  A    between atoms: C_17  and  O_18
REMARK                            x       y       z     vdW  Elec       q    Type
REMARK                         _______ _______ _______ _____ _____    ______ ____
ROOT
ATOM      1  O   UNL     1     -22.431 101.909   5.667  0.00  0.00    +0.000 OA
ATOM      2  O   UNL     1     -21.005  98.205   6.477  0.00  0.00    +0.000 OA
ATOM      3  C   UNL     1     -21.700 100.292   7.315  0.00  0.00    +0.000 A 
ATOM      4  C   UNL     1     -22.179 101.554   6.968  0.00  0.00    +0.000 A 
ATOM      5  C   UNL     1     -22.150 101.014   4.641  0.00  0.00    +0.000 A 
ATOM      6  C   UNL     1     -22.437 102.495   7.975  0.00  0.00    +0.000 A 
ATOM      7  C   UNL     1     -21.425  99.335   6.242  0.00  0.00    +0.000 A 
ATOM      8  C   UNL     1     -21.678  99.770   4.850  0.00  0.00    +0.000 A 
ATOM      9  C   UNL     1     -21.499  99.955   8.658  0.00  0.00    +0.000 A 
ATOM     10  C   UNL     1     -22.271 102.136   9.317  0.00  0.00    +0.000 A 
ATOM     11  C   UNL     1     -21.792 100.875   9.660  0.00  0.00    +0.000 A 
ENDROOT
BRANCH   5  12
ATOM     12  C   UNL     1     -22.443 101.565   3.302  0.00  0.00    +0.000 A 
ATOM     13  C   UNL     1     -23.614 101.182   2.636  0.00  0.00    +0.000 A 
ATOM     14  C   UNL     1     -21.619 102.518   2.695  0.00  0.00    +0.000 A 
ATOM     15  C   UNL     1     -23.942 101.715   1.392  0.00  0.00    +0.000 A 
ATOM     16  C   UNL     1     -21.934 103.057   1.450  0.00  0.00    +0.000 A 
ATOM     17  C   UNL     1     -23.097 102.650   0.807  0.00  0.00    +0.000 A 
BRANCH  17  18
ATOM     18  O   UNL     1     -23.389 103.191  -0.410  0.00  0.00    +0.000 OA
ATOM     19  H   UNL     1     -22.706 103.851  -0.621  0.00  0.00    +0.000 HD
ENDBRANCH  17  18
ENDBRANCH   5  12
BRANCH   6  20
ATOM     20  O   UNL     1     -22.940 103.739   7.677  0.00  0.00    +0.000 OA
ATOM     21  C   UNL     1     -21.903 104.672   7.482  0.00  0.00    +0.000 C 
ENDBRANCH   6  20
BRANCH   8  22
ATOM     22  O   UNL     1     -21.429  98.850   3.850  0.00  0.00    +0.000 OA
ATOM     23  H   UNL     1     -20.596  98.400   4.105  0.00  0.00    +0.000 HD
ENDBRANCH   8  22
BRANCH   9  24
ATOM     24  O   UNL     1     -21.033  98.735   9.065  0.00  0.00    +0.000 OA
ATOM     25  H   UNL     1     -20.642  98.270   8.291  0.00  0.00    +0.000 HD
ENDBRANCH   9  24
BRANCH  10  26
ATOM     26  O   UNL     1     -22.598 103.023  10.304  0.00  0.00    +0.000 OA
ATOM     27  H   UNL     1     -21.905 102.995  10.990  0.00  0.00    +0.000 HD
ENDBRANCH  10  26
TORSDOF 6
ENDMDL
MODEL 9
REMARK VINA RESULT:      -5.6      1.900      7.073
REMARK  Name = 5281698_sexangularetin.pdbqt.pdb
REMARK  6 active torsions:
REMARK  status: ('A' for Active; 'I' for Inactive)
REMARK    1  A    between atoms: C_5  and  C_12
REMARK    2  A    between atoms: C_6  and  O_20
REMARK    3  A    between atoms: C_8  and  O_22
REMARK    4  A    between atoms: C_9  and  O_24
REMARK    5  A    between atoms: C_10  and  O_26
REMARK    6  A    between atoms: C_17  and  O_18
REMARK                            x       y       z     vdW  Elec       q    Type
REMARK                         _______ _______ _______ _____ _____    ______ ____
ROOT
ATOM      1  O   UNL     1     -34.853 100.385  14.852  0.00  0.00    +0.000 OA
ATOM      2  O   UNL     1     -37.432  98.435  17.294  0.00  0.00    +0.000 OA
ATOM      3  C   UNL     1     -37.137  99.780  15.385  0.00  0.00    +0.000 A 
ATOM      4  C   UNL     1     -36.199 100.438  14.591  0.00  0.00    +0.000 A 
ATOM      5  C   UNL     1     -34.395  99.706  15.975  0.00  0.00    +0.000 A 
ATOM      6  C   UNL     1     -36.630 101.165  13.472  0.00  0.00    +0.000 A 
ATOM      7  C   UNL     1     -36.659  99.040  16.554  0.00  0.00    +0.000 A 
ATOM      8  C   UNL     1     -35.204  99.038  16.820  0.00  0.00    +0.000 A 
ATOM      9  C   UNL     1     -38.497  99.822  15.056  0.00  0.00    +0.000 A 
ATOM     10  C   UNL     1     -37.987 101.169  13.129  0.00  0.00    +0.000 A 
ATOM     11  C   UNL     1     -38.921 100.510  13.924  0.00  0.00    +0.000 A 
ENDROOT
BRANCH   5  12
ATOM     12  C   UNL     1     -32.928  99.777  16.131  0.00  0.00    +0.000 A 
ATOM     13  C   UNL     1     -32.364 100.781  16.928  0.00  0.00    +0.000 A 
ATOM     14  C   UNL     1     -32.074  98.829  15.560  0.00  0.00    +0.000 A 
ATOM     15  C   UNL     1     -30.987 100.852  17.131  0.00  0.00    +0.000 A 
ATOM     16  C   UNL     1     -30.695  98.889  15.753  0.00  0.00    +0.000 A 
ATOM     17  C   UNL     1     -30.163  99.903  16.539  0.00  0.00    +0.000 A 
BRANCH  17  18
ATOM     18  O   UNL     1     -28.811  99.944  16.718  0.00  0.00    +0.000 OA
ATOM     19  H   UNL     1     -28.423  99.166  16.281  0.00  0.00    +0.000 HD
ENDBRANCH  17  18
ENDBRANCH   5  12
BRANCH   6  20
ATOM     20  O   UNL     1     -35.735 101.802  12.647  0.00  0.00    +0.000 OA
ATOM     21  C   UNL     1     -35.369 103.058  13.169  0.00  0.00    +0.000 C 
ENDBRANCH   6  20
BRANCH   8  22
ATOM     22  O   UNL     1     -34.768  98.323  17.919  0.00  0.00    +0.000 OA
ATOM     23  H   UNL     1     -35.398  98.535  18.640  0.00  0.00    +0.000 HD
ENDBRANCH   8  22
BRANCH   9  24
ATOM     24  O   UNL     1     -39.466  99.197  15.792  0.00  0.00    +0.000 OA
ATOM     25  H   UNL     1     -39.038  98.558  16.406  0.00  0.00    +0.000 HD
ENDBRANCH   9  24
BRANCH  10  26
ATOM     26  O   UNL     1     -38.401 101.809  11.995  0.00  0.00    +0.000 OA
ATOM     27  H   UNL     1     -39.356 101.992  12.071  0.00  0.00    +0.000 HD
ENDBRANCH  10  26
TORSDOF 6
ENDMDL
