MODEL 1
REMARK VINA RESULT:      -6.6      0.000      0.000
REMARK  Name = 5281224_Astaxanthin.pdbqt.pdb
REMARK  16 active torsions:
REMARK  status: ('A' for Active; 'I' for Inactive)
REMARK    1  A    between atoms: C_1  and  C_5
REMARK    2  A    between atoms: C_2  and  C_27
REMARK    3  A    between atoms: C_3  and  C_5
REMARK    4  A    between atoms: C_3  and  C_7
REMARK    5  A    between atoms: C_6  and  C_10
REMARK    6  A    between atoms: C_8  and  C_10
REMARK    7  A    between atoms: C_8  and  C_12
REMARK    8  A    between atoms: C_11  and  C_16
REMARK    9  A    between atoms: C_17  and  O_23
REMARK   10  A    between atoms: C_25  and  C_27
REMARK   11  A    between atoms: C_25  and  C_29
REMARK   12  A    between atoms: C_28  and  C_32
REMARK   13  A    between atoms: C_30  and  C_32
REMARK   14  A    between atoms: C_30  and  C_34
REMARK   15  A    between atoms: C_33  and  C_38
REMARK   16  A    between atoms: C_39  and  O_45
REMARK                            x       y       z     vdW  Elec       q    Type
REMARK                         _______ _______ _______ _____ _____    ______ ____
ROOT
ATOM      1  C   UNL     1     -30.753 106.934  -0.469  0.00  0.00    +0.000 C 
ATOM      2  C   UNL     1     -31.886 106.589  -0.661  0.00  0.00    +0.000 C 
ENDROOT
BRANCH   2   3
ATOM      3  C   UNL     1     -33.334 106.143  -0.901  0.00  0.00    +0.000 C 
BRANCH   3   4
ATOM      4  C   UNL     1     -34.555 105.762  -1.108  0.00  0.00    +0.000 C 
ATOM      5  C   UNL     1     -35.161 105.904  -2.472  0.00  0.00    +0.000 C 
BRANCH   4   7
ATOM      6  C   UNL     1     -36.004 104.885   0.886  0.00  0.00    +0.000 C 
ATOM      7  C   UNL     1     -35.341 105.288  -0.030  0.00  0.00    +0.000 C 
BRANCH   6   8
ATOM      8  C   UNL     1     -36.848 104.371   2.058  0.00  0.00    +0.000 C 
BRANCH   8   9
ATOM      9  C   UNL     1     -37.557 103.939   3.055  0.00  0.00    +0.000 C 
ATOM     10  C   UNL     1     -37.096 104.182   4.460  0.00  0.00    +0.000 C 
BRANCH   9  12
ATOM     11  C   UNL     1     -39.911 102.885   2.598  0.00  0.00    +0.000 C 
ATOM     12  C   UNL     1     -38.834 103.376   2.817  0.00  0.00    +0.000 C 
BRANCH  11  16
ATOM     13  O   UNL     1     -43.384 101.500  -0.571  0.00  0.00    +0.000 OA
ATOM     14  C   UNL     1     -42.026 101.765   3.526  0.00  0.00    +0.000 C 
ATOM     15  C   UNL     1     -43.247 101.228   2.951  0.00  0.00    +0.000 C 
ATOM     16  C   UNL     1     -41.202 102.286   2.321  0.00  0.00    +0.000 C 
ATOM     17  C   UNL     1     -43.816 101.076   1.691  0.00  0.00    +0.000 C 
ATOM     18  C   UNL     1     -41.231 100.644   4.235  0.00  0.00    +0.000 C 
ATOM     19  C   UNL     1     -42.354 102.942   4.471  0.00  0.00    +0.000 C 
ATOM     20  C   UNL     1     -41.641 102.195   1.031  0.00  0.00    +0.000 C 
ATOM     21  C   UNL     1     -42.981 101.588   0.582  0.00  0.00    +0.000 C 
ATOM     22  C   UNL     1     -40.741 102.727  -0.093  0.00  0.00    +0.000 C 
BRANCH  17  23
ATOM     23  O   UNL     1     -45.041 100.498   1.488  0.00  0.00    +0.000 OA
ATOM     24  H   UNL     1     -45.760 101.114   1.735  0.00  0.00    +0.000 HD
ENDBRANCH  17  23
ENDBRANCH  11  16
ENDBRANCH   9  12
ENDBRANCH   8   9
ENDBRANCH   6   8
ENDBRANCH   4   7
ENDBRANCH   3   4
ENDBRANCH   2   3
BRANCH   1  25
ATOM     25  C   UNL     1     -29.305 107.368  -0.214  0.00  0.00    +0.000 C 
BRANCH  25  26
ATOM     26  C   UNL     1     -28.079 107.733  -0.004  0.00  0.00    +0.000 C 
ATOM     27  C   UNL     1     -27.711 109.185  -0.070  0.00  0.00    +0.000 C 
BRANCH  26  29
ATOM     28  C   UNL     1     -26.224 105.930   0.378  0.00  0.00    +0.000 C 
ATOM     29  C   UNL     1     -27.075 106.758   0.201  0.00  0.00    +0.000 C 
BRANCH  28  30
ATOM     30  C   UNL     1     -25.136 104.872   0.608  0.00  0.00    +0.000 C 
BRANCH  30  31
ATOM     31  C   UNL     1     -24.224 103.973   0.803  0.00  0.00    +0.000 C 
ATOM     32  C   UNL     1     -23.266 103.629  -0.297  0.00  0.00    +0.000 C 
BRANCH  31  34
ATOM     33  C   UNL     1     -23.868 102.993   3.207  0.00  0.00    +0.000 C 
ATOM     34  C   UNL     1     -24.035 103.432   2.099  0.00  0.00    +0.000 C 
BRANCH  33  38
ATOM     35  O   UNL     1     -22.878 103.721   7.951  0.00  0.00    +0.000 OA
ATOM     36  C   UNL     1     -23.775 100.949   4.755  0.00  0.00    +0.000 C 
ATOM     37  C   UNL     1     -23.520 100.736   6.170  0.00  0.00    +0.000 C 
ATOM     38  C   UNL     1     -23.658 102.481   4.547  0.00  0.00    +0.000 C 
ATOM     39  C   UNL     1     -23.224 101.501   7.294  0.00  0.00    +0.000 C 
ATOM     40  C   UNL     1     -25.210 100.497   4.397  0.00  0.00    +0.000 C 
ATOM     41  C   UNL     1     -22.701 100.231   3.907  0.00  0.00    +0.000 C 
ATOM     42  C   UNL     1     -23.377 103.347   5.564  0.00  0.00    +0.000 C 
ATOM     43  C   UNL     1     -23.131 102.954   7.031  0.00  0.00    +0.000 C 
ATOM     44  C   UNL     1     -23.299 104.848   5.254  0.00  0.00    +0.000 C 
BRANCH  39  45
ATOM     45  O   UNL     1     -23.038 100.961   8.537  0.00  0.00    +0.000 OA
ATOM     46  H   UNL     1     -22.239 100.395   8.553  0.00  0.00    +0.000 HD
ENDBRANCH  39  45
ENDBRANCH  33  38
ENDBRANCH  31  34
ENDBRANCH  30  31
ENDBRANCH  28  30
ENDBRANCH  26  29
ENDBRANCH  25  26
ENDBRANCH   1  25
TORSDOF 16
ENDMDL
MODEL 2
REMARK VINA RESULT:      -6.4      2.730     16.202
REMARK  Name = 5281224_Astaxanthin.pdbqt.pdb
REMARK  16 active torsions:
REMARK  status: ('A' for Active; 'I' for Inactive)
REMARK    1  A    between atoms: C_1  and  C_5
REMARK    2  A    between atoms: C_2  and  C_27
REMARK    3  A    between atoms: C_3  and  C_5
REMARK    4  A    between atoms: C_3  and  C_7
REMARK    5  A    between atoms: C_6  and  C_10
REMARK    6  A    between atoms: C_8  and  C_10
REMARK    7  A    between atoms: C_8  and  C_12
REMARK    8  A    between atoms: C_11  and  C_16
REMARK    9  A    between atoms: C_17  and  O_23
REMARK   10  A    between atoms: C_25  and  C_27
REMARK   11  A    between atoms: C_25  and  C_29
REMARK   12  A    between atoms: C_28  and  C_32
REMARK   13  A    between atoms: C_30  and  C_32
REMARK   14  A    between atoms: C_30  and  C_34
REMARK   15  A    between atoms: C_33  and  C_38
REMARK   16  A    between atoms: C_39  and  O_45
REMARK                            x       y       z     vdW  Elec       q    Type
REMARK                         _______ _______ _______ _____ _____    ______ ____
ROOT
ATOM      1  C   UNL     1     -32.465 107.647   4.034  0.00  0.00    +0.000 C 
ATOM      2  C   UNL     1     -31.469 107.927   3.425  0.00  0.00    +0.000 C 
ENDROOT
BRANCH   2   3
ATOM      3  C   UNL     1     -30.200 108.293   2.646  0.00  0.00    +0.000 C 
BRANCH   3   4
ATOM      4  C   UNL     1     -29.130 108.602   1.983  0.00  0.00    +0.000 C 
ATOM      5  C   UNL     1     -29.015 109.949   1.335  0.00  0.00    +0.000 C 
BRANCH   4   7
ATOM      6  C   UNL     1     -27.236 106.828   1.650  0.00  0.00    +0.000 C 
ATOM      7  C   UNL     1     -28.107 107.641   1.803  0.00  0.00    +0.000 C 
BRANCH   6   8
ATOM      8  C   UNL     1     -26.122 105.794   1.455  0.00  0.00    +0.000 C 
BRANCH   8   9
ATOM      9  C   UNL     1     -25.181 104.914   1.297  0.00  0.00    +0.000 C 
ATOM     10  C   UNL     1     -24.463 104.815  -0.014  0.00  0.00    +0.000 C 
BRANCH   9  12
ATOM     11  C   UNL     1     -24.355 103.496   3.339  0.00  0.00    +0.000 C 
ATOM     12  C   UNL     1     -24.734 104.157   2.408  0.00  0.00    +0.000 C 
BRANCH  11  16
ATOM     13  O   UNL     1     -22.603 103.094   7.899  0.00  0.00    +0.000 OA
ATOM     14  C   UNL     1     -23.923 101.144   4.272  0.00  0.00    +0.000 C 
ATOM     15  C   UNL     1     -23.426 100.606   5.527  0.00  0.00    +0.000 C 
ATOM     16  C   UNL     1     -23.902 102.684   4.452  0.00  0.00    +0.000 C 
ATOM     17  C   UNL     1     -22.972 101.088   6.750  0.00  0.00    +0.000 C 
ATOM     18  C   UNL     1     -25.381 100.683   4.034  0.00  0.00    +0.000 C 
ATOM     19  C   UNL     1     -22.984 100.748   3.112  0.00  0.00    +0.000 C 
ATOM     20  C   UNL     1     -23.484 103.288   5.603  0.00  0.00    +0.000 C 
ATOM     21  C   UNL     1     -22.979 102.564   6.862  0.00  0.00    +0.000 C 
ATOM     22  C   UNL     1     -23.517 104.820   5.684  0.00  0.00    +0.000 C 
BRANCH  17  23
ATOM     23  O   UNL     1     -22.558 100.271   7.768  0.00  0.00    +0.000 OA
ATOM     24  H   UNL     1     -23.247  99.609   7.983  0.00  0.00    +0.000 HD
ENDBRANCH  17  23
ENDBRANCH  11  16
ENDBRANCH   9  12
ENDBRANCH   8   9
ENDBRANCH   6   8
ENDBRANCH   4   7
ENDBRANCH   3   4
ENDBRANCH   2   3
BRANCH   1  25
ATOM     25  C   UNL     1     -33.740 107.298   4.810  0.00  0.00    +0.000 C 
BRANCH  25  26
ATOM     26  C   UNL     1     -34.816 107.003   5.470  0.00  0.00    +0.000 C 
ATOM     27  C   UNL     1     -35.068 107.634   6.807  0.00  0.00    +0.000 C 
BRANCH  26  29
ATOM     28  C   UNL     1     -36.461 105.189   4.551  0.00  0.00    +0.000 C 
ATOM     29  C   UNL     1     -35.706 106.023   4.972  0.00  0.00    +0.000 C 
BRANCH  28  30
ATOM     30  C   UNL     1     -37.424 104.122   4.016  0.00  0.00    +0.000 C 
BRANCH  30  31
ATOM     31  C   UNL     1     -38.239 103.225   3.556  0.00  0.00    +0.000 C 
ATOM     32  C   UNL     1     -37.736 102.164   2.625  0.00  0.00    +0.000 C 
BRANCH  31  34
ATOM     33  C   UNL     1     -40.692 103.085   4.465  0.00  0.00    +0.000 C 
ATOM     34  C   UNL     1     -39.563 103.156   4.057  0.00  0.00    +0.000 C 
BRANCH  33  38
ATOM     35  O   UNL     1     -44.299 104.594   7.420  0.00  0.00    +0.000 OA
ATOM     36  C   UNL     1     -42.977 101.930   4.281  0.00  0.00    +0.000 C 
ATOM     37  C   UNL     1     -44.261 102.069   4.947  0.00  0.00    +0.000 C 
ATOM     38  C   UNL     1     -42.059 102.992   4.940  0.00  0.00    +0.000 C 
ATOM     39  C   UNL     1     -44.827 102.853   5.948  0.00  0.00    +0.000 C 
ATOM     40  C   UNL     1     -43.120 102.252   2.774  0.00  0.00    +0.000 C 
ATOM     41  C   UNL     1     -42.396 100.521   4.531  0.00  0.00    +0.000 C 
ATOM     42  C   UNL     1     -42.488 103.829   5.930  0.00  0.00    +0.000 C 
ATOM     43  C   UNL     1     -43.903 103.848   6.534  0.00  0.00    +0.000 C 
ATOM     44  C   UNL     1     -41.504 104.855   6.505  0.00  0.00    +0.000 C 
BRANCH  39  45
ATOM     45  O   UNL     1     -46.127 102.721   6.354  0.00  0.00    +0.000 OA
ATOM     46  H   UNL     1     -46.712 103.320   5.846  0.00  0.00    +0.000 HD
ENDBRANCH  39  45
ENDBRANCH  33  38
ENDBRANCH  31  34
ENDBRANCH  30  31
ENDBRANCH  28  30
ENDBRANCH  26  29
ENDBRANCH  25  26
ENDBRANCH   1  25
TORSDOF 16
ENDMDL
MODEL 3
REMARK VINA RESULT:      -6.4      7.784      9.282
REMARK  Name = 5281224_Astaxanthin.pdbqt.pdb
REMARK  16 active torsions:
REMARK  status: ('A' for Active; 'I' for Inactive)
REMARK    1  A    between atoms: C_1  and  C_5
REMARK    2  A    between atoms: C_2  and  C_27
REMARK    3  A    between atoms: C_3  and  C_5
REMARK    4  A    between atoms: C_3  and  C_7
REMARK    5  A    between atoms: C_6  and  C_10
REMARK    6  A    between atoms: C_8  and  C_10
REMARK    7  A    between atoms: C_8  and  C_12
REMARK    8  A    between atoms: C_11  and  C_16
REMARK    9  A    between atoms: C_17  and  O_23
REMARK   10  A    between atoms: C_25  and  C_27
REMARK   11  A    between atoms: C_25  and  C_29
REMARK   12  A    between atoms: C_28  and  C_32
REMARK   13  A    between atoms: C_30  and  C_32
REMARK   14  A    between atoms: C_30  and  C_34
REMARK   15  A    between atoms: C_33  and  C_38
REMARK   16  A    between atoms: C_39  and  O_45
REMARK                            x       y       z     vdW  Elec       q    Type
REMARK                         _______ _______ _______ _____ _____    ______ ____
ROOT
ATOM      1  C   UNL     1     -29.892 109.439   7.940  0.00  0.00    +0.000 C 
ATOM      2  C   UNL     1     -30.998 109.388   8.404  0.00  0.00    +0.000 C 
ENDROOT
BRANCH   2   3
ATOM      3  C   UNL     1     -32.412 109.314   8.994  0.00  0.00    +0.000 C 
BRANCH   3   4
ATOM      4  C   UNL     1     -33.606 109.245   9.492  0.00  0.00    +0.000 C 
ATOM      5  C   UNL     1     -34.724 110.022   8.864  0.00  0.00    +0.000 C 
BRANCH   4   7
ATOM      6  C   UNL     1     -34.033 107.871  11.677  0.00  0.00    +0.000 C 
ATOM      7  C   UNL     1     -33.839 108.500  10.673  0.00  0.00    +0.000 C 
BRANCH   6   8
ATOM      8  C   UNL     1     -34.280 107.071  12.961  0.00  0.00    +0.000 C 
BRANCH   8   9
ATOM      9  C   UNL     1     -34.489 106.386  14.043  0.00  0.00    +0.000 C 
ATOM     10  C   UNL     1     -34.305 107.031  15.383  0.00  0.00    +0.000 C 
BRANCH   9  12
ATOM     11  C   UNL     1     -35.481 103.966  13.890  0.00  0.00    +0.000 C 
ATOM     12  C   UNL     1     -35.035 105.082  13.955  0.00  0.00    +0.000 C 
BRANCH  11  16
ATOM     13  O   UNL     1     -39.153 100.848  12.988  0.00  0.00    +0.000 OA
ATOM     14  C   UNL     1     -35.037 101.453  14.167  0.00  0.00    +0.000 C 
ATOM     15  C   UNL     1     -35.823 100.242  14.008  0.00  0.00    +0.000 C 
ATOM     16  C   UNL     1     -36.002 102.615  13.817  0.00  0.00    +0.000 C 
ATOM     17  C   UNL     1     -37.121  99.892  13.648  0.00  0.00    +0.000 C 
ATOM     18  C   UNL     1     -33.856 101.459  13.169  0.00  0.00    +0.000 C 
ATOM     19  C   UNL     1     -34.569 101.597  15.633  0.00  0.00    +0.000 C 
ATOM     20  C   UNL     1     -37.300 102.411  13.444  0.00  0.00    +0.000 C 
ATOM     21  C   UNL     1     -37.992 101.043  13.322  0.00  0.00    +0.000 C 
ATOM     22  C   UNL     1     -38.168 103.629  13.103  0.00  0.00    +0.000 C 
BRANCH  17  23
ATOM     23  O   UNL     1     -37.557  98.595  13.594  0.00  0.00    +0.000 OA
ATOM     24  H   UNL     1     -36.877  97.985  13.945  0.00  0.00    +0.000 HD
ENDBRANCH  17  23
ENDBRANCH  11  16
ENDBRANCH   9  12
ENDBRANCH   8   9
ENDBRANCH   6   8
ENDBRANCH   4   7
ENDBRANCH   3   4
ENDBRANCH   2   3
BRANCH   1  25
ATOM     25  C   UNL     1     -28.480 109.495   7.345  0.00  0.00    +0.000 C 
BRANCH  25  26
ATOM     26  C   UNL     1     -27.288 109.547   6.840  0.00  0.00    +0.000 C 
ATOM     27  C   UNL     1     -26.384 110.696   7.174  0.00  0.00    +0.000 C 
BRANCH  26  29
ATOM     28  C   UNL     1     -26.517 107.736   5.118  0.00  0.00    +0.000 C 
ATOM     29  C   UNL     1     -26.872 108.568   5.907  0.00  0.00    +0.000 C 
BRANCH  28  30
ATOM     30  C   UNL     1     -26.062 106.670   4.111  0.00  0.00    +0.000 C 
BRANCH  30  31
ATOM     31  C   UNL     1     -25.683 105.775   3.255  0.00  0.00    +0.000 C 
ATOM     32  C   UNL     1     -25.833 106.033   1.786  0.00  0.00    +0.000 C 
BRANCH  31  34
ATOM     33  C   UNL     1     -24.395 103.641   4.063  0.00  0.00    +0.000 C 
ATOM     34  C   UNL     1     -24.986 104.625   3.703  0.00  0.00    +0.000 C 
BRANCH  33  38
ATOM     35  O   UNL     1     -21.033 101.424   6.856  0.00  0.00    +0.000 OA
ATOM     36  C   UNL     1     -24.073 101.109   3.796  0.00  0.00    +0.000 C 
ATOM     37  C   UNL     1     -23.214 100.107   4.406  0.00  0.00    +0.000 C 
ATOM     38  C   UNL     1     -23.687 102.446   4.480  0.00  0.00    +0.000 C 
ATOM     39  C   UNL     1     -22.214 100.052   5.373  0.00  0.00    +0.000 C 
ATOM     40  C   UNL     1     -25.557 100.795   4.099  0.00  0.00    +0.000 C 
ATOM     41  C   UNL     1     -23.787 101.204   2.281  0.00  0.00    +0.000 C 
ATOM     42  C   UNL     1     -22.727 102.533   5.446  0.00  0.00    +0.000 C 
ATOM     43  C   UNL     1     -21.896 101.358   5.990  0.00  0.00    +0.000 C 
ATOM     44  C   UNL     1     -22.432 103.903   6.071  0.00  0.00    +0.000 C 
BRANCH  39  45
ATOM     45  O   UNL     1     -21.582  98.892   5.727  0.00  0.00    +0.000 OA
ATOM     46  H   UNL     1     -20.850  99.073   6.352  0.00  0.00    +0.000 HD
ENDBRANCH  39  45
ENDBRANCH  33  38
ENDBRANCH  31  34
ENDBRANCH  30  31
ENDBRANCH  28  30
ENDBRANCH  26  29
ENDBRANCH  25  26
ENDBRANCH   1  25
TORSDOF 16
ENDMDL
MODEL 4
REMARK VINA RESULT:      -6.3      9.313     18.131
REMARK  Name = 5281224_Astaxanthin.pdbqt.pdb
REMARK  16 active torsions:
REMARK  status: ('A' for Active; 'I' for Inactive)
REMARK    1  A    between atoms: C_1  and  C_5
REMARK    2  A    between atoms: C_2  and  C_27
REMARK    3  A    between atoms: C_3  and  C_5
REMARK    4  A    between atoms: C_3  and  C_7
REMARK    5  A    between atoms: C_6  and  C_10
REMARK    6  A    between atoms: C_8  and  C_10
REMARK    7  A    between atoms: C_8  and  C_12
REMARK    8  A    between atoms: C_11  and  C_16
REMARK    9  A    between atoms: C_17  and  O_23
REMARK   10  A    between atoms: C_25  and  C_27
REMARK   11  A    between atoms: C_25  and  C_29
REMARK   12  A    between atoms: C_28  and  C_32
REMARK   13  A    between atoms: C_30  and  C_32
REMARK   14  A    between atoms: C_30  and  C_34
REMARK   15  A    between atoms: C_33  and  C_38
REMARK   16  A    between atoms: C_39  and  O_45
REMARK                            x       y       z     vdW  Elec       q    Type
REMARK                         _______ _______ _______ _____ _____    ______ ____
ROOT
ATOM      1  C   UNL     1     -42.988 102.949  13.403  0.00  0.00    +0.000 C 
ATOM      2  C   UNL     1     -42.054 102.713  14.119  0.00  0.00    +0.000 C 
ENDROOT
BRANCH   2   3
ATOM      3  C   UNL     1     -40.865 102.404  15.038  0.00  0.00    +0.000 C 
BRANCH   3   4
ATOM      4  C   UNL     1     -39.858 102.139  15.809  0.00  0.00    +0.000 C 
ATOM      5  C   UNL     1     -40.004 102.257  17.296  0.00  0.00    +0.000 C 
BRANCH   4   7
ATOM      6  C   UNL     1     -37.534 101.542  14.767  0.00  0.00    +0.000 C 
ATOM      7  C   UNL     1     -38.600 101.818  15.245  0.00  0.00    +0.000 C 
BRANCH   6   8
ATOM      8  C   UNL     1     -36.173 101.185  14.157  0.00  0.00    +0.000 C 
BRANCH   8   9
ATOM      9  C   UNL     1     -35.018 100.887  13.648  0.00  0.00    +0.000 C 
ATOM     10  C   UNL     1     -34.726 101.215  12.215  0.00  0.00    +0.000 C 
BRANCH   9  12
ATOM     11  C   UNL     1     -33.101  99.991  15.192  0.00  0.00    +0.000 C 
ATOM     12  C   UNL     1     -33.988 100.393  14.485  0.00  0.00    +0.000 C 
BRANCH  11  16
ATOM     13  O   UNL     1     -31.321  96.821  18.479  0.00  0.00    +0.000 OA
ATOM     14  C   UNL     1     -30.683 100.303  15.996  0.00  0.00    +0.000 C 
ATOM     15  C   UNL     1     -29.807  99.613  16.927  0.00  0.00    +0.000 C 
ATOM     16  C   UNL     1     -32.021  99.521  16.037  0.00  0.00    +0.000 C 
ATOM     17  C   UNL     1     -29.864  98.514  17.778  0.00  0.00    +0.000 C 
ATOM     18  C   UNL     1     -30.101 100.234  14.564  0.00  0.00    +0.000 C 
ATOM     19  C   UNL     1     -30.922 101.755  16.465  0.00  0.00    +0.000 C 
ATOM     20  C   UNL     1     -32.210  98.421  16.825  0.00  0.00    +0.000 C 
ATOM     21  C   UNL     1     -31.164  97.807  17.770  0.00  0.00    +0.000 C 
ATOM     22  C   UNL     1     -33.568  97.708  16.781  0.00  0.00    +0.000 C 
BRANCH  17  23
ATOM     23  O   UNL     1     -28.808  98.113  18.553  0.00  0.00    +0.000 OA
ATOM     24  H   UNL     1     -29.093  97.965  19.477  0.00  0.00    +0.000 HD
ENDBRANCH  17  23
ENDBRANCH  11  16
ENDBRANCH   9  12
ENDBRANCH   8   9
ENDBRANCH   6   8
ENDBRANCH   4   7
ENDBRANCH   3   4
ENDBRANCH   2   3
BRANCH   1  25
ATOM     25  C   UNL     1     -44.186 103.245  12.494  0.00  0.00    +0.000 C 
BRANCH  25  26
ATOM     26  C   UNL     1     -45.199 103.499  11.727  0.00  0.00    +0.000 C 
ATOM     27  C   UNL     1     -46.579 103.563  12.310  0.00  0.00    +0.000 C 
BRANCH  26  29
ATOM     28  C   UNL     1     -44.856 103.739   9.145  0.00  0.00    +0.000 C 
ATOM     29  C   UNL     1     -45.015 103.629  10.330  0.00  0.00    +0.000 C 
BRANCH  28  30
ATOM     30  C   UNL     1     -44.649 103.880   7.631  0.00  0.00    +0.000 C 
BRANCH  30  31
ATOM     31  C   UNL     1     -44.466 104.000   6.355  0.00  0.00    +0.000 C 
ATOM     32  C   UNL     1     -45.511 104.661   5.507  0.00  0.00    +0.000 C 
BRANCH  31  34
ATOM     33  C   UNL     1     -42.149 103.373   5.303  0.00  0.00    +0.000 C 
ATOM     34  C   UNL     1     -43.215 103.650   5.788  0.00  0.00    +0.000 C 
BRANCH  33  38
ATOM     35  O   UNL     1     -37.309 104.073   4.988  0.00  0.00    +0.000 OA
ATOM     36  C   UNL     1     -40.827 101.968   3.611  0.00  0.00    +0.000 C 
ATOM     37  C   UNL     1     -39.432 101.871   3.216  0.00  0.00    +0.000 C 
ATOM     38  C   UNL     1     -40.863 103.059   4.713  0.00  0.00    +0.000 C 
ATOM     39  C   UNL     1     -38.218 102.463   3.553  0.00  0.00    +0.000 C 
ATOM     40  C   UNL     1     -41.306 100.626   4.212  0.00  0.00    +0.000 C 
ATOM     41  C   UNL     1     -41.690 102.419   2.412  0.00  0.00    +0.000 C 
ATOM     42  C   UNL     1     -39.745 103.715   5.141  0.00  0.00    +0.000 C 
ATOM     43  C   UNL     1     -38.318 103.491   4.612  0.00  0.00    +0.000 C 
ATOM     44  C   UNL     1     -39.887 104.767   6.249  0.00  0.00    +0.000 C 
BRANCH  39  45
ATOM     45  O   UNL     1     -37.032 102.123   2.961  0.00  0.00    +0.000 OA
ATOM     46  H   UNL     1     -37.168 101.420   2.292  0.00  0.00    +0.000 HD
ENDBRANCH  39  45
ENDBRANCH  33  38
ENDBRANCH  31  34
ENDBRANCH  30  31
ENDBRANCH  28  30
ENDBRANCH  26  29
ENDBRANCH  25  26
ENDBRANCH   1  25
TORSDOF 16
ENDMDL
MODEL 5
REMARK VINA RESULT:      -6.3      2.469     15.550
REMARK  Name = 5281224_Astaxanthin.pdbqt.pdb
REMARK  16 active torsions:
REMARK  status: ('A' for Active; 'I' for Inactive)
REMARK    1  A    between atoms: C_1  and  C_5
REMARK    2  A    between atoms: C_2  and  C_27
REMARK    3  A    between atoms: C_3  and  C_5
REMARK    4  A    between atoms: C_3  and  C_7
REMARK    5  A    between atoms: C_6  and  C_10
REMARK    6  A    between atoms: C_8  and  C_10
REMARK    7  A    between atoms: C_8  and  C_12
REMARK    8  A    between atoms: C_11  and  C_16
REMARK    9  A    between atoms: C_17  and  O_23
REMARK   10  A    between atoms: C_25  and  C_27
REMARK   11  A    between atoms: C_25  and  C_29
REMARK   12  A    between atoms: C_28  and  C_32
REMARK   13  A    between atoms: C_30  and  C_32
REMARK   14  A    between atoms: C_30  and  C_34
REMARK   15  A    between atoms: C_33  and  C_38
REMARK   16  A    between atoms: C_39  and  O_45
REMARK                            x       y       z     vdW  Elec       q    Type
REMARK                         _______ _______ _______ _____ _____    ______ ____
ROOT
ATOM      1  C   UNL     1     -29.876 108.124   1.537  0.00  0.00    +0.000 C 
ATOM      2  C   UNL     1     -28.811 107.665   1.232  0.00  0.00    +0.000 C 
ENDROOT
BRANCH   2   3
ATOM      3  C   UNL     1     -27.453 107.071   0.836  0.00  0.00    +0.000 C 
BRANCH   3   4
ATOM      4  C   UNL     1     -26.303 106.575   0.502  0.00  0.00    +0.000 C 
ATOM      5  C   UNL     1     -25.610 107.063  -0.734  0.00  0.00    +0.000 C 
BRANCH   4   7
ATOM      6  C   UNL     1     -25.263 104.622   1.897  0.00  0.00    +0.000 C 
ATOM      7  C   UNL     1     -25.741 105.520   1.259  0.00  0.00    +0.000 C 
BRANCH   6   8
ATOM      8  C   UNL     1     -24.652 103.475   2.710  0.00  0.00    +0.000 C 
BRANCH   8   9
ATOM      9  C   UNL     1     -24.142 102.500   3.398  0.00  0.00    +0.000 C 
ATOM     10  C   UNL     1     -23.928 101.164   2.754  0.00  0.00    +0.000 C 
BRANCH   9  12
ATOM     11  C   UNL     1     -23.252 102.941   5.821  0.00  0.00    +0.000 C 
ATOM     12  C   UNL     1     -23.651 102.743   4.704  0.00  0.00    +0.000 C 
BRANCH  11  16
ATOM     13  O   UNL     1     -22.426 105.960   9.593  0.00  0.00    +0.000 OA
ATOM     14  C   UNL     1     -22.253 101.956   7.971  0.00  0.00    +0.000 C 
ATOM     15  C   UNL     1     -21.868 102.485   9.268  0.00  0.00    +0.000 C 
ATOM     16  C   UNL     1     -22.787 103.174   7.175  0.00  0.00    +0.000 C 
ATOM     17  C   UNL     1     -21.859 103.713   9.922  0.00  0.00    +0.000 C 
ATOM     18  C   UNL     1     -23.391 100.920   8.133  0.00  0.00    +0.000 C 
ATOM     19  C   UNL     1     -21.021 101.368   7.247  0.00  0.00    +0.000 C 
ATOM     20  C   UNL     1     -22.838 104.434   7.699  0.00  0.00    +0.000 C 
ATOM     21  C   UNL     1     -22.384 104.835   9.112  0.00  0.00    +0.000 C 
ATOM     22  C   UNL     1     -23.400 105.570   6.833  0.00  0.00    +0.000 C 
BRANCH  17  23
ATOM     23  O   UNL     1     -21.410 103.873  11.205  0.00  0.00    +0.000 OA
ATOM     24  H   UNL     1     -20.755 103.181  11.432  0.00  0.00    +0.000 HD
ENDBRANCH  17  23
ENDBRANCH  11  16
ENDBRANCH   9  12
ENDBRANCH   8   9
ENDBRANCH   6   8
ENDBRANCH   4   7
ENDBRANCH   3   4
ENDBRANCH   2   3
BRANCH   1  25
ATOM     25  C   UNL     1     -31.243 108.703   1.923  0.00  0.00    +0.000 C 
BRANCH  25  26
ATOM     26  C   UNL     1     -32.400 109.191   2.244  0.00  0.00    +0.000 C 
ATOM     27  C   UNL     1     -32.788 110.561   1.777  0.00  0.00    +0.000 C 
BRANCH  26  29
ATOM     28  C   UNL     1     -33.984 107.854   3.839  0.00  0.00    +0.000 C 
ATOM     29  C   UNL     1     -33.258 108.468   3.105  0.00  0.00    +0.000 C 
BRANCH  28  30
ATOM     30  C   UNL     1     -34.910 107.071   4.778  0.00  0.00    +0.000 C 
BRANCH  30  31
ATOM     31  C   UNL     1     -35.692 106.416   5.578  0.00  0.00    +0.000 C 
ATOM     32  C   UNL     1     -35.711 106.743   7.040  0.00  0.00    +0.000 C 
BRANCH  31  34
ATOM     33  C   UNL     1     -37.437 104.739   4.574  0.00  0.00    +0.000 C 
ATOM     34  C   UNL     1     -36.638 105.504   5.045  0.00  0.00    +0.000 C 
BRANCH  33  38
ATOM     35  O   UNL     1     -41.713 102.350   4.755  0.00  0.00    +0.000 OA
ATOM     36  C   UNL     1     -38.058 103.210   2.609  0.00  0.00    +0.000 C 
ATOM     37  C   UNL     1     -39.187 102.355   2.282  0.00  0.00    +0.000 C 
ATOM     38  C   UNL     1     -38.401 103.826   3.989  0.00  0.00    +0.000 C 
ATOM     39  C   UNL     1     -40.401 101.981   2.853  0.00  0.00    +0.000 C 
ATOM     40  C   UNL     1     -37.930 104.345   1.565  0.00  0.00    +0.000 C 
ATOM     41  C   UNL     1     -36.769 102.368   2.726  0.00  0.00    +0.000 C 
ATOM     42  C   UNL     1     -39.559 103.549   4.657  0.00  0.00    +0.000 C 
ATOM     43  C   UNL     1     -40.670 102.606   4.166  0.00  0.00    +0.000 C 
ATOM     44  C   UNL     1     -39.809 104.225   6.012  0.00  0.00    +0.000 C 
BRANCH  39  45
ATOM     45  O   UNL     1     -41.273 101.115   2.251  0.00  0.00    +0.000 OA
ATOM     46  H   UNL     1     -41.775 101.566   1.542  0.00  0.00    +0.000 HD
ENDBRANCH  39  45
ENDBRANCH  33  38
ENDBRANCH  31  34
ENDBRANCH  30  31
ENDBRANCH  28  30
ENDBRANCH  26  29
ENDBRANCH  25  26
ENDBRANCH   1  25
TORSDOF 16
ENDMDL
MODEL 6
REMARK VINA RESULT:      -6.3     10.080     14.373
REMARK  Name = 5281224_Astaxanthin.pdbqt.pdb
REMARK  16 active torsions:
REMARK  status: ('A' for Active; 'I' for Inactive)
REMARK    1  A    between atoms: C_1  and  C_5
REMARK    2  A    between atoms: C_2  and  C_27
REMARK    3  A    between atoms: C_3  and  C_5
REMARK    4  A    between atoms: C_3  and  C_7
REMARK    5  A    between atoms: C_6  and  C_10
REMARK    6  A    between atoms: C_8  and  C_10
REMARK    7  A    between atoms: C_8  and  C_12
REMARK    8  A    between atoms: C_11  and  C_16
REMARK    9  A    between atoms: C_17  and  O_23
REMARK   10  A    between atoms: C_25  and  C_27
REMARK   11  A    between atoms: C_25  and  C_29
REMARK   12  A    between atoms: C_28  and  C_32
REMARK   13  A    between atoms: C_30  and  C_32
REMARK   14  A    between atoms: C_30  and  C_34
REMARK   15  A    between atoms: C_33  and  C_38
REMARK   16  A    between atoms: C_39  and  O_45
REMARK                            x       y       z     vdW  Elec       q    Type
REMARK                         _______ _______ _______ _____ _____    ______ ____
ROOT
ATOM      1  C   UNL     1     -45.744 102.274  11.111  0.00  0.00    +0.000 C 
ATOM      2  C   UNL     1     -46.360 102.188  10.085  0.00  0.00    +0.000 C 
ENDROOT
BRANCH   2   3
ATOM      3  C   UNL     1     -47.148 102.087   8.772  0.00  0.00    +0.000 C 
BRANCH   3   4
ATOM      4  C   UNL     1     -47.818 102.007   7.666  0.00  0.00    +0.000 C 
ATOM      5  C   UNL     1     -49.311 102.146   7.684  0.00  0.00    +0.000 C 
BRANCH   4   7
ATOM      6  C   UNL     1     -46.585 101.457   5.426  0.00  0.00    +0.000 C 
ATOM      7  C   UNL     1     -47.150 101.707   6.455  0.00  0.00    +0.000 C 
BRANCH   6   8
ATOM      8  C   UNL     1     -45.864 101.141   4.111  0.00  0.00    +0.000 C 
BRANCH   8   9
ATOM      9  C   UNL     1     -45.259 100.877   2.993  0.00  0.00    +0.000 C 
ATOM     10  C   UNL     1     -46.002 100.201   1.882  0.00  0.00    +0.000 C 
BRANCH   9  12
ATOM     11  C   UNL     1     -42.824 101.758   2.594  0.00  0.00    +0.000 C 
ATOM     12  C   UNL     1     -43.947 101.364   2.773  0.00  0.00    +0.000 C 
BRANCH  11  16
ATOM     13  O   UNL     1     -38.162 102.115   4.064  0.00  0.00    +0.000 OA
ATOM     14  C   UNL     1     -41.167 103.013   1.087  0.00  0.00    +0.000 C 
ATOM     15  C   UNL     1     -39.752 103.334   1.152  0.00  0.00    +0.000 C 
ATOM     16  C   UNL     1     -41.465 102.219   2.385  0.00  0.00    +0.000 C 
ATOM     17  C   UNL     1     -38.683 103.126   2.018  0.00  0.00    +0.000 C 
ATOM     18  C   UNL     1     -41.453 102.109  -0.135  0.00  0.00    +0.000 C 
ATOM     19  C   UNL     1     -42.009 104.308   1.071  0.00  0.00    +0.000 C 
ATOM     20  C   UNL     1     -40.507 101.940   3.317  0.00  0.00    +0.000 C 
ATOM     21  C   UNL     1     -39.030 102.360   3.236  0.00  0.00    +0.000 C 
ATOM     22  C   UNL     1     -40.902 101.133   4.562  0.00  0.00    +0.000 C 
BRANCH  17  23
ATOM     23  O   UNL     1     -37.417 103.583   1.766  0.00  0.00    +0.000 OA
ATOM     24  H   UNL     1     -37.052 104.040   2.551  0.00  0.00    +0.000 HD
ENDBRANCH  17  23
ENDBRANCH  11  16
ENDBRANCH   9  12
ENDBRANCH   8   9
ENDBRANCH   6   8
ENDBRANCH   4   7
ENDBRANCH   3   4
ENDBRANCH   2   3
BRANCH   1  25
ATOM     25  C   UNL     1     -44.957 102.393  12.421  0.00  0.00    +0.000 C 
BRANCH  25  26
ATOM     26  C   UNL     1     -44.288 102.491  13.527  0.00  0.00    +0.000 C 
ATOM     27  C   UNL     1     -44.971 102.239  14.838  0.00  0.00    +0.000 C 
BRANCH  26  29
ATOM     28  C   UNL     1     -41.796 103.284  13.485  0.00  0.00    +0.000 C 
ATOM     29  C   UNL     1     -42.940 102.920  13.502  0.00  0.00    +0.000 C 
BRANCH  28  30
ATOM     30  C   UNL     1     -40.335 103.751  13.465  0.00  0.00    +0.000 C 
BRANCH  30  31
ATOM     31  C   UNL     1     -39.098 104.138  13.443  0.00  0.00    +0.000 C 
ATOM     32  C   UNL     1     -38.772 105.590  13.262  0.00  0.00    +0.000 C 
BRANCH  31  34
ATOM     33  C   UNL     1     -37.205 102.422  14.022  0.00  0.00    +0.000 C 
ATOM     34  C   UNL     1     -38.067 103.215  13.749  0.00  0.00    +0.000 C 
BRANCH  33  38
ATOM     35  O   UNL     1     -32.925 101.314  16.137  0.00  0.00    +0.000 OA
ATOM     36  C   UNL     1     -36.388  99.992  13.909  0.00  0.00    +0.000 C 
ATOM     37  C   UNL     1     -35.219  99.272  14.387  0.00  0.00    +0.000 C 
ATOM     38  C   UNL     1     -36.177 101.458  14.365  0.00  0.00    +0.000 C 
ATOM     39  C   UNL     1     -34.053  99.547  15.095  0.00  0.00    +0.000 C 
ATOM     40  C   UNL     1     -37.668  99.434  14.576  0.00  0.00    +0.000 C 
ATOM     41  C   UNL     1     -36.454  99.936  12.367  0.00  0.00    +0.000 C 
ATOM     42  C   UNL     1     -35.080 101.864  15.069  0.00  0.00    +0.000 C 
ATOM     43  C   UNL     1     -33.913 100.962  15.504  0.00  0.00    +0.000 C 
ATOM     44  C   UNL     1     -34.975 103.337  15.486  0.00  0.00    +0.000 C 
BRANCH  39  45
ATOM     45  O   UNL     1     -33.117  98.594  15.392  0.00  0.00    +0.000 OA
ATOM     46  H   UNL     1     -33.070  97.921  14.682  0.00  0.00    +0.000 HD
ENDBRANCH  39  45
ENDBRANCH  33  38
ENDBRANCH  31  34
ENDBRANCH  30  31
ENDBRANCH  28  30
ENDBRANCH  26  29
ENDBRANCH  25  26
ENDBRANCH   1  25
TORSDOF 16
ENDMDL
MODEL 7
REMARK VINA RESULT:      -6.2      7.940     14.427
REMARK  Name = 5281224_Astaxanthin.pdbqt.pdb
REMARK  16 active torsions:
REMARK  status: ('A' for Active; 'I' for Inactive)
REMARK    1  A    between atoms: C_1  and  C_5
REMARK    2  A    between atoms: C_2  and  C_27
REMARK    3  A    between atoms: C_3  and  C_5
REMARK    4  A    between atoms: C_3  and  C_7
REMARK    5  A    between atoms: C_6  and  C_10
REMARK    6  A    between atoms: C_8  and  C_10
REMARK    7  A    between atoms: C_8  and  C_12
REMARK    8  A    between atoms: C_11  and  C_16
REMARK    9  A    between atoms: C_17  and  O_23
REMARK   10  A    between atoms: C_25  and  C_27
REMARK   11  A    between atoms: C_25  and  C_29
REMARK   12  A    between atoms: C_28  and  C_32
REMARK   13  A    between atoms: C_30  and  C_32
REMARK   14  A    between atoms: C_30  and  C_34
REMARK   15  A    between atoms: C_33  and  C_38
REMARK   16  A    between atoms: C_39  and  O_45
REMARK                            x       y       z     vdW  Elec       q    Type
REMARK                         _______ _______ _______ _____ _____    ______ ____
ROOT
ATOM      1  C   UNL     1     -45.221 101.256  -4.105  0.00  0.00    +0.000 C 
ATOM      2  C   UNL     1     -45.985 100.393  -4.439  0.00  0.00    +0.000 C 
ENDROOT
BRANCH   2   3
ATOM      3  C   UNL     1     -46.962  99.286  -4.857  0.00  0.00    +0.000 C 
BRANCH   3   4
ATOM      4  C   UNL     1     -47.791  98.353  -5.206  0.00  0.00    +0.000 C 
ATOM      5  C   UNL     1     -47.658  97.698  -6.548  0.00  0.00    +0.000 C 
BRANCH   4   7
ATOM      6  C   UNL     1     -49.782  97.721  -3.632  0.00  0.00    +0.000 C 
ATOM      7  C   UNL     1     -48.868  98.009  -4.355  0.00  0.00    +0.000 C 
BRANCH   6   8
ATOM      8  C   UNL     1     -50.950  97.357  -2.708  0.00  0.00    +0.000 C 
BRANCH   8   9
ATOM      9  C   UNL     1     -51.936  97.054  -1.921  0.00  0.00    +0.000 C 
ATOM     10  C   UNL     1     -53.346  97.156  -2.416  0.00  0.00    +0.000 C 
BRANCH   9  12
ATOM     11  C   UNL     1     -51.424  96.004   0.424  0.00  0.00    +0.000 C 
ATOM     12  C   UNL     1     -51.671  96.485  -0.651  0.00  0.00    +0.000 C 
BRANCH  11  16
ATOM     13  O   UNL     1     -51.506  92.225   3.544  0.00  0.00    +0.000 OA
ATOM     14  C   UNL     1     -50.371  96.320   2.744  0.00  0.00    +0.000 C 
ATOM     15  C   UNL     1     -50.193  95.485   3.919  0.00  0.00    +0.000 C 
ATOM     16  C   UNL     1     -51.110  95.424   1.715  0.00  0.00    +0.000 C 
ATOM     17  C   UNL     1     -50.496  94.188   4.322  0.00  0.00    +0.000 C 
ATOM     18  C   UNL     1     -48.995  96.725   2.164  0.00  0.00    +0.000 C 
ATOM     19  C   UNL     1     -51.250  97.543   3.085  0.00  0.00    +0.000 C 
ATOM     20  C   UNL     1     -51.461  94.132   1.980  0.00  0.00    +0.000 C 
ATOM     21  C   UNL     1     -51.197  93.383   3.296  0.00  0.00    +0.000 C 
ATOM     22  C   UNL     1     -52.177  93.325   0.887  0.00  0.00    +0.000 C 
BRANCH  17  23
ATOM     23  O   UNL     1     -50.170  93.693   5.556  0.00  0.00    +0.000 OA
ATOM     24  H   UNL     1     -50.565  92.807   5.689  0.00  0.00    +0.000 HD
ENDBRANCH  17  23
ENDBRANCH  11  16
ENDBRANCH   9  12
ENDBRANCH   8   9
ENDBRANCH   6   8
ENDBRANCH   4   7
ENDBRANCH   3   4
ENDBRANCH   2   3
BRANCH   1  25
ATOM     25  C   UNL     1     -44.244 102.354  -3.669  0.00  0.00    +0.000 C 
BRANCH  25  26
ATOM     26  C   UNL     1     -43.416 103.279  -3.298  0.00  0.00    +0.000 C 
ATOM     27  C   UNL     1     -43.195 104.478  -4.170  0.00  0.00    +0.000 C 
BRANCH  26  29
ATOM     28  C   UNL     1     -42.016 102.980  -1.108  0.00  0.00    +0.000 C 
ATOM     29  C   UNL     1     -42.658 103.116  -2.114  0.00  0.00    +0.000 C 
BRANCH  28  30
ATOM     30  C   UNL     1     -41.198 102.808   0.178  0.00  0.00    +0.000 C 
BRANCH  30  31
ATOM     31  C   UNL     1     -40.502 102.658   1.260  0.00  0.00    +0.000 C 
ATOM     32  C   UNL     1     -40.949 101.686   2.309  0.00  0.00    +0.000 C 
BRANCH  31  34
ATOM     33  C   UNL     1     -38.180 103.853   1.477  0.00  0.00    +0.000 C 
ATOM     34  C   UNL     1     -39.240 103.294   1.378  0.00  0.00    +0.000 C 
BRANCH  33  38
ATOM     35  O   UNL     1     -34.396 106.208  -0.562  0.00  0.00    +0.000 OA
ATOM     36  C   UNL     1     -36.310 104.708   3.014  0.00  0.00    +0.000 C 
ATOM     37  C   UNL     1     -35.061 105.425   2.820  0.00  0.00    +0.000 C 
ATOM     38  C   UNL     1     -36.910 104.544   1.594  0.00  0.00    +0.000 C 
ATOM     39  C   UNL     1     -34.328 105.958   1.764  0.00  0.00    +0.000 C 
ATOM     40  C   UNL     1     -37.279 105.549   3.878  0.00  0.00    +0.000 C 
ATOM     41  C   UNL     1     -36.036 103.314   3.621  0.00  0.00    +0.000 C 
ATOM     42  C   UNL     1     -36.297 105.023   0.472  0.00  0.00    +0.000 C 
ATOM     43  C   UNL     1     -34.955 105.773   0.437  0.00  0.00    +0.000 C 
ATOM     44  C   UNL     1     -36.983 104.822  -0.886  0.00  0.00    +0.000 C 
BRANCH  39  45
ATOM     45  O   UNL     1     -33.133 106.603   1.936  0.00  0.00    +0.000 OA
ATOM     46  H   UNL     1     -32.437 106.197   1.378  0.00  0.00    +0.000 HD
ENDBRANCH  39  45
ENDBRANCH  33  38
ENDBRANCH  31  34
ENDBRANCH  30  31
ENDBRANCH  28  30
ENDBRANCH  26  29
ENDBRANCH  25  26
ENDBRANCH   1  25
TORSDOF 16
ENDMDL
MODEL 8
REMARK VINA RESULT:      -6.2     11.223     17.545
REMARK  Name = 5281224_Astaxanthin.pdbqt.pdb
REMARK  16 active torsions:
REMARK  status: ('A' for Active; 'I' for Inactive)
REMARK    1  A    between atoms: C_1  and  C_5
REMARK    2  A    between atoms: C_2  and  C_27
REMARK    3  A    between atoms: C_3  and  C_5
REMARK    4  A    between atoms: C_3  and  C_7
REMARK    5  A    between atoms: C_6  and  C_10
REMARK    6  A    between atoms: C_8  and  C_10
REMARK    7  A    between atoms: C_8  and  C_12
REMARK    8  A    between atoms: C_11  and  C_16
REMARK    9  A    between atoms: C_17  and  O_23
REMARK   10  A    between atoms: C_25  and  C_27
REMARK   11  A    between atoms: C_25  and  C_29
REMARK   12  A    between atoms: C_28  and  C_32
REMARK   13  A    between atoms: C_30  and  C_32
REMARK   14  A    between atoms: C_30  and  C_34
REMARK   15  A    between atoms: C_33  and  C_38
REMARK   16  A    between atoms: C_39  and  O_45
REMARK                            x       y       z     vdW  Elec       q    Type
REMARK                         _______ _______ _______ _____ _____    ______ ____
ROOT
ATOM      1  C   UNL     1     -21.988 103.124  -2.729  0.00  0.00    +0.000 C 
ATOM      2  C   UNL     1     -21.250 102.777  -3.609  0.00  0.00    +0.000 C 
ENDROOT
BRANCH   2   3
ATOM      3  C   UNL     1     -20.312 102.335  -4.740  0.00  0.00    +0.000 C 
BRANCH   3   4
ATOM      4  C   UNL     1     -19.521 101.967  -5.698  0.00  0.00    +0.000 C 
ATOM      5  C   UNL     1     -18.038 102.120  -5.543  0.00  0.00    +0.000 C 
BRANCH   4   7
ATOM      6  C   UNL     1     -20.520 101.098  -7.954  0.00  0.00    +0.000 C 
ATOM      7  C   UNL     1     -20.060 101.498  -6.920  0.00  0.00    +0.000 C 
BRANCH   6   8
ATOM      8  C   UNL     1     -21.111 100.586  -9.273  0.00  0.00    +0.000 C 
BRANCH   8   9
ATOM      9  C   UNL     1     -21.611 100.161 -10.392  0.00  0.00    +0.000 C 
ATOM     10  C   UNL     1     -22.760 100.890 -11.022  0.00  0.00    +0.000 C 
BRANCH   9  12
ATOM     11  C   UNL     1     -20.450  98.211 -11.699  0.00  0.00    +0.000 C 
ATOM     12  C   UNL     1     -20.975  99.105 -11.090  0.00  0.00    +0.000 C 
BRANCH  11  16
ATOM     13  O   UNL     1     -20.152  95.415 -15.714  0.00  0.00    +0.000 OA
ATOM     14  C   UNL     1     -18.642  96.390 -11.781  0.00  0.00    +0.000 C 
ATOM     15  C   UNL     1     -18.232  95.385 -12.746  0.00  0.00    +0.000 C 
ATOM     16  C   UNL     1     -19.829  97.134 -12.446  0.00  0.00    +0.000 C 
ATOM     17  C   UNL     1     -18.608  94.956 -14.015  0.00  0.00    +0.000 C 
ATOM     18  C   UNL     1     -17.491  97.394 -11.534  0.00  0.00    +0.000 C 
ATOM     19  C   UNL     1     -19.124  95.715 -10.478  0.00  0.00    +0.000 C 
ATOM     20  C   UNL     1     -20.296  96.818 -13.690  0.00  0.00    +0.000 C 
ATOM     21  C   UNL     1     -19.743  95.707 -14.598  0.00  0.00    +0.000 C 
ATOM     22  C   UNL     1     -21.467  97.626 -14.265  0.00  0.00    +0.000 C 
BRANCH  17  23
ATOM     23  O   UNL     1     -17.981  93.933 -14.675  0.00  0.00    +0.000 OA
ATOM     24  H   UNL     1     -17.506  94.268 -15.463  0.00  0.00    +0.000 HD
ENDBRANCH  17  23
ENDBRANCH  11  16
ENDBRANCH   9  12
ENDBRANCH   8   9
ENDBRANCH   6   8
ENDBRANCH   4   7
ENDBRANCH   3   4
ENDBRANCH   2   3
BRANCH   1  25
ATOM     25  C   UNL     1     -22.939 103.568  -1.612  0.00  0.00    +0.000 C 
BRANCH  25  26
ATOM     26  C   UNL     1     -23.747 103.941  -0.669  0.00  0.00    +0.000 C 
ATOM     27  C   UNL     1     -24.445 105.265  -0.764  0.00  0.00    +0.000 C 
BRANCH  26  29
ATOM     28  C   UNL     1     -24.037 102.462   1.468  0.00  0.00    +0.000 C 
ATOM     29  C   UNL     1     -23.902 103.141   0.487  0.00  0.00    +0.000 C 
BRANCH  28  30
ATOM     30  C   UNL     1     -24.212 101.595   2.722  0.00  0.00    +0.000 C 
BRANCH  30  31
ATOM     31  C   UNL     1     -24.369 100.865   3.780  0.00  0.00    +0.000 C 
ATOM     32  C   UNL     1     -25.747 100.475   4.223  0.00  0.00    +0.000 C 
BRANCH  31  34
ATOM     33  C   UNL     1     -22.271  99.849   4.978  0.00  0.00    +0.000 C 
ATOM     34  C   UNL     1     -23.236 100.305   4.423  0.00  0.00    +0.000 C 
BRANCH  33  38
ATOM     35  O   UNL     1     -19.739  98.977   9.082  0.00  0.00    +0.000 OA
ATOM     36  C   UNL     1     -20.010  98.651   4.779  0.00  0.00    +0.000 C 
ATOM     37  C   UNL     1     -18.984  98.221   5.713  0.00  0.00    +0.000 C 
ATOM     38  C   UNL     1     -21.103  99.317   5.653  0.00  0.00    +0.000 C 
ATOM     39  C   UNL     1     -18.755  98.254   7.085  0.00  0.00    +0.000 C 
ATOM     40  C   UNL     1     -20.618  97.427   4.054  0.00  0.00    +0.000 C 
ATOM     41  C   UNL     1     -19.433  99.692   3.795  0.00  0.00    +0.000 C 
ATOM     42  C   UNL     1     -21.007  99.413   7.012  0.00  0.00    +0.000 C 
ATOM     43  C   UNL     1     -19.835  98.898   7.864  0.00  0.00    +0.000 C 
ATOM     44  C   UNL     1     -22.153 100.078   7.787  0.00  0.00    +0.000 C 
BRANCH  39  45
ATOM     45  O   UNL     1     -17.632  97.733   7.668  0.00  0.00    +0.000 OA
ATOM     46  H   UNL     1     -17.708  96.760   7.758  0.00  0.00    +0.000 HD
ENDBRANCH  39  45
ENDBRANCH  33  38
ENDBRANCH  31  34
ENDBRANCH  30  31
ENDBRANCH  28  30
ENDBRANCH  26  29
ENDBRANCH  25  26
ENDBRANCH   1  25
TORSDOF 16
ENDMDL
MODEL 9
REMARK VINA RESULT:      -5.9     18.983     22.101
REMARK  Name = 5281224_Astaxanthin.pdbqt.pdb
REMARK  16 active torsions:
REMARK  status: ('A' for Active; 'I' for Inactive)
REMARK    1  A    between atoms: C_1  and  C_5
REMARK    2  A    between atoms: C_2  and  C_27
REMARK    3  A    between atoms: C_3  and  C_5
REMARK    4  A    between atoms: C_3  and  C_7
REMARK    5  A    between atoms: C_6  and  C_10
REMARK    6  A    between atoms: C_8  and  C_10
REMARK    7  A    between atoms: C_8  and  C_12
REMARK    8  A    between atoms: C_11  and  C_16
REMARK    9  A    between atoms: C_17  and  O_23
REMARK   10  A    between atoms: C_25  and  C_27
REMARK   11  A    between atoms: C_25  and  C_29
REMARK   12  A    between atoms: C_28  and  C_32
REMARK   13  A    between atoms: C_30  and  C_32
REMARK   14  A    between atoms: C_30  and  C_34
REMARK   15  A    between atoms: C_33  and  C_38
REMARK   16  A    between atoms: C_39  and  O_45
REMARK                            x       y       z     vdW  Elec       q    Type
REMARK                         _______ _______ _______ _____ _____    ______ ____
ROOT
ATOM      1  C   UNL     1     -17.834  89.618  13.232  0.00  0.00    +0.000 C 
ATOM      2  C   UNL     1     -18.521  89.560  14.214  0.00  0.00    +0.000 C 
ENDROOT
BRANCH   2   3
ATOM      3  C   UNL     1     -19.393  89.485  15.474  0.00  0.00    +0.000 C 
BRANCH   3   4
ATOM      4  C   UNL     1     -20.134  89.422  16.535  0.00  0.00    +0.000 C 
ATOM      5  C   UNL     1     -19.754  90.196  17.761  0.00  0.00    +0.000 C 
BRANCH   4   7
ATOM      6  C   UNL     1     -22.207  87.827  16.590  0.00  0.00    +0.000 C 
ATOM      7  C   UNL     1     -21.257  88.560  16.563  0.00  0.00    +0.000 C 
BRANCH   6   8
ATOM      8  C   UNL     1     -23.420  86.890  16.627  0.00  0.00    +0.000 C 
BRANCH   8   9
ATOM      9  C   UNL     1     -24.451  86.103  16.654  0.00  0.00    +0.000 C 
ATOM     10  C   UNL     1     -24.877  85.474  17.945  0.00  0.00    +0.000 C 
BRANCH   9  12
ATOM     11  C   UNL     1     -25.956  85.857  14.524  0.00  0.00    +0.000 C 
ATOM     12  C   UNL     1     -25.258  85.961  15.498  0.00  0.00    +0.000 C 
BRANCH  11  16
ATOM     13  O   UNL     1     -26.679  84.464   9.881  0.00  0.00    +0.000 OA
ATOM     14  C   UNL     1     -28.258  86.285  13.471  0.00  0.00    +0.000 C 
ATOM     15  C   UNL     1     -28.862  86.037  12.173  0.00  0.00    +0.000 C 
ATOM     16  C   UNL     1     -26.809  85.743  13.357  0.00  0.00    +0.000 C 
ATOM     17  C   UNL     1     -28.496  85.481  10.952  0.00  0.00    +0.000 C 
ATOM     18  C   UNL     1     -29.008  85.495  14.569  0.00  0.00    +0.000 C 
ATOM     19  C   UNL     1     -28.218  87.802  13.761  0.00  0.00    +0.000 C 
ATOM     20  C   UNL     1     -26.323  85.169  12.218  0.00  0.00    +0.000 C 
ATOM     21  C   UNL     1     -27.104  84.978  10.907  0.00  0.00    +0.000 C 
ATOM     22  C   UNL     1     -24.879  84.650  12.213  0.00  0.00    +0.000 C 
BRANCH  17  23
ATOM     23  O   UNL     1     -29.348  85.397   9.884  0.00  0.00    +0.000 OA
ATOM     24  H   UNL     1     -29.090  86.032   9.184  0.00  0.00    +0.000 HD
ENDBRANCH  17  23
ENDBRANCH  11  16
ENDBRANCH   9  12
ENDBRANCH   8   9
ENDBRANCH   6   8
ENDBRANCH   4   7
ENDBRANCH   3   4
ENDBRANCH   2   3
BRANCH   1  25
ATOM     25  C   UNL     1     -16.947  89.691  11.984  0.00  0.00    +0.000 C 
BRANCH  25  26
ATOM     26  C   UNL     1     -16.202  89.753  10.925  0.00  0.00    +0.000 C 
ATOM     27  C   UNL     1     -14.717  89.585  11.047  0.00  0.00    +0.000 C 
BRANCH  26  29
ATOM     28  C   UNL     1     -17.265  90.329   8.606  0.00  0.00    +0.000 C 
ATOM     29  C   UNL     1     -16.778  90.066   9.672  0.00  0.00    +0.000 C 
BRANCH  28  30
ATOM     30  C   UNL     1     -17.886  90.663   7.243  0.00  0.00    +0.000 C 
BRANCH  30  31
ATOM     31  C   UNL     1     -18.418  90.945   6.096  0.00  0.00    +0.000 C 
ATOM     32  C   UNL     1     -18.018  92.196   5.374  0.00  0.00    +0.000 C 
BRANCH  31  34
ATOM     33  C   UNL     1     -19.977  89.208   4.906  0.00  0.00    +0.000 C 
ATOM     34  C   UNL     1     -19.255  89.997   5.457  0.00  0.00    +0.000 C 
BRANCH  33  38
ATOM     35  O   UNL     1     -23.885  86.251   4.947  0.00  0.00    +0.000 OA
ATOM     36  C   UNL     1     -20.554  87.928   2.758  0.00  0.00    +0.000 C 
ATOM     37  C   UNL     1     -21.587  86.985   2.364  0.00  0.00    +0.000 C 
ATOM     38  C   UNL     1     -20.861  88.272   4.238  0.00  0.00    +0.000 C 
ATOM     39  C   UNL     1     -22.694  86.364   2.936  0.00  0.00    +0.000 C 
ATOM     40  C   UNL     1     -20.656  89.216   1.908  0.00  0.00    +0.000 C 
ATOM     41  C   UNL     1     -19.163  87.265   2.661  0.00  0.00    +0.000 C 
ATOM     42  C   UNL     1     -21.917  87.737   4.919  0.00  0.00    +0.000 C 
ATOM     43  C   UNL     1     -22.935  86.737   4.347  0.00  0.00    +0.000 C 
ATOM     44  C   UNL     1     -22.141  88.156   6.378  0.00  0.00    +0.000 C 
BRANCH  39  45
ATOM     45  O   UNL     1     -23.494  85.488   2.255  0.00  0.00    +0.000 OA
ATOM     46  H   UNL     1     -24.366  85.892   2.064  0.00  0.00    +0.000 HD
ENDBRANCH  39  45
ENDBRANCH  33  38
ENDBRANCH  31  34
ENDBRANCH  30  31
ENDBRANCH  28  30
ENDBRANCH  26  29
ENDBRANCH  25  26
ENDBRANCH   1  25
TORSDOF 16
ENDMDL
