MODEL 1
REMARK VINA RESULT:      -6.9      0.000      0.000
REMARK  Name = 5289155_Peridinin.pdbqt.pdb
REMARK  13 active torsions:
REMARK  status: ('A' for Active; 'I' for Inactive)
REMARK    1  A    between atoms: C_1  and  C_3
REMARK    2  A    between atoms: C_3  and  C_25
REMARK    3  A    between atoms: C_6  and  C_12
REMARK    4  A    between atoms: C_11  and  C_14
REMARK    5  A    between atoms: C_19  and  O_23
REMARK    6  A    between atoms: C_26  and  C_28
REMARK    7  A    between atoms: C_27  and  C_31
REMARK    8  A    between atoms: C_29  and  C_31
REMARK    9  A    between atoms: C_29  and  C_42
REMARK   10  A    between atoms: C_33  and  O_43
REMARK   11  A    between atoms: C_35  and  O_45
REMARK   12  A    between atoms: C_37  and  C_41
REMARK   13  A    between atoms: O_45  and  C_47
REMARK                            x       y       z     vdW  Elec       q    Type
REMARK                         _______ _______ _______ _____ _____    ______ ____
ROOT
ATOM      1  C   UNL     1     -41.088 102.352  14.552  0.00  0.00    +0.000 C 
ENDROOT
BRANCH   1   2
ATOM      2  C   UNL     1     -40.172 102.051  15.417  0.00  0.00    +0.000 C 
ATOM      3  C   UNL     1     -40.335 102.442  16.854  0.00  0.00    +0.000 C 
ATOM      4  O   UNL     1     -37.532 100.745  13.340  0.00  0.00    +0.000 OA
ATOM      5  O   UNL     1     -35.467 100.142  12.476  0.00  0.00    +0.000 OA
ATOM      6  C   UNL     1     -35.950  99.921  14.833  0.00  0.00    +0.000 C 
ATOM      7  C   UNL     1     -37.004 100.180  15.516  0.00  0.00    +0.000 C 
ATOM      8  C   UNL     1     -36.231 100.256  13.417  0.00  0.00    +0.000 C 
ATOM      9  C   UNL     1     -37.989 100.648  14.651  0.00  0.00    +0.000 C 
ATOM     10  C   UNL     1     -39.032 101.319  15.015  0.00  0.00    +0.000 C 
BRANCH   6  12
ATOM     11  C   UNL     1     -33.730  99.007  15.855  0.00  0.00    +0.000 C 
ATOM     12  C   UNL     1     -34.752  99.424  15.381  0.00  0.00    +0.000 C 
BRANCH  11  14
ATOM     13  O   UNL     1     -31.817  97.633  15.488  0.00  0.00    +0.000 OA
ATOM     14  C   UNL     1     -32.491  98.513  16.434  0.00  0.00    +0.000 C 
ATOM     15  C   UNL     1     -31.148  98.862  15.758  0.00  0.00    +0.000 C 
ATOM     16  C   UNL     1     -32.465  98.072  17.939  0.00  0.00    +0.000 C 
ATOM     17  C   UNL     1     -29.961  98.673  16.528  0.00  0.00    +0.000 C 
ATOM     18  C   UNL     1     -31.057  97.924  18.319  0.00  0.00    +0.000 C 
ATOM     19  C   UNL     1     -29.762  98.177  17.828  0.00  0.00    +0.000 C 
ATOM     20  C   UNL     1     -31.030  99.778  14.537  0.00  0.00    +0.000 C 
ATOM     21  C   UNL     1     -33.127  99.233  18.727  0.00  0.00    +0.000 C 
ATOM     22  C   UNL     1     -33.269  96.756  18.027  0.00  0.00    +0.000 C 
BRANCH  19  23
ATOM     23  O   UNL     1     -28.768  98.628  18.644  0.00  0.00    +0.000 OA
ATOM     24  H   UNL     1     -29.102  99.216  19.345  0.00  0.00    +0.000 HD
ENDBRANCH  19  23
ENDBRANCH  11  14
ENDBRANCH   6  12
ENDBRANCH   1   2
BRANCH   1  25
ATOM     25  C   UNL     1     -42.173 102.709  13.529  0.00  0.00    +0.000 C 
ATOM     26  C   UNL     1     -43.018 102.988  12.725  0.00  0.00    +0.000 C 
BRANCH  26  28
ATOM     27  C   UNL     1     -44.929 103.624  10.879  0.00  0.00    +0.000 C 
ATOM     28  C   UNL     1     -44.092 103.343  11.692  0.00  0.00    +0.000 C 
BRANCH  27  29
ATOM     29  C   UNL     1     -45.994 103.989   9.838  0.00  0.00    +0.000 C 
BRANCH  29  30
ATOM     30  C   UNL     1     -46.901 104.298   8.966  0.00  0.00    +0.000 C 
ATOM     31  C   UNL     1     -47.698 105.559   9.117  0.00  0.00    +0.000 C 
BRANCH  30  33
ATOM     32  C   UNL     1     -47.420 102.662   6.986  0.00  0.00    +0.000 C 
ATOM     33  C   UNL     1     -47.182 103.414   7.893  0.00  0.00    +0.000 C 
BRANCH  32  39
ATOM     34  C   UNL     1     -46.736 101.651   4.797  0.00  0.00    +0.000 C 
ATOM     35  C   UNL     1     -48.991 101.059   5.949  0.00  0.00    +0.000 C 
ATOM     36  C   UNL     1     -47.106 100.472   4.002  0.00  0.00    +0.000 C 
ATOM     37  C   UNL     1     -48.127  99.501   3.943  0.00  0.00    +0.000 C 
ATOM     38  C   UNL     1     -48.954  99.962   4.988  0.00  0.00    +0.000 C 
ATOM     39  C   UNL     1     -47.686 101.837   5.993  0.00  0.00    +0.000 C 
ATOM     40  C   UNL     1     -45.284 101.438   5.326  0.00  0.00    +0.000 C 
ATOM     41  C   UNL     1     -46.796 102.925   3.913  0.00  0.00    +0.000 C 
ATOM     42  C   UNL     1     -50.177 101.991   5.685  0.00  0.00    +0.000 C 
BRANCH  35  43
ATOM     43  O   UNL     1     -49.242 100.502   7.221  0.00  0.00    +0.000 OA
ATOM     44  H   UNL     1     -48.383 100.640   7.664  0.00  0.00    +0.000 HD
ENDBRANCH  35  43
BRANCH  37  45
ATOM     45  O   UNL     1     -48.672  99.170   2.709  0.00  0.00    +0.000 OA
BRANCH  45  47
ATOM     46  O   UNL     1     -49.082  96.912   3.194  0.00  0.00    +0.000 OA
ATOM     47  C   UNL     1     -48.629  97.826   2.531  0.00  0.00    +0.000 C 
ATOM     48  C   UNL     1     -47.885  97.396   1.317  0.00  0.00    +0.000 C 
ENDBRANCH  45  47
ENDBRANCH  37  45
ENDBRANCH  32  39
ENDBRANCH  30  33
ENDBRANCH  29  30
ENDBRANCH  27  29
ENDBRANCH  26  28
ENDBRANCH   1  25
TORSDOF 13
ENDMDL
MODEL 2
REMARK VINA RESULT:      -6.5      9.679     18.775
REMARK  Name = 5289155_Peridinin.pdbqt.pdb
REMARK  13 active torsions:
REMARK  status: ('A' for Active; 'I' for Inactive)
REMARK    1  A    between atoms: C_1  and  C_3
REMARK    2  A    between atoms: C_3  and  C_25
REMARK    3  A    between atoms: C_6  and  C_12
REMARK    4  A    between atoms: C_11  and  C_14
REMARK    5  A    between atoms: C_19  and  O_23
REMARK    6  A    between atoms: C_26  and  C_28
REMARK    7  A    between atoms: C_27  and  C_31
REMARK    8  A    between atoms: C_29  and  C_31
REMARK    9  A    between atoms: C_29  and  C_42
REMARK   10  A    between atoms: C_33  and  O_43
REMARK   11  A    between atoms: C_35  and  O_45
REMARK   12  A    between atoms: C_37  and  C_41
REMARK   13  A    between atoms: O_45  and  C_47
REMARK                            x       y       z     vdW  Elec       q    Type
REMARK                         _______ _______ _______ _____ _____    ______ ____
ROOT
ATOM      1  C   UNL     1     -49.294  96.928   1.688  0.00  0.00    +0.000 C 
ENDROOT
BRANCH   1   2
ATOM      2  C   UNL     1     -50.046  95.918   1.380  0.00  0.00    +0.000 C 
ATOM      3  C   UNL     1     -50.465  95.696  -0.040  0.00  0.00    +0.000 C 
ATOM      4  O   UNL     1     -50.925  94.583   4.611  0.00  0.00    +0.000 OA
ATOM      5  O   UNL     1     -52.023  93.550   6.372  0.00  0.00    +0.000 OA
ATOM      6  C   UNL     1     -52.050  92.600   4.151  0.00  0.00    +0.000 C 
ATOM      7  C   UNL     1     -51.517  92.987   3.050  0.00  0.00    +0.000 C 
ATOM      8  C   UNL     1     -51.696  93.585   5.199  0.00  0.00    +0.000 C 
ATOM      9  C   UNL     1     -50.805  94.159   3.290  0.00  0.00    +0.000 C 
ATOM     10  C   UNL     1     -50.442  95.001   2.380  0.00  0.00    +0.000 C 
BRANCH   6  12
ATOM     11  C   UNL     1     -53.512  90.452   4.392  0.00  0.00    +0.000 C 
ATOM     12  C   UNL     1     -52.842  91.444   4.284  0.00  0.00    +0.000 C 
BRANCH  11  14
ATOM     13  O   UNL     1     -53.460  88.094   4.736  0.00  0.00    +0.000 OA
ATOM     14  C   UNL     1     -54.320  89.249   4.511  0.00  0.00    +0.000 C 
ATOM     15  C   UNL     1     -54.299  88.452   5.832  0.00  0.00    +0.000 C 
ATOM     16  C   UNL     1     -55.535  89.037   3.543  0.00  0.00    +0.000 C 
ATOM     17  C   UNL     1     -55.348  87.505   6.041  0.00  0.00    +0.000 C 
ATOM     18  C   UNL     1     -56.329  87.930   4.085  0.00  0.00    +0.000 C 
ATOM     19  C   UNL     1     -56.426  87.116   5.229  0.00  0.00    +0.000 C 
ATOM     20  C   UNL     1     -53.525  88.899   7.076  0.00  0.00    +0.000 C 
ATOM     21  C   UNL     1     -56.342  90.362   3.586  0.00  0.00    +0.000 C 
ATOM     22  C   UNL     1     -54.942  88.745   2.147  0.00  0.00    +0.000 C 
BRANCH  19  23
ATOM     23  O   UNL     1     -57.635  86.748   5.739  0.00  0.00    +0.000 OA
ATOM     24  H   UNL     1     -58.189  86.286   5.083  0.00  0.00    +0.000 HD
ENDBRANCH  19  23
ENDBRANCH  11  14
ENDBRANCH   6  12
ENDBRANCH   1   2
BRANCH   1  25
ATOM     25  C   UNL     1     -48.404  98.122   2.051  0.00  0.00    +0.000 C 
ATOM     26  C   UNL     1     -47.710  99.060   2.331  0.00  0.00    +0.000 C 
BRANCH  26  28
ATOM     27  C   UNL     1     -46.131 101.199   2.959  0.00  0.00    +0.000 C 
ATOM     28  C   UNL     1     -46.827 100.262   2.682  0.00  0.00    +0.000 C 
BRANCH  27  29
ATOM     29  C   UNL     1     -45.238 102.393   3.317  0.00  0.00    +0.000 C 
BRANCH  29  30
ATOM     30  C   UNL     1     -44.474 103.395   3.619  0.00  0.00    +0.000 C 
ATOM     31  C   UNL     1     -45.072 104.697   4.059  0.00  0.00    +0.000 C 
BRANCH  30  33
ATOM     32  C   UNL     1     -41.875 103.183   3.364  0.00  0.00    +0.000 C 
ATOM     33  C   UNL     1     -43.068 103.279   3.479  0.00  0.00    +0.000 C 
BRANCH  32  39
ATOM     34  C   UNL     1     -39.593 103.593   4.315  0.00  0.00    +0.000 C 
ATOM     35  C   UNL     1     -39.943 102.473   1.994  0.00  0.00    +0.000 C 
ATOM     36  C   UNL     1     -38.233 103.082   4.091  0.00  0.00    +0.000 C 
ATOM     37  C   UNL     1     -37.519 102.329   3.136  0.00  0.00    +0.000 C 
ATOM     38  C   UNL     1     -38.541 102.120   2.186  0.00  0.00    +0.000 C 
ATOM     39  C   UNL     1     -40.567 103.074   3.243  0.00  0.00    +0.000 C 
ATOM     40  C   UNL     1     -40.066 103.102   5.717  0.00  0.00    +0.000 C 
ATOM     41  C   UNL     1     -39.588 105.145   4.271  0.00  0.00    +0.000 C 
ATOM     42  C   UNL     1     -40.124 103.402   0.789  0.00  0.00    +0.000 C 
BRANCH  35  43
ATOM     43  O   UNL     1     -40.636 101.293   1.651  0.00  0.00    +0.000 OA
ATOM     44  H   UNL     1     -41.028 101.542   0.793  0.00  0.00    +0.000 HD
ENDBRANCH  35  43
BRANCH  37  45
ATOM     45  O   UNL     1     -36.264 102.765   2.734  0.00  0.00    +0.000 OA
BRANCH  45  47
ATOM     46  O   UNL     1     -35.629 104.415   4.275  0.00  0.00    +0.000 OA
ATOM     47  C   UNL     1     -36.039 104.018   3.201  0.00  0.00    +0.000 C 
ATOM     48  C   UNL     1     -36.363 105.097   2.229  0.00  0.00    +0.000 C 
ENDBRANCH  45  47
ENDBRANCH  37  45
ENDBRANCH  32  39
ENDBRANCH  30  33
ENDBRANCH  29  30
ENDBRANCH  27  29
ENDBRANCH  26  28
ENDBRANCH   1  25
TORSDOF 13
ENDMDL
MODEL 3
REMARK VINA RESULT:      -6.4     23.242     28.669
REMARK  Name = 5289155_Peridinin.pdbqt.pdb
REMARK  13 active torsions:
REMARK  status: ('A' for Active; 'I' for Inactive)
REMARK    1  A    between atoms: C_1  and  C_3
REMARK    2  A    between atoms: C_3  and  C_25
REMARK    3  A    between atoms: C_6  and  C_12
REMARK    4  A    between atoms: C_11  and  C_14
REMARK    5  A    between atoms: C_19  and  O_23
REMARK    6  A    between atoms: C_26  and  C_28
REMARK    7  A    between atoms: C_27  and  C_31
REMARK    8  A    between atoms: C_29  and  C_31
REMARK    9  A    between atoms: C_29  and  C_42
REMARK   10  A    between atoms: C_33  and  O_43
REMARK   11  A    between atoms: C_35  and  O_45
REMARK   12  A    between atoms: C_37  and  C_41
REMARK   13  A    between atoms: O_45  and  C_47
REMARK                            x       y       z     vdW  Elec       q    Type
REMARK                         _______ _______ _______ _____ _____    ______ ____
ROOT
ATOM      1  C   UNL     1     -24.371 102.617  -7.416  0.00  0.00    +0.000 C 
ENDROOT
BRANCH   1   2
ATOM      2  C   UNL     1     -24.258 102.256  -8.656  0.00  0.00    +0.000 C 
ATOM      3  C   UNL     1     -25.248 102.733  -9.673  0.00  0.00    +0.000 C 
ATOM      4  O   UNL     1     -21.606  99.818  -8.523  0.00  0.00    +0.000 OA
ATOM      5  O   UNL     1     -20.221  98.006  -8.939  0.00  0.00    +0.000 OA
ATOM      6  C   UNL     1     -21.144  99.316 -10.746  0.00  0.00    +0.000 C 
ATOM      7  C   UNL     1     -21.911 100.345 -10.750  0.00  0.00    +0.000 C 
ATOM      8  C   UNL     1     -20.903  98.934  -9.335  0.00  0.00    +0.000 C 
ATOM      9  C   UNL     1     -22.187 100.697  -9.432  0.00  0.00    +0.000 C 
ATOM     10  C   UNL     1     -23.176 101.441  -9.059  0.00  0.00    +0.000 C 
BRANCH   6  12
ATOM     11  C   UNL     1     -20.234  98.154 -12.898  0.00  0.00    +0.000 C 
ATOM     12  C   UNL     1     -20.658  98.686 -11.907  0.00  0.00    +0.000 C 
BRANCH  11  14
ATOM     13  O   UNL     1     -18.266  97.654 -14.145  0.00  0.00    +0.000 OA
ATOM     14  C   UNL     1     -19.716  97.518 -14.098  0.00  0.00    +0.000 C 
ATOM     15  C   UNL     1     -18.747  96.324 -13.964  0.00  0.00    +0.000 C 
ATOM     16  C   UNL     1     -20.479  97.698 -15.457  0.00  0.00    +0.000 C 
ATOM     17  C   UNL     1     -18.544  95.515 -15.123  0.00  0.00    +0.000 C 
ATOM     18  C   UNL     1     -19.922  96.720 -16.395  0.00  0.00    +0.000 C 
ATOM     19  C   UNL     1     -19.051  95.614 -16.430  0.00  0.00    +0.000 C 
ATOM     20  C   UNL     1     -18.350  95.705 -12.621  0.00  0.00    +0.000 C 
ATOM     21  C   UNL     1     -21.965  97.377 -15.148  0.00  0.00    +0.000 C 
ATOM     22  C   UNL     1     -20.263  99.164 -15.893  0.00  0.00    +0.000 C 
BRANCH  19  23
ATOM     23  O   UNL     1     -19.318  94.523 -17.201  0.00  0.00    +0.000 OA
ATOM     24  H   UNL     1     -18.601  94.330 -17.831  0.00  0.00    +0.000 HD
ENDBRANCH  19  23
ENDBRANCH  11  14
ENDBRANCH   6  12
ENDBRANCH   1   2
BRANCH   1  25
ATOM     25  C   UNL     1     -24.506 103.044  -5.950  0.00  0.00    +0.000 C 
ATOM     26  C   UNL     1     -24.615 103.383  -4.805  0.00  0.00    +0.000 C 
BRANCH  26  28
ATOM     27  C   UNL     1     -24.868 104.161  -2.199  0.00  0.00    +0.000 C 
ATOM     28  C   UNL     1     -24.758 103.823  -3.344  0.00  0.00    +0.000 C 
BRANCH  27  29
ATOM     29  C   UNL     1     -25.008 104.587  -0.732  0.00  0.00    +0.000 C 
BRANCH  29  30
ATOM     30  C   UNL     1     -25.131 104.956   0.504  0.00  0.00    +0.000 C 
ATOM     31  C   UNL     1     -25.762 106.273   0.841  0.00  0.00    +0.000 C 
BRANCH  30  33
ATOM     32  C   UNL     1     -24.183 103.439   2.418  0.00  0.00    +0.000 C 
ATOM     33  C   UNL     1     -24.618 104.137   1.541  0.00  0.00    +0.000 C 
BRANCH  32  39
ATOM     34  C   UNL     1     -24.046 101.178   3.491  0.00  0.00    +0.000 C 
ATOM     35  C   UNL     1     -22.814 103.250   4.469  0.00  0.00    +0.000 C 
ATOM     36  C   UNL     1     -23.154 100.498   4.441  0.00  0.00    +0.000 C 
ATOM     37  C   UNL     1     -22.130 100.812   5.357  0.00  0.00    +0.000 C 
ATOM     38  C   UNL     1     -22.109 102.215   5.217  0.00  0.00    +0.000 C 
ATOM     39  C   UNL     1     -23.702 102.674   3.377  0.00  0.00    +0.000 C 
ATOM     40  C   UNL     1     -23.867 100.505   2.096  0.00  0.00    +0.000 C 
ATOM     41  C   UNL     1     -25.520 101.043   3.959  0.00  0.00    +0.000 C 
ATOM     42  C   UNL     1     -23.615 104.164   5.401  0.00  0.00    +0.000 C 
BRANCH  35  43
ATOM     43  O   UNL     1     -21.843 104.089   3.882  0.00  0.00    +0.000 OA
ATOM     44  H   UNL     1     -22.132 104.966   4.197  0.00  0.00    +0.000 HD
ENDBRANCH  35  43
BRANCH  37  45
ATOM     45  O   UNL     1     -22.152 100.232   6.619  0.00  0.00    +0.000 OA
BRANCH  45  47
ATOM     46  O   UNL     1     -20.526  98.713   5.875  0.00  0.00    +0.000 OA
ATOM     47  C   UNL     1     -21.157  99.316   6.723  0.00  0.00    +0.000 C 
ATOM     48  C   UNL     1     -20.781  98.983   8.124  0.00  0.00    +0.000 C 
ENDBRANCH  45  47
ENDBRANCH  37  45
ENDBRANCH  32  39
ENDBRANCH  30  33
ENDBRANCH  29  30
ENDBRANCH  27  29
ENDBRANCH  26  28
ENDBRANCH   1  25
TORSDOF 13
ENDMDL
MODEL 4
REMARK VINA RESULT:      -6.4      1.673      2.254
REMARK  Name = 5289155_Peridinin.pdbqt.pdb
REMARK  13 active torsions:
REMARK  status: ('A' for Active; 'I' for Inactive)
REMARK    1  A    between atoms: C_1  and  C_3
REMARK    2  A    between atoms: C_3  and  C_25
REMARK    3  A    between atoms: C_6  and  C_12
REMARK    4  A    between atoms: C_11  and  C_14
REMARK    5  A    between atoms: C_19  and  O_23
REMARK    6  A    between atoms: C_26  and  C_28
REMARK    7  A    between atoms: C_27  and  C_31
REMARK    8  A    between atoms: C_29  and  C_31
REMARK    9  A    between atoms: C_29  and  C_42
REMARK   10  A    between atoms: C_33  and  O_43
REMARK   11  A    between atoms: C_35  and  O_45
REMARK   12  A    between atoms: C_37  and  C_41
REMARK   13  A    between atoms: O_45  and  C_47
REMARK                            x       y       z     vdW  Elec       q    Type
REMARK                         _______ _______ _______ _____ _____    ______ ____
ROOT
ATOM      1  C   UNL     1     -42.199 102.645  13.454  0.00  0.00    +0.000 C 
ENDROOT
BRANCH   1   2
ATOM      2  C   UNL     1     -41.210 102.706  14.289  0.00  0.00    +0.000 C 
ATOM      3  C   UNL     1     -41.308 103.564  15.512  0.00  0.00    +0.000 C 
ATOM      4  O   UNL     1     -38.621 100.879  12.571  0.00  0.00    +0.000 OA
ATOM      5  O   UNL     1     -36.577 100.108  11.795  0.00  0.00    +0.000 OA
ATOM      6  C   UNL     1     -36.891 100.700  14.116  0.00  0.00    +0.000 C 
ATOM      7  C   UNL     1     -37.916 101.132  14.755  0.00  0.00    +0.000 C 
ATOM      8  C   UNL     1     -37.287 100.508  12.700  0.00  0.00    +0.000 C 
ATOM      9  C   UNL     1     -38.986 101.224  13.869  0.00  0.00    +0.000 C 
ATOM     10  C   UNL     1     -40.049 101.932  14.067  0.00  0.00    +0.000 C 
BRANCH   6  12
ATOM     11  C   UNL     1     -34.555 100.290  15.202  0.00  0.00    +0.000 C 
ATOM     12  C   UNL     1     -35.629 100.480  14.697  0.00  0.00    +0.000 C 
BRANCH  11  14
ATOM     13  O   UNL     1     -32.551  99.003  15.119  0.00  0.00    +0.000 OA
ATOM     14  C   UNL     1     -33.260 100.062  15.824  0.00  0.00    +0.000 C 
ATOM     15  C   UNL     1     -31.975 100.302  15.004  0.00  0.00    +0.000 C 
ATOM     16  C   UNL     1     -33.146 100.060  17.388  0.00  0.00    +0.000 C 
ATOM     17  C   UNL     1     -30.750 100.416  15.728  0.00  0.00    +0.000 C 
ATOM     18  C   UNL     1     -31.718 100.121  17.714  0.00  0.00    +0.000 C 
ATOM     19  C   UNL     1     -30.466 100.316  17.101  0.00  0.00    +0.000 C 
ATOM     20  C   UNL     1     -31.976 100.849  13.573  0.00  0.00    +0.000 C 
ATOM     21  C   UNL     1     -33.872 101.346  17.863  0.00  0.00    +0.000 C 
ATOM     22  C   UNL     1     -33.836  98.768  17.879  0.00  0.00    +0.000 C 
BRANCH  19  23
ATOM     23  O   UNL     1     -29.484 101.044  17.704  0.00  0.00    +0.000 OA
ATOM     24  H   UNL     1     -29.317 101.889  17.250  0.00  0.00    +0.000 HD
ENDBRANCH  19  23
ENDBRANCH  11  14
ENDBRANCH   6  12
ENDBRANCH   1   2
BRANCH   1  25
ATOM     25  C   UNL     1     -43.370 102.572  12.468  0.00  0.00    +0.000 C 
ATOM     26  C   UNL     1     -44.286 102.510  11.694  0.00  0.00    +0.000 C 
BRANCH  26  28
ATOM     27  C   UNL     1     -46.368 102.350   9.934  0.00  0.00    +0.000 C 
ATOM     28  C   UNL     1     -45.453 102.423  10.706  0.00  0.00    +0.000 C 
BRANCH  27  29
ATOM     29  C   UNL     1     -47.539 102.249   8.949  0.00  0.00    +0.000 C 
BRANCH  29  30
ATOM     30  C   UNL     1     -48.524 102.155   8.112  0.00  0.00    +0.000 C 
ATOM     31  C   UNL     1     -49.915 102.521   8.535  0.00  0.00    +0.000 C 
BRANCH  30  33
ATOM     32  C   UNL     1     -48.107 101.225   5.699  0.00  0.00    +0.000 C 
ATOM     33  C   UNL     1     -48.297 101.650   6.807  0.00  0.00    +0.000 C 
BRANCH  32  39
ATOM     34  C   UNL     1     -46.773 101.302   3.578  0.00  0.00    +0.000 C 
ATOM     35  C   UNL     1     -48.801  99.700   3.879  0.00  0.00    +0.000 C 
ATOM     36  C   UNL     1     -46.558 100.425   2.418  0.00  0.00    +0.000 C 
ATOM     37  C   UNL     1     -47.129  99.282   1.823  0.00  0.00    +0.000 C 
ATOM     38  C   UNL     1     -48.216  99.077   2.696  0.00  0.00    +0.000 C 
ATOM     39  C   UNL     1     -47.896 100.763   4.482  0.00  0.00    +0.000 C 
ATOM     40  C   UNL     1     -45.444 101.357   4.392  0.00  0.00    +0.000 C 
ATOM     41  C   UNL     1     -47.161 102.726   3.100  0.00  0.00    +0.000 C 
ATOM     42  C   UNL     1     -50.191 100.270   3.580  0.00  0.00    +0.000 C 
BRANCH  35  43
ATOM     43  O   UNL     1     -49.021  98.684   4.832  0.00  0.00    +0.000 OA
ATOM     44  H   UNL     1     -48.217  98.757   5.381  0.00  0.00    +0.000 HD
ENDBRANCH  35  43
BRANCH  37  45
ATOM     45  O   UNL     1     -47.319  99.261   0.447  0.00  0.00    +0.000 OA
BRANCH  45  47
ATOM     46  O   UNL     1     -48.229 101.382   0.029  0.00  0.00    +0.000 OA
ATOM     47  C   UNL     1     -48.264 100.167   0.097  0.00  0.00    +0.000 C 
ATOM     48  C   UNL     1     -49.581  99.569  -0.253  0.00  0.00    +0.000 C 
ENDBRANCH  45  47
ENDBRANCH  37  45
ENDBRANCH  32  39
ENDBRANCH  30  33
ENDBRANCH  29  30
ENDBRANCH  27  29
ENDBRANCH  26  28
ENDBRANCH   1  25
TORSDOF 13
ENDMDL
MODEL 5
REMARK VINA RESULT:      -6.4     10.122     18.581
REMARK  Name = 5289155_Peridinin.pdbqt.pdb
REMARK  13 active torsions:
REMARK  status: ('A' for Active; 'I' for Inactive)
REMARK    1  A    between atoms: C_1  and  C_3
REMARK    2  A    between atoms: C_3  and  C_25
REMARK    3  A    between atoms: C_6  and  C_12
REMARK    4  A    between atoms: C_11  and  C_14
REMARK    5  A    between atoms: C_19  and  O_23
REMARK    6  A    between atoms: C_26  and  C_28
REMARK    7  A    between atoms: C_27  and  C_31
REMARK    8  A    between atoms: C_29  and  C_31
REMARK    9  A    between atoms: C_29  and  C_42
REMARK   10  A    between atoms: C_33  and  O_43
REMARK   11  A    between atoms: C_35  and  O_45
REMARK   12  A    between atoms: C_37  and  C_41
REMARK   13  A    between atoms: O_45  and  C_47
REMARK                            x       y       z     vdW  Elec       q    Type
REMARK                         _______ _______ _______ _____ _____    ______ ____
ROOT
ATOM      1  C   UNL     1     -50.233  95.757   1.334  0.00  0.00    +0.000 C 
ENDROOT
BRANCH   1   2
ATOM      2  C   UNL     1     -50.931  94.667   1.280  0.00  0.00    +0.000 C 
ATOM      3  C   UNL     1     -51.427  94.154  -0.037  0.00  0.00    +0.000 C 
ATOM      4  O   UNL     1     -51.499  93.927   4.762  0.00  0.00    +0.000 OA
ATOM      5  O   UNL     1     -52.404  93.191   6.765  0.00  0.00    +0.000 OA
ATOM      6  C   UNL     1     -52.512  91.833   4.770  0.00  0.00    +0.000 C 
ATOM      7  C   UNL     1     -52.081  92.032   3.578  0.00  0.00    +0.000 C 
ATOM      8  C   UNL     1     -52.158  93.019   5.585  0.00  0.00    +0.000 C 
ATOM      9  C   UNL     1     -51.438  93.266   3.539  0.00  0.00    +0.000 C 
ATOM     10  C   UNL     1     -51.196  93.937   2.461  0.00  0.00    +0.000 C 
BRANCH   6  12
ATOM     11  C   UNL     1     -53.800  89.693   5.522  0.00  0.00    +0.000 C 
ATOM     12  C   UNL     1     -53.209  90.681   5.179  0.00  0.00    +0.000 C 
BRANCH  11  14
ATOM     13  O   UNL     1     -55.615  88.235   5.010  0.00  0.00    +0.000 OA
ATOM     14  C   UNL     1     -54.512  88.491   5.926  0.00  0.00    +0.000 C 
ATOM     15  C   UNL     1     -54.558  87.280   4.970  0.00  0.00    +0.000 C 
ATOM     16  C   UNL     1     -54.795  88.238   7.448  0.00  0.00    +0.000 C 
ATOM     17  C   UNL     1     -54.944  86.023   5.526  0.00  0.00    +0.000 C 
ATOM     18  C   UNL     1     -55.231  86.845   7.579  0.00  0.00    +0.000 C 
ATOM     19  C   UNL     1     -55.341  85.661   6.825  0.00  0.00    +0.000 C 
ATOM     20  C   UNL     1     -53.821  87.236   3.628  0.00  0.00    +0.000 C 
ATOM     21  C   UNL     1     -53.438  88.458   8.169  0.00  0.00    +0.000 C 
ATOM     22  C   UNL     1     -55.869  89.263   7.874  0.00  0.00    +0.000 C 
BRANCH  19  23
ATOM     23  O   UNL     1     -55.058  84.444   7.368  0.00  0.00    +0.000 OA
ATOM     24  H   UNL     1     -55.818  83.837   7.334  0.00  0.00    +0.000 HD
ENDBRANCH  19  23
ENDBRANCH  11  14
ENDBRANCH   6  12
ENDBRANCH   1   2
BRANCH   1  25
ATOM     25  C   UNL     1     -49.408  97.048   1.398  0.00  0.00    +0.000 C 
ATOM     26  C   UNL     1     -48.767  98.061   1.448  0.00  0.00    +0.000 C 
BRANCH  26  28
ATOM     27  C   UNL     1     -47.316 100.372   1.562  0.00  0.00    +0.000 C 
ATOM     28  C   UNL     1     -47.955  99.358   1.515  0.00  0.00    +0.000 C 
BRANCH  27  29
ATOM     29  C   UNL     1     -46.493 101.665   1.619  0.00  0.00    +0.000 C 
BRANCH  29  30
ATOM     30  C   UNL     1     -45.790 102.752   1.662  0.00  0.00    +0.000 C 
ATOM     31  C   UNL     1     -46.381 104.054   1.214  0.00  0.00    +0.000 C 
BRANCH  30  33
ATOM     32  C   UNL     1     -43.288 102.661   2.435  0.00  0.00    +0.000 C 
ATOM     33  C   UNL     1     -44.436 102.702   2.082  0.00  0.00    +0.000 C 
BRANCH  32  39
ATOM     34  C   UNL     1     -40.860 102.891   1.855  0.00  0.00    +0.000 C 
ATOM     35  C   UNL     1     -41.655 102.244   4.246  0.00  0.00    +0.000 C 
ATOM     36  C   UNL     1     -39.601 103.089   2.586  0.00  0.00    +0.000 C 
ATOM     37  C   UNL     1     -39.108 103.016   3.905  0.00  0.00    +0.000 C 
ATOM     38  C   UNL     1     -40.276 102.591   4.571  0.00  0.00    +0.000 C 
ATOM     39  C   UNL     1     -42.028 102.621   2.821  0.00  0.00    +0.000 C 
ATOM     40  C   UNL     1     -41.156 104.192   1.047  0.00  0.00    +0.000 C 
ATOM     41  C   UNL     1     -40.727 101.684   0.888  0.00  0.00    +0.000 C 
ATOM     42  C   UNL     1     -41.936 100.762   4.512  0.00  0.00    +0.000 C 
BRANCH  35  43
ATOM     43  O   UNL     1     -42.493 102.940   5.143  0.00  0.00    +0.000 OA
ATOM     44  H   UNL     1     -41.862 103.560   5.555  0.00  0.00    +0.000 HD
ENDBRANCH  35  43
BRANCH  37  45
ATOM     45  O   UNL     1     -37.895 102.381   4.139  0.00  0.00    +0.000 OA
BRANCH  45  47
ATOM     46  O   UNL     1     -36.584 104.252   4.670  0.00  0.00    +0.000 OA
ATOM     47  C   UNL     1     -36.878 103.269   4.016  0.00  0.00    +0.000 C 
ATOM     48  C   UNL     1     -35.969 102.998   2.869  0.00  0.00    +0.000 C 
ENDBRANCH  45  47
ENDBRANCH  37  45
ENDBRANCH  32  39
ENDBRANCH  30  33
ENDBRANCH  29  30
ENDBRANCH  27  29
ENDBRANCH  26  28
ENDBRANCH   1  25
TORSDOF 13
ENDMDL
MODEL 6
REMARK VINA RESULT:      -6.1      9.842     18.778
REMARK  Name = 5289155_Peridinin.pdbqt.pdb
REMARK  13 active torsions:
REMARK  status: ('A' for Active; 'I' for Inactive)
REMARK    1  A    between atoms: C_1  and  C_3
REMARK    2  A    between atoms: C_3  and  C_25
REMARK    3  A    between atoms: C_6  and  C_12
REMARK    4  A    between atoms: C_11  and  C_14
REMARK    5  A    between atoms: C_19  and  O_23
REMARK    6  A    between atoms: C_26  and  C_28
REMARK    7  A    between atoms: C_27  and  C_31
REMARK    8  A    between atoms: C_29  and  C_31
REMARK    9  A    between atoms: C_29  and  C_42
REMARK   10  A    between atoms: C_33  and  O_43
REMARK   11  A    between atoms: C_35  and  O_45
REMARK   12  A    between atoms: C_37  and  C_41
REMARK   13  A    between atoms: O_45  and  C_47
REMARK                            x       y       z     vdW  Elec       q    Type
REMARK                         _______ _______ _______ _____ _____    ______ ____
ROOT
ATOM      1  C   UNL     1     -49.525  96.790   2.628  0.00  0.00    +0.000 C 
ENDROOT
BRANCH   1   2
ATOM      2  C   UNL     1     -50.197  95.782   2.168  0.00  0.00    +0.000 C 
ATOM      3  C   UNL     1     -50.473  95.668   0.700  0.00  0.00    +0.000 C 
ATOM      4  O   UNL     1     -51.301  94.136   5.178  0.00  0.00    +0.000 OA
ATOM      5  O   UNL     1     -52.504  92.911   6.735  0.00  0.00    +0.000 OA
ATOM      6  C   UNL     1     -52.284  92.158   4.450  0.00  0.00    +0.000 C 
ATOM      7  C   UNL     1     -51.672  92.660   3.441  0.00  0.00    +0.000 C 
ATOM      8  C   UNL     1     -52.074  93.061   5.606  0.00  0.00    +0.000 C 
ATOM      9  C   UNL     1     -51.042  93.834   3.844  0.00  0.00    +0.000 C 
ATOM     10  C   UNL     1     -50.638  94.766   3.045  0.00  0.00    +0.000 C 
BRANCH   6  12
ATOM     11  C   UNL     1     -53.670  89.948   4.386  0.00  0.00    +0.000 C 
ATOM     12  C   UNL     1     -53.028  90.964   4.412  0.00  0.00    +0.000 C 
BRANCH  11  14
ATOM     13  O   UNL     1     -54.264  87.992   5.611  0.00  0.00    +0.000 OA
ATOM     14  C   UNL     1     -54.451  88.722   4.365  0.00  0.00    +0.000 C 
ATOM     15  C   UNL     1     -55.572  88.520   5.407  0.00  0.00    +0.000 C 
ATOM     16  C   UNL     1     -54.503  87.863   3.053  0.00  0.00    +0.000 C 
ATOM     17  C   UNL     1     -56.532  87.497   5.144  0.00  0.00    +0.000 C 
ATOM     18  C   UNL     1     -55.584  86.888   3.221  0.00  0.00    +0.000 C 
ATOM     19  C   UNL     1     -56.645  86.574   4.090  0.00  0.00    +0.000 C 
ATOM     20  C   UNL     1     -55.971  89.584   6.434  0.00  0.00    +0.000 C 
ATOM     21  C   UNL     1     -54.837  88.861   1.912  0.00  0.00    +0.000 C 
ATOM     22  C   UNL     1     -53.109  87.218   2.893  0.00  0.00    +0.000 C 
BRANCH  19  23
ATOM     23  O   UNL     1     -57.847  86.141   3.618  0.00  0.00    +0.000 OA
ATOM     24  H   UNL     1     -57.986  86.379   2.683  0.00  0.00    +0.000 HD
ENDBRANCH  19  23
ENDBRANCH  11  14
ENDBRANCH   6  12
ENDBRANCH   1   2
BRANCH   1  25
ATOM     25  C   UNL     1     -48.729  97.982   3.173  0.00  0.00    +0.000 C 
ATOM     26  C   UNL     1     -48.102  98.912   3.600  0.00  0.00    +0.000 C 
BRANCH  26  28
ATOM     27  C   UNL     1     -46.668 101.022   4.574  0.00  0.00    +0.000 C 
ATOM     28  C   UNL     1     -47.295 100.095   4.144  0.00  0.00    +0.000 C 
BRANCH  27  29
ATOM     29  C   UNL     1     -45.872 102.212   5.125  0.00  0.00    +0.000 C 
BRANCH  29  30
ATOM     30  C   UNL     1     -45.201 103.222   5.581  0.00  0.00    +0.000 C 
ATOM     31  C   UNL     1     -45.816 104.149   6.585  0.00  0.00    +0.000 C 
BRANCH  30  33
ATOM     32  C   UNL     1     -42.793 103.706   4.670  0.00  0.00    +0.000 C 
ATOM     33  C   UNL     1     -43.898 103.485   5.087  0.00  0.00    +0.000 C 
BRANCH  32  39
ATOM     34  C   UNL     1     -41.305 104.985   3.109  0.00  0.00    +0.000 C 
ATOM     35  C   UNL     1     -40.383 103.148   4.704  0.00  0.00    +0.000 C 
ATOM     36  C   UNL     1     -39.869 105.273   2.998  0.00  0.00    +0.000 C 
ATOM     37  C   UNL     1     -38.644 104.819   3.528  0.00  0.00    +0.000 C 
ATOM     38  C   UNL     1     -39.114 103.776   4.352  0.00  0.00    +0.000 C 
ATOM     39  C   UNL     1     -41.581 103.943   4.208  0.00  0.00    +0.000 C 
ATOM     40  C   UNL     1     -42.036 106.315   3.471  0.00  0.00    +0.000 C 
ATOM     41  C   UNL     1     -41.841 104.436   1.760  0.00  0.00    +0.000 C 
ATOM     42  C   UNL     1     -40.445 101.700   4.211  0.00  0.00    +0.000 C 
BRANCH  35  43
ATOM     43  O   UNL     1     -40.438 103.057   6.111  0.00  0.00    +0.000 OA
ATOM     44  H   UNL     1     -39.522 102.798   6.323  0.00  0.00    +0.000 HD
ENDBRANCH  35  43
BRANCH  37  45
ATOM     45  O   UNL     1     -37.573 104.607   2.669  0.00  0.00    +0.000 OA
BRANCH  45  47
ATOM     46  O   UNL     1     -35.916 104.154   4.266  0.00  0.00    +0.000 OA
ATOM     47  C   UNL     1     -36.609 103.894   3.300  0.00  0.00    +0.000 C 
ATOM     48  C   UNL     1     -36.344 102.560   2.695  0.00  0.00    +0.000 C 
ENDBRANCH  45  47
ENDBRANCH  37  45
ENDBRANCH  32  39
ENDBRANCH  30  33
ENDBRANCH  29  30
ENDBRANCH  27  29
ENDBRANCH  26  28
ENDBRANCH   1  25
TORSDOF 13
ENDMDL
MODEL 7
REMARK VINA RESULT:      -5.8      9.853     18.728
REMARK  Name = 5289155_Peridinin.pdbqt.pdb
REMARK  13 active torsions:
REMARK  status: ('A' for Active; 'I' for Inactive)
REMARK    1  A    between atoms: C_1  and  C_3
REMARK    2  A    between atoms: C_3  and  C_25
REMARK    3  A    between atoms: C_6  and  C_12
REMARK    4  A    between atoms: C_11  and  C_14
REMARK    5  A    between atoms: C_19  and  O_23
REMARK    6  A    between atoms: C_26  and  C_28
REMARK    7  A    between atoms: C_27  and  C_31
REMARK    8  A    between atoms: C_29  and  C_31
REMARK    9  A    between atoms: C_29  and  C_42
REMARK   10  A    between atoms: C_33  and  O_43
REMARK   11  A    between atoms: C_35  and  O_45
REMARK   12  A    between atoms: C_37  and  C_41
REMARK   13  A    between atoms: O_45  and  C_47
REMARK                            x       y       z     vdW  Elec       q    Type
REMARK                         _______ _______ _______ _____ _____    ______ ____
ROOT
ATOM      1  C   UNL     1     -50.405  95.543   2.895  0.00  0.00    +0.000 C 
ENDROOT
BRANCH   1   2
ATOM      2  C   UNL     1     -51.066  94.467   2.606  0.00  0.00    +0.000 C 
ATOM      3  C   UNL     1     -51.391  94.143   1.181  0.00  0.00    +0.000 C 
ATOM      4  O   UNL     1     -52.022  93.237   5.856  0.00  0.00    +0.000 OA
ATOM      5  O   UNL     1     -53.138  92.217   7.614  0.00  0.00    +0.000 OA
ATOM      6  C   UNL     1     -52.978  91.156   5.449  0.00  0.00    +0.000 C 
ATOM      7  C   UNL     1     -52.415  91.524   4.357  0.00  0.00    +0.000 C 
ATOM      8  C   UNL     1     -52.752  92.217   6.459  0.00  0.00    +0.000 C 
ATOM      9  C   UNL     1     -51.802  92.756   4.569  0.00  0.00    +0.000 C 
ATOM     10  C   UNL     1     -51.450  93.575   3.633  0.00  0.00    +0.000 C 
BRANCH   6  12
ATOM     11  C   UNL     1     -54.310  88.931   5.739  0.00  0.00    +0.000 C 
ATOM     12  C   UNL     1     -53.692  89.953   5.606  0.00  0.00    +0.000 C 
BRANCH  11  14
ATOM     13  O   UNL     1     -56.478  87.946   5.637  0.00  0.00    +0.000 OA
ATOM     14  C   UNL     1     -55.067  87.700   5.902  0.00  0.00    +0.000 C 
ATOM     15  C   UNL     1     -55.818  87.108   4.691  0.00  0.00    +0.000 C 
ATOM     16  C   UNL     1     -54.737  86.745   7.102  0.00  0.00    +0.000 C 
ATOM     17  C   UNL     1     -56.243  85.748   4.786  0.00  0.00    +0.000 C 
ATOM     18  C   UNL     1     -55.419  85.474   6.839  0.00  0.00    +0.000 C 
ATOM     19  C   UNL     1     -56.134  84.809   5.826  0.00  0.00    +0.000 C 
ATOM     20  C   UNL     1     -55.753  87.705   3.282  0.00  0.00    +0.000 C 
ATOM     21  C   UNL     1     -53.197  86.557   7.077  0.00  0.00    +0.000 C 
ATOM     22  C   UNL     1     -55.231  87.457   8.380  0.00  0.00    +0.000 C 
BRANCH  19  23
ATOM     23  O   UNL     1     -55.970  83.475   5.598  0.00  0.00    +0.000 OA
ATOM     24  H   UNL     1     -55.676  82.996   6.394  0.00  0.00    +0.000 HD
ENDBRANCH  19  23
ENDBRANCH  11  14
ENDBRANCH   6  12
ENDBRANCH   1   2
BRANCH   1  25
ATOM     25  C   UNL     1     -49.623  96.817   3.237  0.00  0.00    +0.000 C 
ATOM     26  C   UNL     1     -49.016  97.817   3.505  0.00  0.00    +0.000 C 
BRANCH  26  28
ATOM     27  C   UNL     1     -47.645 100.100   4.111  0.00  0.00    +0.000 C 
ATOM     28  C   UNL     1     -48.248  99.097   3.848  0.00  0.00    +0.000 C 
BRANCH  27  29
ATOM     29  C   UNL     1     -46.871 101.383   4.441  0.00  0.00    +0.000 C 
BRANCH  29  30
ATOM     30  C   UNL     1     -46.217 102.468   4.708  0.00  0.00    +0.000 C 
ATOM     31  C   UNL     1     -46.905 103.622   5.374  0.00  0.00    +0.000 C 
BRANCH  30  33
ATOM     32  C   UNL     1     -43.707 102.688   3.991  0.00  0.00    +0.000 C 
ATOM     33  C   UNL     1     -44.859 102.589   4.321  0.00  0.00    +0.000 C 
BRANCH  32  39
ATOM     34  C   UNL     1     -41.641 101.611   3.066  0.00  0.00    +0.000 C 
ATOM     35  C   UNL     1     -41.693 104.110   3.787  0.00  0.00    +0.000 C 
ATOM     36  C   UNL     1     -40.384 102.062   2.453  0.00  0.00    +0.000 C 
ATOM     37  C   UNL     1     -39.636 103.246   2.298  0.00  0.00    +0.000 C 
ATOM     38  C   UNL     1     -40.453 104.140   3.020  0.00  0.00    +0.000 C 
ATOM     39  C   UNL     1     -42.446 102.799   3.624  0.00  0.00    +0.000 C 
ATOM     40  C   UNL     1     -42.483 100.896   1.965  0.00  0.00    +0.000 C 
ATOM     41  C   UNL     1     -41.341 100.627   4.228  0.00  0.00    +0.000 C 
ATOM     42  C   UNL     1     -41.441 104.416   5.267  0.00  0.00    +0.000 C 
BRANCH  35  43
ATOM     43  O   UNL     1     -42.505 105.170   3.330  0.00  0.00    +0.000 OA
ATOM     44  H   UNL     1     -42.305 105.167   2.375  0.00  0.00    +0.000 HD
ENDBRANCH  35  43
BRANCH  37  45
ATOM     45  O   UNL     1     -38.265 103.213   2.519  0.00  0.00    +0.000 OA
BRANCH  45  47
ATOM     46  O   UNL     1     -38.228 102.305   4.681  0.00  0.00    +0.000 OA
ATOM     47  C   UNL     1     -38.013 103.167   3.850  0.00  0.00    +0.000 C 
ATOM     48  C   UNL     1     -37.370 104.396   4.392  0.00  0.00    +0.000 C 
ENDBRANCH  45  47
ENDBRANCH  37  45
ENDBRANCH  32  39
ENDBRANCH  30  33
ENDBRANCH  29  30
ENDBRANCH  27  29
ENDBRANCH  26  28
ENDBRANCH   1  25
TORSDOF 13
ENDMDL
MODEL 8
REMARK VINA RESULT:      -5.8     20.950     28.258
REMARK  Name = 5289155_Peridinin.pdbqt.pdb
REMARK  13 active torsions:
REMARK  status: ('A' for Active; 'I' for Inactive)
REMARK    1  A    between atoms: C_1  and  C_3
REMARK    2  A    between atoms: C_3  and  C_25
REMARK    3  A    between atoms: C_6  and  C_12
REMARK    4  A    between atoms: C_11  and  C_14
REMARK    5  A    between atoms: C_19  and  O_23
REMARK    6  A    between atoms: C_26  and  C_28
REMARK    7  A    between atoms: C_27  and  C_31
REMARK    8  A    between atoms: C_29  and  C_31
REMARK    9  A    between atoms: C_29  and  C_42
REMARK   10  A    between atoms: C_33  and  O_43
REMARK   11  A    between atoms: C_35  and  O_45
REMARK   12  A    between atoms: C_37  and  C_41
REMARK   13  A    between atoms: O_45  and  C_47
REMARK                            x       y       z     vdW  Elec       q    Type
REMARK                         _______ _______ _______ _____ _____    ______ ____
ROOT
ATOM      1  C   UNL     1     -23.176 104.070  -3.165  0.00  0.00    +0.000 C 
ENDROOT
BRANCH   1   2
ATOM      2  C   UNL     1     -22.980 104.618  -4.323  0.00  0.00    +0.000 C 
ATOM      3  C   UNL     1     -22.608 106.065  -4.417  0.00  0.00    +0.000 C 
ATOM      4  O   UNL     1     -24.005 102.022  -6.604  0.00  0.00    +0.000 OA
ATOM      5  O   UNL     1     -24.814 100.859  -8.438  0.00  0.00    +0.000 OA
ATOM      6  C   UNL     1     -23.427 102.817  -8.712  0.00  0.00    +0.000 C 
ATOM      7  C   UNL     1     -22.872 103.597  -7.857  0.00  0.00    +0.000 C 
ATOM      8  C   UNL     1     -24.166 101.774  -7.963  0.00  0.00    +0.000 C 
ATOM      9  C   UNL     1     -23.169 103.135  -6.578  0.00  0.00    +0.000 C 
ATOM     10  C   UNL     1     -23.081 103.842  -5.500  0.00  0.00    +0.000 C 
BRANCH   6  12
ATOM     11  C   UNL     1     -23.266 103.109 -11.300  0.00  0.00    +0.000 C 
ATOM     12  C   UNL     1     -23.336 102.978 -10.107  0.00  0.00    +0.000 C 
BRANCH  11  14
ATOM     13  O   UNL     1     -22.273 102.271 -13.297  0.00  0.00    +0.000 OA
ATOM     14  C   UNL     1     -23.188 103.260 -12.744  0.00  0.00    +0.000 C 
ATOM     15  C   UNL     1     -23.643 102.097 -13.651  0.00  0.00    +0.000 C 
ATOM     16  C   UNL     1     -23.125 104.698 -13.367  0.00  0.00    +0.000 C 
ATOM     17  C   UNL     1     -23.889 102.398 -15.025  0.00  0.00    +0.000 C 
ATOM     18  C   UNL     1     -23.366 104.554 -14.806  0.00  0.00    +0.000 C 
ATOM     19  C   UNL     1     -23.761 103.592 -15.755  0.00  0.00    +0.000 C 
ATOM     20  C   UNL     1     -24.254 100.798 -13.117  0.00  0.00    +0.000 C 
ATOM     21  C   UNL     1     -24.274 105.496 -12.696  0.00  0.00    +0.000 C 
ATOM     22  C   UNL     1     -21.728 105.264 -13.029  0.00  0.00    +0.000 C 
BRANCH  19  23
ATOM     23  O   UNL     1     -24.586 103.913 -16.790  0.00  0.00    +0.000 OA
ATOM     24  H   UNL     1     -25.417 104.322 -16.490  0.00  0.00    +0.000 HD
ENDBRANCH  19  23
ENDBRANCH  11  14
ENDBRANCH   6  12
ENDBRANCH   1   2
BRANCH   1  25
ATOM     25  C   UNL     1     -23.409 103.421  -1.796  0.00  0.00    +0.000 C 
ATOM     26  C   UNL     1     -23.596 102.916  -0.724  0.00  0.00    +0.000 C 
BRANCH  26  28
ATOM     27  C   UNL     1     -24.039 101.770   1.716  0.00  0.00    +0.000 C 
ATOM     28  C   UNL     1     -23.842 102.275   0.646  0.00  0.00    +0.000 C 
BRANCH  27  29
ATOM     29  C   UNL     1     -24.297 101.124   3.083  0.00  0.00    +0.000 C 
BRANCH  29  30
ATOM     30  C   UNL     1     -24.509 100.570   4.234  0.00  0.00    +0.000 C 
ATOM     31  C   UNL     1     -25.898 100.181   4.644  0.00  0.00    +0.000 C 
BRANCH  30  33
ATOM     32  C   UNL     1     -22.516 100.219   5.898  0.00  0.00    +0.000 C 
ATOM     33  C   UNL     1     -23.432 100.380   5.136  0.00  0.00    +0.000 C 
BRANCH  32  39
ATOM     34  C   UNL     1     -21.403 100.815   8.064  0.00  0.00    +0.000 C 
ATOM     35  C   UNL     1     -20.359  99.115   6.395  0.00  0.00    +0.000 C 
ATOM     36  C   UNL     1     -20.375 100.228   8.935  0.00  0.00    +0.000 C 
ATOM     37  C   UNL     1     -19.384  99.227   8.892  0.00  0.00    +0.000 C 
ATOM     38  C   UNL     1     -19.542  98.793   7.559  0.00  0.00    +0.000 C 
ATOM     39  C   UNL     1     -21.511 100.048   6.733  0.00  0.00    +0.000 C 
ATOM     40  C   UNL     1     -22.770 100.735   8.811  0.00  0.00    +0.000 C 
ATOM     41  C   UNL     1     -21.053 102.296   7.756  0.00  0.00    +0.000 C 
ATOM     42  C   UNL     1     -19.508  99.686   5.256  0.00  0.00    +0.000 C 
BRANCH  35  43
ATOM     43  O   UNL     1     -20.878  97.904   5.889  0.00  0.00    +0.000 OA
ATOM     44  H   UNL     1     -21.582  98.229   5.297  0.00  0.00    +0.000 HD
ENDBRANCH  35  43
BRANCH  37  45
ATOM     45  O   UNL     1     -18.120  99.506   9.395  0.00  0.00    +0.000 OA
BRANCH  45  47
ATOM     46  O   UNL     1     -18.332  99.243  11.716  0.00  0.00    +0.000 OA
ATOM     47  C   UNL     1     -17.963  98.913  10.604  0.00  0.00    +0.000 C 
ATOM     48  C   UNL     1     -17.193  97.641  10.564  0.00  0.00    +0.000 C 
ENDBRANCH  45  47
ENDBRANCH  37  45
ENDBRANCH  32  39
ENDBRANCH  30  33
ENDBRANCH  29  30
ENDBRANCH  27  29
ENDBRANCH  26  28
ENDBRANCH   1  25
TORSDOF 13
ENDMDL
MODEL 9
REMARK VINA RESULT:      -5.8     20.076     25.047
REMARK  Name = 5289155_Peridinin.pdbqt.pdb
REMARK  13 active torsions:
REMARK  status: ('A' for Active; 'I' for Inactive)
REMARK    1  A    between atoms: C_1  and  C_3
REMARK    2  A    between atoms: C_3  and  C_25
REMARK    3  A    between atoms: C_6  and  C_12
REMARK    4  A    between atoms: C_11  and  C_14
REMARK    5  A    between atoms: C_19  and  O_23
REMARK    6  A    between atoms: C_26  and  C_28
REMARK    7  A    between atoms: C_27  and  C_31
REMARK    8  A    between atoms: C_29  and  C_31
REMARK    9  A    between atoms: C_29  and  C_42
REMARK   10  A    between atoms: C_33  and  O_43
REMARK   11  A    between atoms: C_35  and  O_45
REMARK   12  A    between atoms: C_37  and  C_41
REMARK   13  A    between atoms: O_45  and  C_47
REMARK                            x       y       z     vdW  Elec       q    Type
REMARK                         _______ _______ _______ _____ _____    ______ ____
ROOT
ATOM      1  C   UNL     1     -29.894  80.915   7.538  0.00  0.00    +0.000 C 
ENDROOT
BRANCH   1   2
ATOM      2  C   UNL     1     -30.349  81.176   8.723  0.00  0.00    +0.000 C 
ATOM      3  C   UNL     1     -31.612  80.532   9.204  0.00  0.00    +0.000 C 
ATOM      4  O   UNL     1     -28.175  83.830   9.828  0.00  0.00    +0.000 OA
ATOM      5  O   UNL     1     -27.302  85.709  10.868  0.00  0.00    +0.000 OA
ATOM      6  C   UNL     1     -28.741  84.176  12.058  0.00  0.00    +0.000 C 
ATOM      7  C   UNL     1     -29.320  83.091  11.693  0.00  0.00    +0.000 C 
ATOM      8  C   UNL     1     -27.978  84.697  10.899  0.00  0.00    +0.000 C 
ATOM      9  C   UNL     1     -28.979  82.831  10.368  0.00  0.00    +0.000 C 
ATOM     10  C   UNL     1     -29.633  82.042   9.580  0.00  0.00    +0.000 C 
BRANCH   6  12
ATOM     11  C   UNL     1     -28.946  85.227  14.437  0.00  0.00    +0.000 C 
ATOM     12  C   UNL     1     -28.857  84.744  13.340  0.00  0.00    +0.000 C 
BRANCH  11  14
ATOM     13  O   UNL     1     -27.742  86.303  16.190  0.00  0.00    +0.000 OA
ATOM     14  C   UNL     1     -29.044  85.806  15.767  0.00  0.00    +0.000 C 
ATOM     15  C   UNL     1     -28.730  87.304  15.965  0.00  0.00    +0.000 C 
ATOM     16  C   UNL     1     -29.906  85.084  16.861  0.00  0.00    +0.000 C 
ATOM     17  C   UNL     1     -29.172  87.910  17.180  0.00  0.00    +0.000 C 
ATOM     18  C   UNL     1     -30.074  86.030  17.968  0.00  0.00    +0.000 C 
ATOM     19  C   UNL     1     -29.839  87.378  18.297  0.00  0.00    +0.000 C 
ATOM     20  C   UNL     1     -28.390  88.255  14.813  0.00  0.00    +0.000 C 
ATOM     21  C   UNL     1     -31.271  84.782  16.187  0.00  0.00    +0.000 C 
ATOM     22  C   UNL     1     -29.137  83.804  17.254  0.00  0.00    +0.000 C 
BRANCH  19  23
ATOM     23  O   UNL     1     -30.734  88.098  19.031  0.00  0.00    +0.000 OA
ATOM     24  H   UNL     1     -31.577  88.231  18.561  0.00  0.00    +0.000 HD
ENDBRANCH  19  23
ENDBRANCH  11  14
ENDBRANCH   6  12
ENDBRANCH   1   2
BRANCH   1  25
ATOM     25  C   UNL     1     -29.357  80.605   6.136  0.00  0.00    +0.000 C 
ATOM     26  C   UNL     1     -28.936  80.357   5.040  0.00  0.00    +0.000 C 
BRANCH  26  28
ATOM     27  C   UNL     1     -27.976  79.784   2.548  0.00  0.00    +0.000 C 
ATOM     28  C   UNL     1     -28.399  80.033   3.642  0.00  0.00    +0.000 C 
BRANCH  27  29
ATOM     29  C   UNL     1     -27.435  79.474   1.147  0.00  0.00    +0.000 C 
BRANCH  29  30
ATOM     30  C   UNL     1     -26.970  79.205  -0.032  0.00  0.00    +0.000 C 
ATOM     31  C   UNL     1     -27.315  77.911  -0.705  0.00  0.00    +0.000 C 
BRANCH  30  33
ATOM     32  C   UNL     1     -25.340  80.887  -1.208  0.00  0.00    +0.000 C 
ATOM     33  C   UNL     1     -26.087  80.114  -0.668  0.00  0.00    +0.000 C 
BRANCH  32  39
ATOM     34  C   UNL     1     -24.626  82.082  -3.292  0.00  0.00    +0.000 C 
ATOM     35  C   UNL     1     -23.384  82.390  -1.027  0.00  0.00    +0.000 C 
ATOM     36  C   UNL     1     -23.818  83.263  -3.623  0.00  0.00    +0.000 C 
ATOM     37  C   UNL     1     -22.896  84.134  -3.007  0.00  0.00    +0.000 C 
ATOM     38  C   UNL     1     -22.823  83.538  -1.731  0.00  0.00    +0.000 C 
ATOM     39  C   UNL     1     -24.523  81.738  -1.795  0.00  0.00    +0.000 C 
ATOM     40  C   UNL     1     -26.112  82.401  -3.642  0.00  0.00    +0.000 C 
ATOM     41  C   UNL     1     -24.138  80.860  -4.116  0.00  0.00    +0.000 C 
ATOM     42  C   UNL     1     -22.301  81.365  -0.679  0.00  0.00    +0.000 C 
BRANCH  35  43
ATOM     43  O   UNL     1     -23.867  82.846   0.218  0.00  0.00    +0.000 OA
ATOM     44  H   UNL     1     -23.056  82.827   0.758  0.00  0.00    +0.000 HD
ENDBRANCH  35  43
BRANCH  37  45
ATOM     45  O   UNL     1     -21.736  84.482  -3.687  0.00  0.00    +0.000 OA
BRANCH  45  47
ATOM     46  O   UNL     1     -22.689  86.459  -4.514  0.00  0.00    +0.000 OA
ATOM     47  C   UNL     1     -21.787  85.787  -4.049  0.00  0.00    +0.000 C 
ATOM     48  C   UNL     1     -20.509  86.524  -3.854  0.00  0.00    +0.000 C 
ENDBRANCH  45  47
ENDBRANCH  37  45
ENDBRANCH  32  39
ENDBRANCH  30  33
ENDBRANCH  29  30
ENDBRANCH  27  29
ENDBRANCH  26  28
ENDBRANCH   1  25
TORSDOF 13
ENDMDL
