MODEL 1
REMARK VINA RESULT:      -6.3      0.000      0.000
REMARK  Name = 5318517_Andrographolide.pdbqt.pdb
REMARK  6 active torsions:
REMARK  status: ('A' for Active; 'I' for Inactive)
REMARK    1  A    between atoms: C_3  and  C_16
REMARK    2  A    between atoms: C_4  and  C_19
REMARK    3  A    between atoms: C_6  and  O_14
REMARK    4  A    between atoms: C_16  and  O_17
REMARK    5  A    between atoms: C_22  and  C_23
REMARK    6  A    between atoms: C_24  and  O_27
REMARK                            x       y       z     vdW  Elec       q    Type
REMARK                         _______ _______ _______ _____ _____    ______ ____
ROOT
ATOM      1  C   UNL     1     -33.999 100.032  15.435  0.00  0.00    +0.000 C 
ATOM      2  C   UNL     1     -33.842 100.663  14.018  0.00  0.00    +0.000 C 
ATOM      3  C   UNL     1     -35.048 101.030  13.136  0.00  0.00    +0.000 C 
ATOM      4  C   UNL     1     -32.852  99.102  15.923  0.00  0.00    +0.000 C 
ATOM      5  C   UNL     1     -35.252  99.285  15.369  0.00  0.00    +0.000 C 
ATOM      6  C   UNL     1     -36.378 100.258  13.394  0.00  0.00    +0.000 C 
ATOM      7  C   UNL     1     -32.486 100.818  13.611  0.00  0.00    +0.000 C 
ATOM      8  C   UNL     1     -36.426  99.330  14.451  0.00  0.00    +0.000 C 
ATOM      9  C   UNL     1     -34.117 101.208  16.452  0.00  0.00    +0.000 C 
ATOM     10  C   UNL     1     -31.348 100.162  14.324  0.00  0.00    +0.000 C 
ATOM     11  C   UNL     1     -31.478  99.318  15.447  0.00  0.00    +0.000 C 
ATOM     12  C   UNL     1     -34.664 100.720  11.644  0.00  0.00    +0.000 C 
ATOM     13  C   UNL     1     -30.409  98.618  15.830  0.00  0.00    +0.000 C 
ENDROOT
BRANCH   6  14
ATOM     14  O   UNL     1     -37.543 100.616  12.739  0.00  0.00    +0.000 OA
ATOM     15  H   UNL     1     -38.253  99.963  12.866  0.00  0.00    +0.000 HD
ENDBRANCH   6  14
BRANCH   4  16
ATOM     16  C   UNL     1     -33.103  98.114  16.934  0.00  0.00    +0.000 C 
ATOM     17  C   UNL     1     -33.371  97.068  18.020  0.00  0.00    +0.000 C 
BRANCH  17  20
ATOM     18  O   UNL     1     -33.158  94.518  20.498  0.00  0.00    +0.000 OA
ATOM     19  O   UNL     1     -31.448  95.017  18.992  0.00  0.00    +0.000 OA
ATOM     20  C   UNL     1     -33.606  96.186  18.941  0.00  0.00    +0.000 C 
ATOM     21  C   UNL     1     -34.802  96.034  19.729  0.00  0.00    +0.000 C 
ATOM     22  C   UNL     1     -32.570  95.195  19.432  0.00  0.00    +0.000 C 
ATOM     23  C   UNL     1     -34.372  95.036  20.606  0.00  0.00    +0.000 C 
BRANCH  21  24
ATOM     24  O   UNL     1     -35.527  97.131  20.100  0.00  0.00    +0.000 OA
ATOM     25  H   UNL     1     -35.223  97.936  19.645  0.00  0.00    +0.000 HD
ENDBRANCH  21  24
ENDBRANCH  17  20
ENDBRANCH   4  16
BRANCH   3  26
ATOM     26  C   UNL     1     -35.307 102.487  13.309  0.00  0.00    +0.000 C 
BRANCH  26  27
ATOM     27  O   UNL     1     -35.541 103.795  13.452  0.00  0.00    +0.000 OA
ATOM     28  H   UNL     1     -34.903 104.192  14.074  0.00  0.00    +0.000 HD
ENDBRANCH  26  27
ENDBRANCH   3  26
TORSDOF 6
ENDMDL
MODEL 2
REMARK VINA RESULT:      -6.1      2.058      3.124
REMARK  Name = 5318517_Andrographolide.pdbqt.pdb
REMARK  6 active torsions:
REMARK  status: ('A' for Active; 'I' for Inactive)
REMARK    1  A    between atoms: C_3  and  C_16
REMARK    2  A    between atoms: C_4  and  C_19
REMARK    3  A    between atoms: C_6  and  O_14
REMARK    4  A    between atoms: C_16  and  O_17
REMARK    5  A    between atoms: C_22  and  C_23
REMARK    6  A    between atoms: C_24  and  O_27
REMARK                            x       y       z     vdW  Elec       q    Type
REMARK                         _______ _______ _______ _____ _____    ______ ____
ROOT
ATOM      1  C   UNL     1     -35.002 100.716  15.445  0.00  0.00    +0.000 C 
ATOM      2  C   UNL     1     -35.866 101.031  14.186  0.00  0.00    +0.000 C 
ATOM      3  C   UNL     1     -37.379 100.750  14.129  0.00  0.00    +0.000 C 
ATOM      4  C   UNL     1     -33.504 100.376  15.202  0.00  0.00    +0.000 C 
ATOM      5  C   UNL     1     -35.673  99.585  16.079  0.00  0.00    +0.000 C 
ATOM      6  C   UNL     1     -37.932  99.642  15.075  0.00  0.00    +0.000 C 
ATOM      7  C   UNL     1     -35.116 101.553  13.095  0.00  0.00    +0.000 C 
ATOM      8  C   UNL     1     -37.046  99.015  15.970  0.00  0.00    +0.000 C 
ATOM      9  C   UNL     1     -35.057 101.972  16.366  0.00  0.00    +0.000 C 
ATOM     10  C   UNL     1     -33.622 101.509  13.048  0.00  0.00    +0.000 C 
ATOM     11  C   UNL     1     -32.799 100.944  14.044  0.00  0.00    +0.000 C 
ATOM     12  C   UNL     1     -37.723 100.270  12.672  0.00  0.00    +0.000 C 
ATOM     13  C   UNL     1     -31.509 100.763  13.760  0.00  0.00    +0.000 C 
ENDROOT
BRANCH   6  14
ATOM     14  O   UNL     1     -39.293  99.418  15.184  0.00  0.00    +0.000 OA
ATOM     15  H   UNL     1     -39.818 100.164  14.842  0.00  0.00    +0.000 HD
ENDBRANCH   6  14
BRANCH   4  16
ATOM     16  C   UNL     1     -32.770  99.613  16.172  0.00  0.00    +0.000 C 
ATOM     17  C   UNL     1     -31.984  98.791  17.198  0.00  0.00    +0.000 C 
BRANCH  17  20
ATOM     18  O   UNL     1     -30.717  96.273  19.375  0.00  0.00    +0.000 OA
ATOM     19  O   UNL     1     -32.808  96.173  18.346  0.00  0.00    +0.000 OA
ATOM     20  C   UNL     1     -31.311  98.099  18.062  0.00  0.00    +0.000 C 
ATOM     21  C   UNL     1     -30.012  98.398  18.611  0.00  0.00    +0.000 C 
ATOM     22  C   UNL     1     -31.757  96.744  18.577  0.00  0.00    +0.000 C 
ATOM     23  C   UNL     1     -29.797  97.225  19.339  0.00  0.00    +0.000 C 
BRANCH  21  24
ATOM     24  O   UNL     1     -29.067  99.018  17.846  0.00  0.00    +0.000 OA
ATOM     25  H   UNL     1     -28.470  99.568  18.383  0.00  0.00    +0.000 HD
ENDBRANCH  21  24
ENDBRANCH  17  20
ENDBRANCH   4  16
BRANCH   3  26
ATOM     26  C   UNL     1     -38.086 102.026  14.431  0.00  0.00    +0.000 C 
BRANCH  26  27
ATOM     27  O   UNL     1     -38.715 103.171  14.712  0.00  0.00    +0.000 OA
ATOM     28  H   UNL     1     -38.582 103.820  13.998  0.00  0.00    +0.000 HD
ENDBRANCH  26  27
ENDBRANCH   3  26
TORSDOF 6
ENDMDL
MODEL 3
REMARK VINA RESULT:      -6.1      2.980      4.835
REMARK  Name = 5318517_Andrographolide.pdbqt.pdb
REMARK  6 active torsions:
REMARK  status: ('A' for Active; 'I' for Inactive)
REMARK    1  A    between atoms: C_3  and  C_16
REMARK    2  A    between atoms: C_4  and  C_19
REMARK    3  A    between atoms: C_6  and  O_14
REMARK    4  A    between atoms: C_16  and  O_17
REMARK    5  A    between atoms: C_22  and  C_23
REMARK    6  A    between atoms: C_24  and  O_27
REMARK                            x       y       z     vdW  Elec       q    Type
REMARK                         _______ _______ _______ _____ _____    ______ ____
ROOT
ATOM      1  C   UNL     1     -30.873  99.684  16.270  0.00  0.00    +0.000 C 
ATOM      2  C   UNL     1     -30.632 101.090  15.641  0.00  0.00    +0.000 C 
ATOM      3  C   UNL     1     -29.481 102.010  16.087  0.00  0.00    +0.000 C 
ATOM      4  C   UNL     1     -32.338  99.164  16.290  0.00  0.00    +0.000 C 
ATOM      5  C   UNL     1     -30.366  99.799  17.634  0.00  0.00    +0.000 C 
ATOM      6  C   UNL     1     -28.923 101.804  17.527  0.00  0.00    +0.000 C 
ATOM      7  C   UNL     1     -31.600 101.450  14.661  0.00  0.00    +0.000 C 
ATOM      8  C   UNL     1     -29.443 100.756  18.309  0.00  0.00    +0.000 C 
ATOM      9  C   UNL     1     -30.022  98.664  15.454  0.00  0.00    +0.000 C 
ATOM     10  C   UNL     1     -32.882 100.702  14.480  0.00  0.00    +0.000 C 
ATOM     11  C   UNL     1     -33.284  99.591  15.249  0.00  0.00    +0.000 C 
ATOM     12  C   UNL     1     -30.008 103.491  16.048  0.00  0.00    +0.000 C 
ATOM     13  C   UNL     1     -34.547  99.177  15.136  0.00  0.00    +0.000 C 
ENDROOT
BRANCH   6  14
ATOM     14  O   UNL     1     -27.805 102.496  17.959  0.00  0.00    +0.000 OA
ATOM     15  H   UNL     1     -27.891 103.456  17.827  0.00  0.00    +0.000 HD
ENDBRANCH   6  14
BRANCH   4  16
ATOM     16  C   UNL     1     -32.739  98.169  17.245  0.00  0.00    +0.000 C 
ATOM     17  C   UNL     1     -33.175  97.105  18.256  0.00  0.00    +0.000 C 
BRANCH  17  20
ATOM     18  O   UNL     1     -33.351  94.360  20.519  0.00  0.00    +0.000 OA
ATOM     19  O   UNL     1     -31.587  94.713  19.035  0.00  0.00    +0.000 OA
ATOM     20  C   UNL     1     -33.541  96.197  19.106  0.00  0.00    +0.000 C 
ATOM     21  C   UNL     1     -34.746  96.166  19.896  0.00  0.00    +0.000 C 
ATOM     22  C   UNL     1     -32.668  95.023  19.503  0.00  0.00    +0.000 C 
ATOM     23  C   UNL     1     -34.472  95.046  20.685  0.00  0.00    +0.000 C 
BRANCH  21  24
ATOM     24  O   UNL     1     -35.294  97.326  20.363  0.00  0.00    +0.000 OA
ATOM     25  H   UNL     1     -35.245  98.041  19.704  0.00  0.00    +0.000 HD
ENDBRANCH  21  24
ENDBRANCH  17  20
ENDBRANCH   4  16
BRANCH   3  26
ATOM     26  C   UNL     1     -28.363 101.836  15.117  0.00  0.00    +0.000 C 
BRANCH  26  27
ATOM     27  O   UNL     1     -27.356 101.671  14.255  0.00  0.00    +0.000 OA
ATOM     28  H   UNL     1     -26.516 101.534  14.730  0.00  0.00    +0.000 HD
ENDBRANCH  26  27
ENDBRANCH   3  26
TORSDOF 6
ENDMDL
MODEL 4
REMARK VINA RESULT:      -5.8     14.556     19.071
REMARK  Name = 5318517_Andrographolide.pdbqt.pdb
REMARK  6 active torsions:
REMARK  status: ('A' for Active; 'I' for Inactive)
REMARK    1  A    between atoms: C_3  and  C_16
REMARK    2  A    between atoms: C_4  and  C_19
REMARK    3  A    between atoms: C_6  and  O_14
REMARK    4  A    between atoms: C_16  and  O_17
REMARK    5  A    between atoms: C_22  and  C_23
REMARK    6  A    between atoms: C_24  and  O_27
REMARK                            x       y       z     vdW  Elec       q    Type
REMARK                         _______ _______ _______ _____ _____    ______ ____
ROOT
ATOM      1  C   UNL     1     -39.689 103.858   1.350  0.00  0.00    +0.000 C 
ATOM      2  C   UNL     1     -38.627 103.322   2.358  0.00  0.00    +0.000 C 
ATOM      3  C   UNL     1     -37.171 103.820   2.370  0.00  0.00    +0.000 C 
ATOM      4  C   UNL     1     -40.833 102.885   0.949  0.00  0.00    +0.000 C 
ATOM      5  C   UNL     1     -38.918 104.234   0.169  0.00  0.00    +0.000 C 
ATOM      6  C   UNL     1     -36.611 104.409   1.040  0.00  0.00    +0.000 C 
ATOM      7  C   UNL     1     -39.124 102.306   3.223  0.00  0.00    +0.000 C 
ATOM      8  C   UNL     1     -37.473 104.520  -0.065  0.00  0.00    +0.000 C 
ATOM      9  C   UNL     1     -40.345 105.115   1.998  0.00  0.00    +0.000 C 
ATOM     10  C   UNL     1     -40.424 101.607   2.984  0.00  0.00    +0.000 C 
ATOM     11  C   UNL     1     -41.283 101.851   1.893  0.00  0.00    +0.000 C 
ATOM     12  C   UNL     1     -36.248 102.594   2.710  0.00  0.00    +0.000 C 
ATOM     13  C   UNL     1     -42.282 100.994   1.680  0.00  0.00    +0.000 C 
ENDROOT
BRANCH   6  14
ATOM     14  O   UNL     1     -35.359 104.999   0.999  0.00  0.00    +0.000 OA
ATOM     15  H   UNL     1     -35.168 105.516   1.801  0.00  0.00    +0.000 HD
ENDBRANCH   6  14
BRANCH   4  16
ATOM     16  C   UNL     1     -41.540 103.070  -0.287  0.00  0.00    +0.000 C 
ATOM     17  C   UNL     1     -42.291 103.256  -1.609  0.00  0.00    +0.000 C 
BRANCH  17  20
ATOM     18  O   UNL     1     -43.421 104.244  -4.838  0.00  0.00    +0.000 OA
ATOM     19  O   UNL     1     -41.805 105.399  -3.615  0.00  0.00    +0.000 OA
ATOM     20  C   UNL     1     -42.934 103.408  -2.724  0.00  0.00    +0.000 C 
ATOM     21  C   UNL     1     -43.967 102.563  -3.267  0.00  0.00    +0.000 C 
ATOM     22  C   UNL     1     -42.610 104.491  -3.734  0.00  0.00    +0.000 C 
ATOM     23  C   UNL     1     -44.127 103.172  -4.514  0.00  0.00    +0.000 C 
BRANCH  21  24
ATOM     24  O   UNL     1     -43.931 101.213  -3.064  0.00  0.00    +0.000 OA
ATOM     25  H   UNL     1     -43.969 100.720  -3.903  0.00  0.00    +0.000 HD
ENDBRANCH  21  24
ENDBRANCH  17  20
ENDBRANCH   4  16
BRANCH   3  26
ATOM     26  C   UNL     1     -37.058 104.859   3.432  0.00  0.00    +0.000 C 
BRANCH  26  27
ATOM     27  O   UNL     1     -36.969 105.792   4.385  0.00  0.00    +0.000 OA
ATOM     28  H   UNL     1     -37.243 106.662   4.040  0.00  0.00    +0.000 HD
ENDBRANCH  26  27
ENDBRANCH   3  26
TORSDOF 6
ENDMDL
MODEL 5
REMARK VINA RESULT:      -5.7     24.343     26.638
REMARK  Name = 5318517_Andrographolide.pdbqt.pdb
REMARK  6 active torsions:
REMARK  status: ('A' for Active; 'I' for Inactive)
REMARK    1  A    between atoms: C_3  and  C_16
REMARK    2  A    between atoms: C_4  and  C_19
REMARK    3  A    between atoms: C_6  and  O_14
REMARK    4  A    between atoms: C_16  and  O_17
REMARK    5  A    between atoms: C_22  and  C_23
REMARK    6  A    between atoms: C_24  and  O_27
REMARK                            x       y       z     vdW  Elec       q    Type
REMARK                         _______ _______ _______ _____ _____    ______ ____
ROOT
ATOM      1  C   UNL     1     -30.189  87.891  -8.340  0.00  0.00    +0.000 C 
ATOM      2  C   UNL     1     -31.718  87.592  -8.411  0.00  0.00    +0.000 C 
ATOM      3  C   UNL     1     -32.700  88.482  -9.194  0.00  0.00    +0.000 C 
ATOM      4  C   UNL     1     -29.439  87.420  -7.062  0.00  0.00    +0.000 C 
ATOM      5  C   UNL     1     -30.091  89.342  -8.470  0.00  0.00    +0.000 C 
ATOM      6  C   UNL     1     -32.284  89.966  -9.425  0.00  0.00    +0.000 C 
ATOM      7  C   UNL     1     -32.113  86.456  -7.649  0.00  0.00    +0.000 C 
ATOM      8  C   UNL     1     -31.021  90.392  -8.975  0.00  0.00    +0.000 C 
ATOM      9  C   UNL     1     -29.526  87.185  -9.562  0.00  0.00    +0.000 C 
ATOM     10  C   UNL     1     -31.218  85.808  -6.642  0.00  0.00    +0.000 C 
ATOM     11  C   UNL     1     -29.916  86.244  -6.321  0.00  0.00    +0.000 C 
ATOM     12  C   UNL     1     -34.044  88.543  -8.382  0.00  0.00    +0.000 C 
ATOM     13  C   UNL     1     -29.331  85.721  -5.242  0.00  0.00    +0.000 C 
ENDROOT
BRANCH   6  14
ATOM     14  O   UNL     1     -33.044  90.798 -10.230  0.00  0.00    +0.000 OA
ATOM     15  H   UNL     1     -33.330  91.602  -9.763  0.00  0.00    +0.000 HD
ENDBRANCH   6  14
BRANCH   4  16
ATOM     16  C   UNL     1     -28.209  88.051  -6.672  0.00  0.00    +0.000 C 
ATOM     17  C   UNL     1     -26.903  88.734  -6.256  0.00  0.00    +0.000 C 
BRANCH  17  20
ATOM     18  O   UNL     1     -24.415  90.835  -4.814  0.00  0.00    +0.000 OA
ATOM     19  O   UNL     1     -26.695  91.328  -4.816  0.00  0.00    +0.000 OA
ATOM     20  C   UNL     1     -25.801  89.313  -5.896  0.00  0.00    +0.000 C 
ATOM     21  C   UNL     1     -24.456  88.820  -6.052  0.00  0.00    +0.000 C 
ATOM     22  C   UNL     1     -25.756  90.613  -5.118  0.00  0.00    +0.000 C 
ATOM     23  C   UNL     1     -23.767  89.811  -5.348  0.00  0.00    +0.000 C 
BRANCH  21  24
ATOM     24  O   UNL     1     -24.196  87.482  -5.959  0.00  0.00    +0.000 OA
ATOM     25  H   UNL     1     -24.770  87.048  -5.304  0.00  0.00    +0.000 HD
ENDBRANCH  21  24
ENDBRANCH  17  20
ENDBRANCH   4  16
BRANCH   3  26
ATOM     26  C   UNL     1     -32.928  87.843 -10.521  0.00  0.00    +0.000 C 
BRANCH  26  27
ATOM     27  O   UNL     1     -33.145  87.269 -11.708  0.00  0.00    +0.000 OA
ATOM     28  H   UNL     1     -33.328  87.943 -12.387  0.00  0.00    +0.000 HD
ENDBRANCH  26  27
ENDBRANCH   3  26
TORSDOF 6
ENDMDL
MODEL 6
REMARK VINA RESULT:      -5.7      2.586      6.924
REMARK  Name = 5318517_Andrographolide.pdbqt.pdb
REMARK  6 active torsions:
REMARK  status: ('A' for Active; 'I' for Inactive)
REMARK    1  A    between atoms: C_3  and  C_16
REMARK    2  A    between atoms: C_4  and  C_19
REMARK    3  A    between atoms: C_6  and  O_14
REMARK    4  A    between atoms: C_16  and  O_17
REMARK    5  A    between atoms: C_22  and  C_23
REMARK    6  A    between atoms: C_24  and  O_27
REMARK                            x       y       z     vdW  Elec       q    Type
REMARK                         _______ _______ _______ _____ _____    ______ ____
ROOT
ATOM      1  C   UNL     1     -32.110  99.087  16.729  0.00  0.00    +0.000 C 
ATOM      2  C   UNL     1     -30.791  99.484  17.460  0.00  0.00    +0.000 C 
ATOM      3  C   UNL     1     -30.608  99.326  18.980  0.00  0.00    +0.000 C 
ATOM      4  C   UNL     1     -32.461  99.874  15.435  0.00  0.00    +0.000 C 
ATOM      5  C   UNL     1     -33.157  99.278  17.728  0.00  0.00    +0.000 C 
ATOM      6  C   UNL     1     -31.898  99.323  19.855  0.00  0.00    +0.000 C 
ATOM      7  C   UNL     1     -29.807 100.043  16.598  0.00  0.00    +0.000 C 
ATOM      8  C   UNL     1     -33.148  99.392  19.214  0.00  0.00    +0.000 C 
ATOM      9  C   UNL     1     -31.987  97.581  16.345  0.00  0.00    +0.000 C 
ATOM     10  C   UNL     1     -30.114 100.493  15.205  0.00  0.00    +0.000 C 
ATOM     11  C   UNL     1     -31.387 100.434  14.601  0.00  0.00    +0.000 C 
ATOM     12  C   UNL     1     -29.756 100.545  19.490  0.00  0.00    +0.000 C 
ATOM     13  C   UNL     1     -31.563 101.085  13.450  0.00  0.00    +0.000 C 
ENDROOT
BRANCH   6  14
ATOM     14  O   UNL     1     -31.833  99.054  21.211  0.00  0.00    +0.000 OA
ATOM     15  H   UNL     1     -32.491  99.561  21.720  0.00  0.00    +0.000 HD
ENDBRANCH   6  14
BRANCH   4  16
ATOM     16  C   UNL     1     -33.821  99.949  14.980  0.00  0.00    +0.000 C 
ATOM     17  C   UNL     1     -35.275 100.029  14.507  0.00  0.00    +0.000 C 
BRANCH  17  20
ATOM     18  O   UNL     1     -38.299 100.128  12.628  0.00  0.00    +0.000 OA
ATOM     19  O   UNL     1     -36.174 100.305  11.684  0.00  0.00    +0.000 OA
ATOM     20  C   UNL     1     -36.506 100.105  14.109  0.00  0.00    +0.000 C 
ATOM     21  C   UNL     1     -37.699 100.017  14.913  0.00  0.00    +0.000 C 
ATOM     22  C   UNL     1     -36.909 100.195  12.650  0.00  0.00    +0.000 C 
ATOM     23  C   UNL     1     -38.658 100.022  13.899  0.00  0.00    +0.000 C 
BRANCH  21  24
ATOM     24  O   UNL     1     -37.733  99.200  16.007  0.00  0.00    +0.000 OA
ATOM     25  H   UNL     1     -36.870  99.159  16.455  0.00  0.00    +0.000 HD
ENDBRANCH  21  24
ENDBRANCH  17  20
ENDBRANCH   4  16
BRANCH   3  26
ATOM     26  C   UNL     1     -29.874  98.050  19.216  0.00  0.00    +0.000 C 
BRANCH  26  27
ATOM     27  O   UNL     1     -29.208  96.910  19.419  0.00  0.00    +0.000 OA
ATOM     28  H   UNL     1     -28.504  96.801  18.754  0.00  0.00    +0.000 HD
ENDBRANCH  26  27
ENDBRANCH   3  26
TORSDOF 6
ENDMDL
MODEL 7
REMARK VINA RESULT:      -5.6      9.967     12.890
REMARK  Name = 5318517_Andrographolide.pdbqt.pdb
REMARK  6 active torsions:
REMARK  status: ('A' for Active; 'I' for Inactive)
REMARK    1  A    between atoms: C_3  and  C_16
REMARK    2  A    between atoms: C_4  and  C_19
REMARK    3  A    between atoms: C_6  and  O_14
REMARK    4  A    between atoms: C_16  and  O_17
REMARK    5  A    between atoms: C_22  and  C_23
REMARK    6  A    between atoms: C_24  and  O_27
REMARK                            x       y       z     vdW  Elec       q    Type
REMARK                         _______ _______ _______ _____ _____    ______ ____
ROOT
ATOM      1  C   UNL     1     -31.094  89.583  19.655  0.00  0.00    +0.000 C 
ATOM      2  C   UNL     1     -32.052  89.384  20.869  0.00  0.00    +0.000 C 
ATOM      3  C   UNL     1     -31.545  89.303  22.320  0.00  0.00    +0.000 C 
ATOM      4  C   UNL     1     -31.548  88.983  18.294  0.00  0.00    +0.000 C 
ATOM      5  C   UNL     1     -29.836  88.973  20.075  0.00  0.00    +0.000 C 
ATOM      6  C   UNL     1     -30.072  88.842  22.533  0.00  0.00    +0.000 C 
ATOM      7  C   UNL     1     -33.419  89.239  20.498  0.00  0.00    +0.000 C 
ATOM      8  C   UNL     1     -29.271  88.596  21.402  0.00  0.00    +0.000 C 
ATOM      9  C   UNL     1     -30.917  91.120  19.456  0.00  0.00    +0.000 C 
ATOM     10  C   UNL     1     -33.852  88.989  19.089  0.00  0.00    +0.000 C 
ATOM     11  C   UNL     1     -32.980  88.853  17.989  0.00  0.00    +0.000 C 
ATOM     12  C   UNL     1     -32.430  88.249  23.079  0.00  0.00    +0.000 C 
ATOM     13  C   UNL     1     -33.487  88.399  16.842  0.00  0.00    +0.000 C 
ENDROOT
BRANCH   6  14
ATOM     14  O   UNL     1     -29.496  88.869  23.791  0.00  0.00    +0.000 OA
ATOM     15  H   UNL     1     -30.156  88.780  24.501  0.00  0.00    +0.000 HD
ENDBRANCH   6  14
BRANCH   4  16
ATOM     16  C   UNL     1     -30.578  88.672  17.282  0.00  0.00    +0.000 C 
ATOM     17  C   UNL     1     -29.540  88.331  16.209  0.00  0.00    +0.000 C 
BRANCH  17  20
ATOM     18  O   UNL     1     -27.651  86.825  13.592  0.00  0.00    +0.000 OA
ATOM     19  O   UNL     1     -29.331  85.729  14.783  0.00  0.00    +0.000 OA
ATOM     20  C   UNL     1     -28.666  88.036  15.299  0.00  0.00    +0.000 C 
ATOM     21  C   UNL     1     -27.654  88.895  14.737  0.00  0.00    +0.000 C 
ATOM     22  C   UNL     1     -28.637  86.707  14.568  0.00  0.00    +0.000 C 
ATOM     23  C   UNL     1     -27.165  88.048  13.740  0.00  0.00    +0.000 C 
BRANCH  21  24
ATOM     24  O   UNL     1     -27.898  90.228  14.570  0.00  0.00    +0.000 OA
ATOM     25  H   UNL     1     -27.129  90.770  14.819  0.00  0.00    +0.000 HD
ENDBRANCH  21  24
ENDBRANCH  17  20
ENDBRANCH   4  16
BRANCH   3  26
ATOM     26  C   UNL     1     -31.712  90.652  22.932  0.00  0.00    +0.000 C 
BRANCH  26  27
ATOM     27  O   UNL     1     -31.873  91.858  23.484  0.00  0.00    +0.000 OA
ATOM     28  H   UNL     1     -32.815  92.031  23.662  0.00  0.00    +0.000 HD
ENDBRANCH  26  27
ENDBRANCH   3  26
TORSDOF 6
ENDMDL
MODEL 8
REMARK VINA RESULT:      -5.6      2.984      5.575
REMARK  Name = 5318517_Andrographolide.pdbqt.pdb
REMARK  6 active torsions:
REMARK  status: ('A' for Active; 'I' for Inactive)
REMARK    1  A    between atoms: C_3  and  C_16
REMARK    2  A    between atoms: C_4  and  C_19
REMARK    3  A    between atoms: C_6  and  O_14
REMARK    4  A    between atoms: C_16  and  O_17
REMARK    5  A    between atoms: C_22  and  C_23
REMARK    6  A    between atoms: C_24  and  O_27
REMARK                            x       y       z     vdW  Elec       q    Type
REMARK                         _______ _______ _______ _____ _____    ______ ____
ROOT
ATOM      1  C   UNL     1     -35.389 100.132  15.296  0.00  0.00    +0.000 C 
ATOM      2  C   UNL     1     -36.853  99.997  15.812  0.00  0.00    +0.000 C 
ATOM      3  C   UNL     1     -37.936 101.049  15.514  0.00  0.00    +0.000 C 
ATOM      4  C   UNL     1     -34.275  99.473  16.159  0.00  0.00    +0.000 C 
ATOM      5  C   UNL     1     -35.162 101.571  15.203  0.00  0.00    +0.000 C 
ATOM      6  C   UNL     1     -37.453 102.498  15.207  0.00  0.00    +0.000 C 
ATOM      7  C   UNL     1     -37.071  98.841  16.615  0.00  0.00    +0.000 C 
ATOM      8  C   UNL     1     -36.071 102.751  15.148  0.00  0.00    +0.000 C 
ATOM      9  C   UNL     1     -35.337  99.477  13.882  0.00  0.00    +0.000 C 
ATOM     10  C   UNL     1     -35.951  98.017  17.164  0.00  0.00    +0.000 C 
ATOM     11  C   UNL     1     -34.580  98.288  16.973  0.00  0.00    +0.000 C 
ATOM     12  C   UNL     1     -38.850 101.170  16.787  0.00  0.00    +0.000 C 
ATOM     13  C   UNL     1     -33.700  97.612  17.714  0.00  0.00    +0.000 C 
ENDROOT
BRANCH   6  14
ATOM     14  O   UNL     1     -38.349 103.472  14.800  0.00  0.00    +0.000 OA
ATOM     15  H   UNL     1     -39.246 103.315  15.143  0.00  0.00    +0.000 HD
ENDBRANCH   6  14
BRANCH   4  16
ATOM     16  C   UNL     1     -32.919  99.938  16.067  0.00  0.00    +0.000 C 
ATOM     17  C   UNL     1     -31.478 100.444  15.966  0.00  0.00    +0.000 C 
BRANCH  17  20
ATOM     18  O   UNL     1     -27.966 100.959  16.270  0.00  0.00    +0.000 OA
ATOM     19  O   UNL     1     -29.198  99.534  17.647  0.00  0.00    +0.000 OA
ATOM     20  C   UNL     1     -30.259 100.878  15.887  0.00  0.00    +0.000 C 
ATOM     21  C   UNL     1     -29.723 101.835  14.952  0.00  0.00    +0.000 C 
ATOM     22  C   UNL     1     -29.124 100.342  16.737  0.00  0.00    +0.000 C 
ATOM     23  C   UNL     1     -28.371 101.753  15.291  0.00  0.00    +0.000 C 
BRANCH  21  24
ATOM     24  O   UNL     1     -30.199 101.888  13.672  0.00  0.00    +0.000 OA
ATOM     25  H   UNL     1     -30.332 102.805  13.374  0.00  0.00    +0.000 HD
ENDBRANCH  21  24
ENDBRANCH  17  20
ENDBRANCH   4  16
BRANCH   3  26
ATOM     26  C   UNL     1     -38.733 100.560  14.353  0.00  0.00    +0.000 C 
BRANCH  26  27
ATOM     27  O   UNL     1     -39.458 100.126  13.318  0.00  0.00    +0.000 OA
ATOM     28  H   UNL     1     -38.925 100.126  12.502  0.00  0.00    +0.000 HD
ENDBRANCH  26  27
ENDBRANCH   3  26
TORSDOF 6
ENDMDL
MODEL 9
REMARK VINA RESULT:      -5.5     27.136     31.100
REMARK  Name = 5318517_Andrographolide.pdbqt.pdb
REMARK  6 active torsions:
REMARK  status: ('A' for Active; 'I' for Inactive)
REMARK    1  A    between atoms: C_3  and  C_16
REMARK    2  A    between atoms: C_4  and  C_19
REMARK    3  A    between atoms: C_6  and  O_14
REMARK    4  A    between atoms: C_16  and  O_17
REMARK    5  A    between atoms: C_22  and  C_23
REMARK    6  A    between atoms: C_24  and  O_27
REMARK                            x       y       z     vdW  Elec       q    Type
REMARK                         _______ _______ _______ _____ _____    ______ ____
ROOT
ATOM      1  C   UNL     1     -31.414  96.233 -15.415  0.00  0.00    +0.000 C 
ATOM      2  C   UNL     1     -30.264  95.251 -15.791  0.00  0.00    +0.000 C 
ATOM      3  C   UNL     1     -30.516  93.771 -16.129  0.00  0.00    +0.000 C 
ATOM      4  C   UNL     1     -31.051  97.411 -14.467  0.00  0.00    +0.000 C 
ATOM      5  C   UNL     1     -32.431  95.389 -14.794  0.00  0.00    +0.000 C 
ATOM      6  C   UNL     1     -31.805  93.118 -15.544  0.00  0.00    +0.000 C 
ATOM      7  C   UNL     1     -28.970  95.843 -15.744  0.00  0.00    +0.000 C 
ATOM      8  C   UNL     1     -32.694  93.921 -14.807  0.00  0.00    +0.000 C 
ATOM      9  C   UNL     1     -31.949  96.846 -16.745  0.00  0.00    +0.000 C 
ATOM     10  C   UNL     1     -28.711  97.168 -15.102  0.00  0.00    +0.000 C 
ATOM     11  C   UNL     1     -29.688  97.962 -14.466  0.00  0.00    +0.000 C 
ATOM     12  C   UNL     1     -29.319  92.935 -15.547  0.00  0.00    +0.000 C 
ATOM     13  C   UNL     1     -29.274  98.997 -13.735  0.00  0.00    +0.000 C 
ENDROOT
BRANCH   6  14
ATOM     14  O   UNL     1     -32.176  91.834 -15.906  0.00  0.00    +0.000 OA
ATOM     15  H   UNL     1     -32.186  91.712 -16.871  0.00  0.00    +0.000 HD
ENDBRANCH   6  14
BRANCH   4  16
ATOM     16  C   UNL     1     -32.072  98.049 -13.683  0.00  0.00    +0.000 C 
ATOM     17  C   UNL     1     -33.161  98.720 -12.841  0.00  0.00    +0.000 C 
BRANCH  17  20
ATOM     18  O   UNL     1     -35.786 100.769 -11.577  0.00  0.00    +0.000 OA
ATOM     19  O   UNL     1     -34.576 101.250 -13.513  0.00  0.00    +0.000 OA
ATOM     20  C   UNL     1     -34.077  99.289 -12.122  0.00  0.00    +0.000 C 
ATOM     21  C   UNL     1     -34.651  98.812 -10.889  0.00  0.00    +0.000 C 
ATOM     22  C   UNL     1     -34.801 100.554 -12.538  0.00  0.00    +0.000 C 
ATOM     23  C   UNL     1     -35.648  99.774 -10.715  0.00  0.00    +0.000 C 
BRANCH  21  24
ATOM     24  O   UNL     1     -34.823  97.472 -10.682  0.00  0.00    +0.000 OA
ATOM     25  H   UNL     1     -34.609  97.218  -9.767  0.00  0.00    +0.000 HD
ENDBRANCH  21  24
ENDBRANCH  17  20
ENDBRANCH   4  16
BRANCH   3  26
ATOM     26  C   UNL     1     -30.556  93.647 -17.614  0.00  0.00    +0.000 C 
BRANCH  26  27
ATOM     27  O   UNL     1     -30.604  93.531 -18.944  0.00  0.00    +0.000 OA
ATOM     28  H   UNL     1     -31.471  93.189 -19.228  0.00  0.00    +0.000 HD
ENDBRANCH  26  27
ENDBRANCH   3  26
TORSDOF 6
ENDMDL
