MODEL 1
REMARK VINA RESULT:      -7.5      0.000      0.000
REMARK  Name = 5326018_Caulerpin.pdbqt.pdb
REMARK  4 active torsions:
REMARK  status: ('A' for Active; 'I' for Inactive)
REMARK    1  A    between atoms: C_11  and  C_26
REMARK    2  A    between atoms: C_12  and  C_30
REMARK    3  A    between atoms: C_26  and  O_27
REMARK    4  A    between atoms: C_30  and  O_31
REMARK                            x       y       z     vdW  Elec       q    Type
REMARK                         _______ _______ _______ _____ _____    ______ ____
ROOT
ATOM      1  N   UNL     1     -30.571  99.546  16.478  0.00  0.00    +0.000 N 
ATOM      2  N   UNL     1     -36.842 100.699  15.053  0.00  0.00    +0.000 N 
ATOM      3  C   UNL     1     -32.033 100.489  15.105  0.00  0.00    +0.000 C 
ATOM      4  C   UNL     1     -35.373  99.459  16.157  0.00  0.00    +0.000 C 
ATOM      5  C   UNL     1     -31.892  99.508  16.085  0.00  0.00    +0.000 C 
ATOM      6  C   UNL     1     -35.511 100.336  15.084  0.00  0.00    +0.000 C 
ATOM      7  C   UNL     1     -30.770 101.079  14.859  0.00  0.00    +0.000 A 
ATOM      8  C   UNL     1     -36.645  99.239  16.740  0.00  0.00    +0.000 A 
ATOM      9  C   UNL     1     -29.869 100.466  15.729  0.00  0.00    +0.000 A 
ATOM     10  C   UNL     1     -37.549 100.024  16.026  0.00  0.00    +0.000 A 
ATOM     11  C   UNL     1     -32.844  98.631  16.714  0.00  0.00    +0.000 C 
ATOM     12  C   UNL     1     -34.552 100.902  14.172  0.00  0.00    +0.000 C 
ATOM     13  C   UNL     1     -34.110  98.924  16.562  0.00  0.00    +0.000 C 
ATOM     14  C   UNL     1     -33.291 100.810  14.506  0.00  0.00    +0.000 C 
ATOM     15  C   UNL     1     -30.302 102.086  13.995  0.00  0.00    +0.000 A 
ATOM     16  C   UNL     1     -37.119  98.464  17.815  0.00  0.00    +0.000 A 
ATOM     17  C   UNL     1     -28.513 100.807  15.779  0.00  0.00    +0.000 A 
ATOM     18  C   UNL     1     -38.914 100.073  16.330  0.00  0.00    +0.000 A 
ATOM     19  C   UNL     1     -28.950 102.435  14.027  0.00  0.00    +0.000 A 
ATOM     20  C   UNL     1     -38.479  98.497  18.128  0.00  0.00    +0.000 A 
ATOM     21  C   UNL     1     -28.074 101.803  14.904  0.00  0.00    +0.000 A 
ATOM     22  C   UNL     1     -39.358  99.287  17.395  0.00  0.00    +0.000 A 
ATOM     23  H   UNL     1     -30.144  98.999  17.215  0.00  0.00    +0.000 HD
ATOM     24  H   UNL     1     -37.273 101.369  14.428  0.00  0.00    +0.000 HD
ENDROOT
BRANCH  11  26
ATOM     25  O   UNL     1     -31.448  97.157  17.980  0.00  0.00    +0.000 OA
ATOM     26  C   UNL     1     -32.514  97.354  17.409  0.00  0.00    +0.000 C 
BRANCH  26  27
ATOM     27  O   UNL     1     -33.582  96.510  17.309  0.00  0.00    +0.000 OA
ATOM     28  C   UNL     1     -33.930  95.743  18.431  0.00  0.00    +0.000 C 
ENDBRANCH  26  27
ENDBRANCH  11  26
BRANCH  12  30
ATOM     29  O   UNL     1     -35.453 100.829  11.955  0.00  0.00    +0.000 OA
ATOM     30  C   UNL     1     -34.866 101.462  12.825  0.00  0.00    +0.000 C 
BRANCH  30  31
ATOM     31  O   UNL     1     -34.418 102.750  12.770  0.00  0.00    +0.000 OA
ATOM     32  C   UNL     1     -35.211 103.754  13.348  0.00  0.00    +0.000 C 
ENDBRANCH  30  31
ENDBRANCH  12  30
TORSDOF 4
ENDMDL
MODEL 2
REMARK VINA RESULT:      -7.5      2.761      7.161
REMARK  Name = 5326018_Caulerpin.pdbqt.pdb
REMARK  4 active torsions:
REMARK  status: ('A' for Active; 'I' for Inactive)
REMARK    1  A    between atoms: C_11  and  C_26
REMARK    2  A    between atoms: C_12  and  C_30
REMARK    3  A    between atoms: C_26  and  O_27
REMARK    4  A    between atoms: C_30  and  O_31
REMARK                            x       y       z     vdW  Elec       q    Type
REMARK                         _______ _______ _______ _____ _____    ______ ____
ROOT
ATOM      1  N   UNL     1     -33.045 100.980  14.071  0.00  0.00    +0.000 N 
ATOM      2  N   UNL     1     -31.457  98.025  19.677  0.00  0.00    +0.000 N 
ATOM      3  C   UNL     1     -33.497  99.376  15.532  0.00  0.00    +0.000 C 
ATOM      4  C   UNL     1     -30.818  99.341  18.012  0.00  0.00    +0.000 C 
ATOM      5  C   UNL     1     -32.493 100.236  15.093  0.00  0.00    +0.000 C 
ATOM      6  C   UNL     1     -31.757  98.380  18.378  0.00  0.00    +0.000 C 
ATOM      7  C   UNL     1     -34.645  99.556  14.723  0.00  0.00    +0.000 A 
ATOM      8  C   UNL     1     -29.902  99.522  19.076  0.00  0.00    +0.000 A 
ATOM      9  C   UNL     1     -34.334 100.564  13.812  0.00  0.00    +0.000 A 
ATOM     10  C   UNL     1     -30.322  98.682  20.107  0.00  0.00    +0.000 A 
ATOM     11  C   UNL     1     -31.154 100.474  15.563  0.00  0.00    +0.000 C 
ATOM     12  C   UNL     1     -32.901  97.838  17.693  0.00  0.00    +0.000 C 
ATOM     13  C   UNL     1     -30.852 100.014  16.750  0.00  0.00    +0.000 C 
ATOM     14  C   UNL     1     -33.329  98.494  16.645  0.00  0.00    +0.000 C 
ATOM     15  C   UNL     1     -35.927  98.976  14.684  0.00  0.00    +0.000 A 
ATOM     16  C   UNL     1     -28.767 100.328  19.277  0.00  0.00    +0.000 A 
ATOM     17  C   UNL     1     -35.242 101.024  12.853  0.00  0.00    +0.000 A 
ATOM     18  C   UNL     1     -29.659  98.601  21.336  0.00  0.00    +0.000 A 
ATOM     19  C   UNL     1     -36.844  99.419  13.729  0.00  0.00    +0.000 A 
ATOM     20  C   UNL     1     -28.089 100.256  20.495  0.00  0.00    +0.000 A 
ATOM     21  C   UNL     1     -36.504 100.425  12.830  0.00  0.00    +0.000 A 
ATOM     22  C   UNL     1     -28.529  99.405  21.504  0.00  0.00    +0.000 A 
ATOM     23  H   UNL     1     -32.603 101.738  13.567  0.00  0.00    +0.000 HD
ATOM     24  H   UNL     1     -31.976  97.387  20.267  0.00  0.00    +0.000 HD
ENDROOT
BRANCH  11  26
ATOM     25  O   UNL     1     -30.232 101.976  13.945  0.00  0.00    +0.000 OA
ATOM     26  C   UNL     1     -30.052 101.081  14.762  0.00  0.00    +0.000 C 
BRANCH  26  27
ATOM     27  O   UNL     1     -28.873 100.494  15.119  0.00  0.00    +0.000 OA
ATOM     28  C   UNL     1     -27.705 101.269  15.074  0.00  0.00    +0.000 C 
ENDBRANCH  26  27
ENDBRANCH  11  26
BRANCH  12  30
ATOM     29  O   UNL     1     -34.716  96.278  17.708  0.00  0.00    +0.000 OA
ATOM     30  C   UNL     1     -33.552  96.530  17.997  0.00  0.00    +0.000 C 
BRANCH  30  31
ATOM     31  O   UNL     1     -32.640  95.715  18.602  0.00  0.00    +0.000 OA
ATOM     32  C   UNL     1     -33.099  94.813  19.574  0.00  0.00    +0.000 C 
ENDBRANCH  30  31
ENDBRANCH  12  30
TORSDOF 4
ENDMDL
MODEL 3
REMARK VINA RESULT:      -7.3     13.233     17.172
REMARK  Name = 5326018_Caulerpin.pdbqt.pdb
REMARK  4 active torsions:
REMARK  status: ('A' for Active; 'I' for Inactive)
REMARK    1  A    between atoms: C_11  and  C_26
REMARK    2  A    between atoms: C_12  and  C_30
REMARK    3  A    between atoms: C_26  and  O_27
REMARK    4  A    between atoms: C_30  and  O_31
REMARK                            x       y       z     vdW  Elec       q    Type
REMARK                         _______ _______ _______ _____ _____    ______ ____
ROOT
ATOM      1  N   UNL     1     -46.100 101.112   4.829  0.00  0.00    +0.000 N 
ATOM      2  N   UNL     1     -40.366 101.706   1.755  0.00  0.00    +0.000 N 
ATOM      3  C   UNL     1     -44.982 100.994   2.919  0.00  0.00    +0.000 C 
ATOM      4  C   UNL     1     -41.589 102.189   3.539  0.00  0.00    +0.000 C 
ATOM      5  C   UNL     1     -44.942 101.528   4.206  0.00  0.00    +0.000 C 
ATOM      6  C   UNL     1     -41.666 101.784   2.210  0.00  0.00    +0.000 C 
ATOM      7  C   UNL     1     -46.207 100.305   2.744  0.00  0.00    +0.000 A 
ATOM      8  C   UNL     1     -40.233 102.422   3.874  0.00  0.00    +0.000 A 
ATOM      9  C   UNL     1     -46.891 100.398   3.955  0.00  0.00    +0.000 A 
ATOM     10  C   UNL     1     -39.487 102.117   2.736  0.00  0.00    +0.000 A 
ATOM     11  C   UNL     1     -43.939 102.289   4.902  0.00  0.00    +0.000 C 
ATOM     12  C   UNL     1     -42.780 101.405   1.380  0.00  0.00    +0.000 C 
ATOM     13  C   UNL     1     -42.740 102.307   4.381  0.00  0.00    +0.000 C 
ATOM     14  C   UNL     1     -43.908 101.140   1.987  0.00  0.00    +0.000 C 
ATOM     15  C   UNL     1     -46.796  99.595   1.682  0.00  0.00    +0.000 A 
ATOM     16  C   UNL     1     -39.560 102.847   5.034  0.00  0.00    +0.000 A 
ATOM     17  C   UNL     1     -48.148  99.818   4.161  0.00  0.00    +0.000 A 
ATOM     18  C   UNL     1     -38.092 102.217   2.696  0.00  0.00    +0.000 A 
ATOM     19  C   UNL     1     -48.053  99.014   1.869  0.00  0.00    +0.000 A 
ATOM     20  C   UNL     1     -38.169 102.958   5.009  0.00  0.00    +0.000 A 
ATOM     21  C   UNL     1     -48.714  99.127   3.087  0.00  0.00    +0.000 A 
ATOM     22  C   UNL     1     -37.451 102.650   3.859  0.00  0.00    +0.000 A 
ATOM     23  H   UNL     1     -46.361 101.279   5.793  0.00  0.00    +0.000 HD
ATOM     24  H   UNL     1     -40.060 101.388   0.844  0.00  0.00    +0.000 HD
ENDROOT
BRANCH  11  26
ATOM     25  O   UNL     1     -45.287 103.294   6.605  0.00  0.00    +0.000 OA
ATOM     26  C   UNL     1     -44.185 103.160   6.088  0.00  0.00    +0.000 C 
BRANCH  26  27
ATOM     27  O   UNL     1     -43.002 103.722   6.473  0.00  0.00    +0.000 OA
ATOM     28  C   UNL     1     -43.039 104.960   7.133  0.00  0.00    +0.000 C 
ENDBRANCH  26  27
ENDBRANCH  11  26
BRANCH  12  30
ATOM     29  O   UNL     1     -41.869 100.982  -0.793  0.00  0.00    +0.000 OA
ATOM     30  C   UNL     1     -42.790 101.418  -0.112  0.00  0.00    +0.000 C 
BRANCH  30  31
ATOM     31  O   UNL     1     -43.970 101.955  -0.539  0.00  0.00    +0.000 OA
ATOM     32  C   UNL     1     -43.953 102.769  -1.682  0.00  0.00    +0.000 C 
ENDBRANCH  30  31
ENDBRANCH  12  30
TORSDOF 4
ENDMDL
MODEL 4
REMARK VINA RESULT:      -7.0      1.891      2.699
REMARK  Name = 5326018_Caulerpin.pdbqt.pdb
REMARK  4 active torsions:
REMARK  status: ('A' for Active; 'I' for Inactive)
REMARK    1  A    between atoms: C_11  and  C_26
REMARK    2  A    between atoms: C_12  and  C_30
REMARK    3  A    between atoms: C_26  and  O_27
REMARK    4  A    between atoms: C_30  and  O_31
REMARK                            x       y       z     vdW  Elec       q    Type
REMARK                         _______ _______ _______ _____ _____    ______ ____
ROOT
ATOM      1  N   UNL     1     -32.627  97.940  17.254  0.00  0.00    +0.000 N 
ATOM      2  N   UNL     1     -38.708 100.116  16.266  0.00  0.00    +0.000 N 
ATOM      3  C   UNL     1     -34.045  98.976  15.902  0.00  0.00    +0.000 C 
ATOM      4  C   UNL     1     -37.369  98.756  17.395  0.00  0.00    +0.000 C 
ATOM      5  C   UNL     1     -33.970  98.114  16.994  0.00  0.00    +0.000 C 
ATOM      6  C   UNL     1     -37.471  99.505  16.225  0.00  0.00    +0.000 C 
ATOM      7  C   UNL     1     -32.734  99.272  15.458  0.00  0.00    +0.000 A 
ATOM      8  C   UNL     1     -38.581  98.863  18.119  0.00  0.00    +0.000 A 
ATOM      9  C   UNL     1     -31.863  98.606  16.320  0.00  0.00    +0.000 A 
ATOM     10  C   UNL     1     -39.406  99.717  17.387  0.00  0.00    +0.000 A 
ATOM     11  C   UNL     1     -34.985  97.524  17.827  0.00  0.00    +0.000 C 
ATOM     12  C   UNL     1     -36.540  99.757  15.157  0.00  0.00    +0.000 C 
ATOM     13  C   UNL     1     -36.185  98.038  17.753  0.00  0.00    +0.000 C 
ATOM     14  C   UNL     1     -35.285  99.461  15.382  0.00  0.00    +0.000 C 
ATOM     15  C   UNL     1     -32.196 100.055  14.420  0.00  0.00    +0.000 A 
ATOM     16  C   UNL     1     -39.058  98.333  19.332  0.00  0.00    +0.000 A 
ATOM     17  C   UNL     1     -30.471  98.678  16.195  0.00  0.00    +0.000 A 
ATOM     18  C   UNL     1     -40.693 100.069  17.805  0.00  0.00    +0.000 A 
ATOM     19  C   UNL     1     -30.809 100.133  14.277  0.00  0.00    +0.000 A 
ATOM     20  C   UNL     1     -40.343  98.669  19.762  0.00  0.00    +0.000 A 
ATOM     21  C   UNL     1     -29.965  99.455  15.150  0.00  0.00    +0.000 A 
ATOM     22  C   UNL     1     -41.144  99.521  19.008  0.00  0.00    +0.000 A 
ATOM     23  H   UNL     1     -32.222  97.414  18.019  0.00  0.00    +0.000 HD
ATOM     24  H   UNL     1     -39.080 100.776  15.595  0.00  0.00    +0.000 HD
ENDROOT
BRANCH  11  26
ATOM     25  O   UNL     1     -35.475  96.079  19.670  0.00  0.00    +0.000 OA
ATOM     26  C   UNL     1     -34.813  96.301  18.664  0.00  0.00    +0.000 C 
BRANCH  26  27
ATOM     27  O   UNL     1     -33.847  95.517  18.102  0.00  0.00    +0.000 OA
ATOM     28  C   UNL     1     -33.064  94.719  18.950  0.00  0.00    +0.000 C 
ENDBRANCH  26  27
ENDBRANCH  11  26
BRANCH  12  30
ATOM     29  O   UNL     1     -36.782  99.484  12.791  0.00  0.00    +0.000 OA
ATOM     30  C   UNL     1     -36.903 100.199  13.779  0.00  0.00    +0.000 C 
BRANCH  30  31
ATOM     31  O   UNL     1     -37.391 101.472  13.841  0.00  0.00    +0.000 OA
ATOM     32  C   UNL     1     -38.509 101.793  13.055  0.00  0.00    +0.000 C 
ENDBRANCH  30  31
ENDBRANCH  12  30
TORSDOF 4
ENDMDL
MODEL 5
REMARK VINA RESULT:      -6.7     12.601     16.035
REMARK  Name = 5326018_Caulerpin.pdbqt.pdb
REMARK  4 active torsions:
REMARK  status: ('A' for Active; 'I' for Inactive)
REMARK    1  A    between atoms: C_11  and  C_26
REMARK    2  A    between atoms: C_12  and  C_30
REMARK    3  A    between atoms: C_26  and  O_27
REMARK    4  A    between atoms: C_30  and  O_31
REMARK                            x       y       z     vdW  Elec       q    Type
REMARK                         _______ _______ _______ _____ _____    ______ ____
ROOT
ATOM      1  N   UNL     1     -44.563 103.124   6.439  0.00  0.00    +0.000 N 
ATOM      2  N   UNL     1     -39.680 101.955   2.259  0.00  0.00    +0.000 N 
ATOM      3  C   UNL     1     -43.937 102.300   4.479  0.00  0.00    +0.000 C 
ATOM      4  C   UNL     1     -40.408 103.104   4.009  0.00  0.00    +0.000 C 
ATOM      5  C   UNL     1     -43.554 103.167   5.500  0.00  0.00    +0.000 C 
ATOM      6  C   UNL     1     -40.827 102.352   2.916  0.00  0.00    +0.000 C 
ATOM      7  C   UNL     1     -45.221 101.780   4.774  0.00  0.00    +0.000 A 
ATOM      8  C   UNL     1     -38.997 103.219   3.978  0.00  0.00    +0.000 A 
ATOM      9  C   UNL     1     -45.593 102.316   6.006  0.00  0.00    +0.000 A 
ATOM     10  C   UNL     1     -38.565 102.494   2.868  0.00  0.00    +0.000 A 
ATOM     11  C   UNL     1     -42.357 103.938   5.711  0.00  0.00    +0.000 C 
ATOM     12  C   UNL     1     -42.131 101.922   2.483  0.00  0.00    +0.000 C 
ATOM     13  C   UNL     1     -41.316 103.627   4.983  0.00  0.00    +0.000 C 
ATOM     14  C   UNL     1     -43.103 102.012   3.354  0.00  0.00    +0.000 C 
ATOM     15  C   UNL     1     -46.099 100.891   4.126  0.00  0.00    +0.000 A 
ATOM     16  C   UNL     1     -38.038 103.852   4.790  0.00  0.00    +0.000 A 
ATOM     17  C   UNL     1     -46.809 102.012   6.628  0.00  0.00    +0.000 A 
ATOM     18  C   UNL     1     -37.215 102.370   2.522  0.00  0.00    +0.000 A 
ATOM     19  C   UNL     1     -47.319 100.582   4.729  0.00  0.00    +0.000 A 
ATOM     20  C   UNL     1     -36.687 103.744   4.457  0.00  0.00    +0.000 A 
ATOM     21  C   UNL     1     -47.665 101.135   5.958  0.00  0.00    +0.000 A 
ATOM     22  C   UNL     1     -36.287 103.016   3.341  0.00  0.00    +0.000 A 
ATOM     23  H   UNL     1     -44.577 103.596   7.335  0.00  0.00    +0.000 HD
ATOM     24  H   UNL     1     -39.623 101.348   1.451  0.00  0.00    +0.000 HD
ENDROOT
BRANCH  11  26
ATOM     25  O   UNL     1     -42.104 106.275   6.158  0.00  0.00    +0.000 OA
ATOM     26  C   UNL     1     -42.246 105.138   6.591  0.00  0.00    +0.000 C 
BRANCH  26  27
ATOM     27  O   UNL     1     -42.352 104.741   7.892  0.00  0.00    +0.000 OA
ATOM     28  C   UNL     1     -42.767 105.685   8.843  0.00  0.00    +0.000 C 
ENDBRANCH  26  27
ENDBRANCH  11  26
BRANCH  12  30
ATOM     29  O   UNL     1     -43.341 100.664   0.846  0.00  0.00    +0.000 OA
ATOM     30  C   UNL     1     -42.490 101.509   1.095  0.00  0.00    +0.000 C 
BRANCH  30  31
ATOM     31  O   UNL     1     -41.742 102.235   0.214  0.00  0.00    +0.000 OA
ATOM     32  C   UNL     1     -41.979 102.060  -1.158  0.00  0.00    +0.000 C 
ENDBRANCH  30  31
ENDBRANCH  12  30
TORSDOF 4
ENDMDL
MODEL 6
REMARK VINA RESULT:      -6.6     14.490     16.681
REMARK  Name = 5326018_Caulerpin.pdbqt.pdb
REMARK  4 active torsions:
REMARK  status: ('A' for Active; 'I' for Inactive)
REMARK    1  A    between atoms: C_11  and  C_26
REMARK    2  A    between atoms: C_12  and  C_30
REMARK    3  A    between atoms: C_26  and  O_27
REMARK    4  A    between atoms: C_30  and  O_31
REMARK                            x       y       z     vdW  Elec       q    Type
REMARK                         _______ _______ _______ _____ _____    ______ ____
ROOT
ATOM      1  N   UNL     1     -23.503 102.496   0.912  0.00  0.00    +0.000 N 
ATOM      2  N   UNL     1     -24.568 106.503   5.962  0.00  0.00    +0.000 N 
ATOM      3  C   UNL     1     -24.543 104.295   1.684  0.00  0.00    +0.000 C 
ATOM      4  C   UNL     1     -23.873 104.516   5.266  0.00  0.00    +0.000 C 
ATOM      5  C   UNL     1     -23.900 103.122   2.075  0.00  0.00    +0.000 C 
ATOM      6  C   UNL     1     -24.636 105.622   4.902  0.00  0.00    +0.000 C 
ATOM      7  C   UNL     1     -24.592 104.345   0.270  0.00  0.00    +0.000 A 
ATOM      8  C   UNL     1     -23.392 104.701   6.585  0.00  0.00    +0.000 A 
ATOM      9  C   UNL     1     -23.937 103.203  -0.189  0.00  0.00    +0.000 A 
ATOM     10  C   UNL     1     -23.846 105.952   7.000  0.00  0.00    +0.000 A 
ATOM     11  C   UNL     1     -23.569 102.591   3.371  0.00  0.00    +0.000 C 
ATOM     12  C   UNL     1     -25.331 105.957   3.686  0.00  0.00    +0.000 C 
ATOM     13  C   UNL     1     -23.636 103.415   4.385  0.00  0.00    +0.000 C 
ATOM     14  C   UNL     1     -25.029 105.260   2.621  0.00  0.00    +0.000 C 
ATOM     15  C   UNL     1     -25.112 105.255  -0.668  0.00  0.00    +0.000 A 
ATOM     16  C   UNL     1     -22.602 103.938   7.465  0.00  0.00    +0.000 A 
ATOM     17  C   UNL     1     -23.778 102.918  -1.550  0.00  0.00    +0.000 A 
ATOM     18  C   UNL     1     -23.553 106.484   8.261  0.00  0.00    +0.000 A 
ATOM     19  C   UNL     1     -24.967 104.982  -2.031  0.00  0.00    +0.000 A 
ATOM     20  C   UNL     1     -22.304 104.452   8.728  0.00  0.00    +0.000 A 
ATOM     21  C   UNL     1     -24.311 103.833  -2.460  0.00  0.00    +0.000 A 
ATOM     22  C   UNL     1     -22.774 105.702   9.116  0.00  0.00    +0.000 A 
ATOM     23  H   UNL     1     -22.960 101.646   0.838  0.00  0.00    +0.000 HD
ATOM     24  H   UNL     1     -24.968 107.432   6.005  0.00  0.00    +0.000 HD
ENDROOT
BRANCH  11  26
ATOM     25  O   UNL     1     -22.349 100.542   3.173  0.00  0.00    +0.000 OA
ATOM     26  C   UNL     1     -23.285 101.157   3.670  0.00  0.00    +0.000 C 
BRANCH  26  27
ATOM     27  O   UNL     1     -24.204 100.706   4.572  0.00  0.00    +0.000 OA
ATOM     28  C   UNL     1     -25.501 100.426   4.116  0.00  0.00    +0.000 C 
ENDBRANCH  26  27
ENDBRANCH  11  26
BRANCH  12  30
ATOM     29  O   UNL     1     -26.518 107.960   4.241  0.00  0.00    +0.000 OA
ATOM     30  C   UNL     1     -26.451 106.936   3.571  0.00  0.00    +0.000 C 
BRANCH  30  31
ATOM     31  O   UNL     1     -27.318 106.501   2.611  0.00  0.00    +0.000 OA
ATOM     32  C   UNL     1     -27.940 107.459   1.796  0.00  0.00    +0.000 C 
ENDBRANCH  30  31
ENDBRANCH  12  30
TORSDOF 4
ENDMDL
MODEL 7
REMARK VINA RESULT:      -6.6     14.504     17.346
REMARK  Name = 5326018_Caulerpin.pdbqt.pdb
REMARK  4 active torsions:
REMARK  status: ('A' for Active; 'I' for Inactive)
REMARK    1  A    between atoms: C_11  and  C_26
REMARK    2  A    between atoms: C_12  and  C_30
REMARK    3  A    between atoms: C_26  and  O_27
REMARK    4  A    between atoms: C_30  and  O_31
REMARK                            x       y       z     vdW  Elec       q    Type
REMARK                         _______ _______ _______ _____ _____    ______ ____
ROOT
ATOM      1  N   UNL     1     -25.002 106.872   5.590  0.00  0.00    +0.000 N 
ATOM      2  N   UNL     1     -23.646 102.740   0.714  0.00  0.00    +0.000 N 
ATOM      3  C   UNL     1     -24.212 104.892   4.983  0.00  0.00    +0.000 C 
ATOM      4  C   UNL     1     -24.776 104.522   1.395  0.00  0.00    +0.000 C 
ATOM      5  C   UNL     1     -25.008 105.955   4.560  0.00  0.00    +0.000 C 
ATOM      6  C   UNL     1     -24.099 103.391   1.843  0.00  0.00    +0.000 C 
ATOM      7  C   UNL     1     -23.776 105.141   6.306  0.00  0.00    +0.000 A 
ATOM      8  C   UNL     1     -24.788 104.522  -0.021  0.00  0.00    +0.000 A 
ATOM      9  C   UNL     1     -24.289 106.387   6.665  0.00  0.00    +0.000 A 
ATOM     10  C   UNL     1     -24.078 103.392  -0.423  0.00  0.00    +0.000 A 
ATOM     11  C   UNL     1     -25.681 106.220   3.316  0.00  0.00    +0.000 C 
ATOM     12  C   UNL     1     -23.783 102.917   3.166  0.00  0.00    +0.000 C 
ATOM     13  C   UNL     1     -25.324 105.499   2.284  0.00  0.00    +0.000 C 
ATOM     14  C   UNL     1     -23.909 103.772   4.147  0.00  0.00    +0.000 C 
ATOM     15  C   UNL     1     -22.980 104.441   7.232  0.00  0.00    +0.000 A 
ATOM     16  C   UNL     1     -25.317 105.377  -1.005  0.00  0.00    +0.000 A 
ATOM     17  C   UNL     1     -24.050 106.973   7.913  0.00  0.00    +0.000 A 
ATOM     18  C   UNL     1     -23.870 103.066  -1.768  0.00  0.00    +0.000 A 
ATOM     19  C   UNL     1     -22.737 105.008   8.484  0.00  0.00    +0.000 A 
ATOM     20  C   UNL     1     -25.124 105.065  -2.352  0.00  0.00    +0.000 A 
ATOM     21  C   UNL     1     -23.265 106.252   8.816  0.00  0.00    +0.000 A 
ATOM     22  C   UNL     1     -24.414 103.928  -2.723  0.00  0.00    +0.000 A 
ATOM     23  H   UNL     1     -25.438 107.786   5.589  0.00  0.00    +0.000 HD
ATOM     24  H   UNL     1     -23.069 101.909   0.683  0.00  0.00    +0.000 HD
ENDROOT
BRANCH  11  26
ATOM     25  O   UNL     1     -26.985 108.166   3.805  0.00  0.00    +0.000 OA
ATOM     26  C   UNL     1     -26.834 107.149   3.137  0.00  0.00    +0.000 C 
BRANCH  26  27
ATOM     27  O   UNL     1     -27.624 106.682   2.127  0.00  0.00    +0.000 OA
ATOM     28  C   UNL     1     -28.401 107.605   1.412  0.00  0.00    +0.000 C 
ENDBRANCH  26  27
ENDBRANCH  11  26
BRANCH  12  30
ATOM     29  O   UNL     1     -22.564 100.866   2.972  0.00  0.00    +0.000 OA
ATOM     30  C   UNL     1     -23.452 101.506   3.523  0.00  0.00    +0.000 C 
BRANCH  30  31
ATOM     31  O   UNL     1     -24.270 101.107   4.539  0.00  0.00    +0.000 OA
ATOM     32  C   UNL     1     -25.470 100.457   4.210  0.00  0.00    +0.000 C 
ENDBRANCH  30  31
ENDBRANCH  12  30
TORSDOF 4
ENDMDL
MODEL 8
REMARK VINA RESULT:      -6.3     25.651     27.213
REMARK  Name = 5326018_Caulerpin.pdbqt.pdb
REMARK  4 active torsions:
REMARK  status: ('A' for Active; 'I' for Inactive)
REMARK    1  A    between atoms: C_11  and  C_26
REMARK    2  A    between atoms: C_12  and  C_30
REMARK    3  A    between atoms: C_26  and  O_27
REMARK    4  A    between atoms: C_30  and  O_31
REMARK                            x       y       z     vdW  Elec       q    Type
REMARK                         _______ _______ _______ _____ _____    ______ ____
ROOT
ATOM      1  N   UNL     1     -22.767  90.444  -5.085  0.00  0.00    +0.000 N 
ATOM      2  N   UNL     1     -26.200  86.445  -8.946  0.00  0.00    +0.000 N 
ATOM      3  C   UNL     1     -22.810  88.572  -6.271  0.00  0.00    +0.000 C 
ATOM      4  C   UNL     1     -26.230  88.078  -7.448  0.00  0.00    +0.000 C 
ATOM      5  C   UNL     1     -23.621  89.518  -5.647  0.00  0.00    +0.000 C 
ATOM      6  C   UNL     1     -25.446  87.050  -7.962  0.00  0.00    +0.000 C 
ATOM      7  C   UNL     1     -21.453  88.894  -6.027  0.00  0.00    +0.000 A 
ATOM      8  C   UNL     1     -27.496  88.055  -8.082  0.00  0.00    +0.000 A 
ATOM      9  C   UNL     1     -21.454  90.070  -5.277  0.00  0.00    +0.000 A 
ATOM     10  C   UNL     1     -27.453  87.019  -9.014  0.00  0.00    +0.000 A 
ATOM     11  C   UNL     1     -25.050  89.675  -5.591  0.00  0.00    +0.000 C 
ATOM     12  C   UNL     1     -24.093  86.640  -7.689  0.00  0.00    +0.000 C 
ATOM     13  C   UNL     1     -25.756  88.991  -6.454  0.00  0.00    +0.000 C 
ATOM     14  C   UNL     1     -23.337  87.487  -7.039  0.00  0.00    +0.000 C 
ATOM     15  C   UNL     1     -20.221  88.316  -6.383  0.00  0.00    +0.000 A 
ATOM     16  C   UNL     1     -28.672  88.821  -7.971  0.00  0.00    +0.000 A 
ATOM     17  C   UNL     1     -20.278  90.700  -4.857  0.00  0.00    +0.000 A 
ATOM     18  C   UNL     1     -28.533  86.702  -9.845  0.00  0.00    +0.000 A 
ATOM     19  C   UNL     1     -19.038  88.929  -5.967  0.00  0.00    +0.000 A 
ATOM     20  C   UNL     1     -29.761  88.515  -8.789  0.00  0.00    +0.000 A 
ATOM     21  C   UNL     1     -19.069  90.099  -5.216  0.00  0.00    +0.000 A 
ATOM     22  C   UNL     1     -29.690  87.473  -9.707  0.00  0.00    +0.000 A 
ATOM     23  H   UNL     1     -23.029  91.294  -4.603  0.00  0.00    +0.000 HD
ATOM     24  H   UNL     1     -25.908  85.694  -9.559  0.00  0.00    +0.000 HD
ENDROOT
BRANCH  11  26
ATOM     25  O   UNL     1     -26.158  91.607  -4.714  0.00  0.00    +0.000 OA
ATOM     26  C   UNL     1     -25.795  90.447  -4.554  0.00  0.00    +0.000 C 
BRANCH  26  27
ATOM     27  O   UNL     1     -25.999  89.644  -3.470  0.00  0.00    +0.000 OA
ATOM     28  C   UNL     1     -27.163  88.862  -3.433  0.00  0.00    +0.000 C 
ENDBRANCH  26  27
ENDBRANCH  11  26
BRANCH  12  30
ATOM     29  O   UNL     1     -23.471  84.804  -9.094  0.00  0.00    +0.000 OA
ATOM     30  C   UNL     1     -23.525  85.289  -7.970  0.00  0.00    +0.000 C 
BRANCH  30  31
ATOM     31  O   UNL     1     -23.082  84.747  -6.798  0.00  0.00    +0.000 OA
ATOM     32  C   UNL     1     -23.961  83.928  -6.072  0.00  0.00    +0.000 C 
ENDBRANCH  30  31
ENDBRANCH  12  30
TORSDOF 4
ENDMDL
MODEL 9
REMARK VINA RESULT:      -6.2     11.673     15.296
REMARK  Name = 5326018_Caulerpin.pdbqt.pdb
REMARK  4 active torsions:
REMARK  status: ('A' for Active; 'I' for Inactive)
REMARK    1  A    between atoms: C_11  and  C_26
REMARK    2  A    between atoms: C_12  and  C_30
REMARK    3  A    between atoms: C_26  and  O_27
REMARK    4  A    between atoms: C_30  and  O_31
REMARK                            x       y       z     vdW  Elec       q    Type
REMARK                         _______ _______ _______ _____ _____    ______ ____
ROOT
ATOM      1  N   UNL     1     -31.401  86.847  18.009  0.00  0.00    +0.000 N 
ATOM      2  N   UNL     1     -28.000  86.155  12.473  0.00  0.00    +0.000 N 
ATOM      3  C   UNL     1     -29.978  87.743  16.565  0.00  0.00    +0.000 C 
ATOM      4  C   UNL     1     -29.096  85.170  14.129  0.00  0.00    +0.000 C 
ATOM      5  C   UNL     1     -30.506  86.532  17.007  0.00  0.00    +0.000 C 
ATOM      6  C   UNL     1     -28.453  86.349  13.761  0.00  0.00    +0.000 C 
ATOM      7  C   UNL     1     -30.508  88.793  17.352  0.00  0.00    +0.000 A 
ATOM      8  C   UNL     1     -28.975  84.231  13.077  0.00  0.00    +0.000 A 
ATOM      9  C   UNL     1     -31.394  88.204  18.253  0.00  0.00    +0.000 A 
ATOM     10  C   UNL     1     -28.279  84.871  12.052  0.00  0.00    +0.000 A 
ATOM     11  C   UNL     1     -30.323  85.178  16.555  0.00  0.00    +0.000 C 
ATOM     12  C   UNL     1     -28.292  87.611  14.436  0.00  0.00    +0.000 C 
ATOM     13  C   UNL     1     -29.772  85.015  15.380  0.00  0.00    +0.000 C 
ATOM     14  C   UNL     1     -29.065  87.834  15.467  0.00  0.00    +0.000 C 
ATOM     15  C   UNL     1     -30.340  90.189  17.379  0.00  0.00    +0.000 A 
ATOM     16  C   UNL     1     -29.400  82.903  12.883  0.00  0.00    +0.000 A 
ATOM     17  C   UNL     1     -32.123  88.943  19.191  0.00  0.00    +0.000 A 
ATOM     18  C   UNL     1     -27.981  84.249  10.835  0.00  0.00    +0.000 A 
ATOM     19  C   UNL     1     -31.055  90.942  18.313  0.00  0.00    +0.000 A 
ATOM     20  C   UNL     1     -29.105  82.265  11.677  0.00  0.00    +0.000 A 
ATOM     21  C   UNL     1     -31.930  90.326  19.202  0.00  0.00    +0.000 A 
ATOM     22  C   UNL     1     -28.407  82.929  10.674  0.00  0.00    +0.000 A 
ATOM     23  H   UNL     1     -32.001  86.203  18.508  0.00  0.00    +0.000 HD
ATOM     24  H   UNL     1     -27.536  86.836  11.884  0.00  0.00    +0.000 HD
ENDROOT
BRANCH  11  26
ATOM     25  O   UNL     1     -29.702  83.200  17.749  0.00  0.00    +0.000 OA
ATOM     26  C   UNL     1     -30.588  83.953  17.364  0.00  0.00    +0.000 C 
BRANCH  26  27
ATOM     27  O   UNL     1     -31.929  83.861  17.598  0.00  0.00    +0.000 OA
ATOM     28  C   UNL     1     -32.582  82.667  17.258  0.00  0.00    +0.000 C 
ENDBRANCH  26  27
ENDBRANCH  11  26
BRANCH  12  30
ATOM     29  O   UNL     1     -27.459  89.823  14.059  0.00  0.00    +0.000 OA
ATOM     30  C   UNL     1     -27.234  88.621  14.141  0.00  0.00    +0.000 C 
BRANCH  30  31
ATOM     31  O   UNL     1     -26.037  87.978  14.012  0.00  0.00    +0.000 OA
ATOM     32  C   UNL     1     -25.371  87.575  15.180  0.00  0.00    +0.000 C 
ENDBRANCH  30  31
ENDBRANCH  12  30
TORSDOF 4
ENDMDL
