MODEL 1
REMARK VINA RESULT:      -3.5      0.000      0.000
REMARK  Name = 5350_Sulforaphane.pdbqt.pdb
REMARK  3 active torsions:
REMARK  status: ('A' for Active; 'I' for Inactive)
REMARK    1  A    between atoms: C_1  and  C_2
REMARK    2  A    between atoms: C_3  and  N_5
REMARK    3  A    between atoms: C_7  and  S_8
REMARK                            x       y       z     vdW  Elec       q    Type
REMARK                         _______ _______ _______ _____ _____    ______ ____
ROOT
ATOM      1  C   UNL     1     -34.434  99.240  14.819  0.00  0.00    +0.000 C 
ATOM      2  C   UNL     1     -32.968  99.138  15.253  0.00  0.00    +0.000 C 
ENDROOT
BRANCH   2   3
ATOM      3  S   UNL     1     -31.282  99.024  15.751  0.00  0.00    +0.000 S 
ATOM      4  O   UNL     1     -31.297  97.528  15.655  0.00  0.00    +0.000 OA
ATOM      5  C   UNL     1     -31.683  98.984  17.465  0.00  0.00    +0.000 C 
ENDBRANCH   2   3
BRANCH   1   6
ATOM      6  C   UNL     1     -35.898  99.341  14.382  0.00  0.00    +0.000 C 
ATOM      7  C   UNL     1     -37.365  99.442  13.945  0.00  0.00    +0.000 C 
BRANCH   7   9
ATOM      8  S   UNL     1     -39.580 102.134  13.737  0.00  0.00    +0.000 S 
ATOM      9  N   UNL     1     -38.642  99.536  13.553  0.00  0.00    +0.000 NA
ATOM     10  C   UNL     1     -39.021 100.644  13.638  0.00  0.00    +0.000 C 
ENDBRANCH   7   9
ENDBRANCH   1   6
TORSDOF 3
ENDMDL
MODEL 2
REMARK VINA RESULT:      -3.4      3.534      3.912
REMARK  Name = 5350_Sulforaphane.pdbqt.pdb
REMARK  3 active torsions:
REMARK  status: ('A' for Active; 'I' for Inactive)
REMARK    1  A    between atoms: C_1  and  C_2
REMARK    2  A    between atoms: C_3  and  N_5
REMARK    3  A    between atoms: C_7  and  S_8
REMARK                            x       y       z     vdW  Elec       q    Type
REMARK                         _______ _______ _______ _____ _____    ______ ____
ROOT
ATOM      1  C   UNL     1     -31.260 101.272  14.328  0.00  0.00    +0.000 C 
ATOM      2  C   UNL     1     -29.874 101.296  14.981  0.00  0.00    +0.000 C 
ENDROOT
BRANCH   2   3
ATOM      3  S   UNL     1     -28.279 101.320  15.729  0.00  0.00    +0.000 S 
ATOM      4  O   UNL     1     -28.740 100.458  16.867  0.00  0.00    +0.000 OA
ATOM      5  C   UNL     1     -28.609 102.797  16.629  0.00  0.00    +0.000 C 
ENDBRANCH   2   3
BRANCH   1   6
ATOM      6  C   UNL     1     -32.646 101.247  13.678  0.00  0.00    +0.000 C 
ATOM      7  C   UNL     1     -34.034 101.222  13.027  0.00  0.00    +0.000 C 
BRANCH   7   9
ATOM      8  S   UNL     1     -36.986  99.508  13.764  0.00  0.00    +0.000 S 
ATOM      9  N   UNL     1     -35.243 101.207  12.447  0.00  0.00    +0.000 NA
ATOM     10  C   UNL     1     -35.967 100.482  13.020  0.00  0.00    +0.000 C 
ENDBRANCH   7   9
ENDBRANCH   1   6
TORSDOF 3
ENDMDL
MODEL 3
REMARK VINA RESULT:      -3.2      4.944      7.585
REMARK  Name = 5350_Sulforaphane.pdbqt.pdb
REMARK  3 active torsions:
REMARK  status: ('A' for Active; 'I' for Inactive)
REMARK    1  A    between atoms: C_1  and  C_2
REMARK    2  A    between atoms: C_3  and  N_5
REMARK    3  A    between atoms: C_7  and  S_8
REMARK                            x       y       z     vdW  Elec       q    Type
REMARK                         _______ _______ _______ _____ _____    ______ ____
ROOT
ATOM      1  C   UNL     1     -33.143 101.043  13.857  0.00  0.00    +0.000 C 
ATOM      2  C   UNL     1     -34.589 100.593  13.618  0.00  0.00    +0.000 C 
ENDROOT
BRANCH   2   3
ATOM      3  S   UNL     1     -36.249 100.072  13.341  0.00  0.00    +0.000 S 
ATOM      4  O   UNL     1     -36.144 100.338  11.869  0.00  0.00    +0.000 OA
ATOM      5  C   UNL     1     -36.912 101.674  13.649  0.00  0.00    +0.000 C 
ENDBRANCH   2   3
BRANCH   1   6
ATOM      6  C   UNL     1     -31.700 101.495  14.094  0.00  0.00    +0.000 C 
ATOM      7  C   UNL     1     -30.254 101.948  14.331  0.00  0.00    +0.000 C 
BRANCH   7   9
ATOM      8  S   UNL     1     -28.213 101.952  17.165  0.00  0.00    +0.000 S 
ATOM      9  N   UNL     1     -28.986 102.332  14.535  0.00  0.00    +0.000 NA
ATOM     10  C   UNL     1     -28.678 102.163  15.654  0.00  0.00    +0.000 C 
ENDBRANCH   7   9
ENDBRANCH   1   6
TORSDOF 3
ENDMDL
MODEL 4
REMARK VINA RESULT:      -3.1     24.923     26.023
REMARK  Name = 5350_Sulforaphane.pdbqt.pdb
REMARK  3 active torsions:
REMARK  status: ('A' for Active; 'I' for Inactive)
REMARK    1  A    between atoms: C_1  and  C_2
REMARK    2  A    between atoms: C_3  and  N_5
REMARK    3  A    between atoms: C_7  and  S_8
REMARK                            x       y       z     vdW  Elec       q    Type
REMARK                         _______ _______ _______ _____ _____    ______ ____
ROOT
ATOM      1  C   UNL     1     -23.630  89.886  -5.232  0.00  0.00    +0.000 C 
ATOM      2  C   UNL     1     -25.011  89.308  -4.905  0.00  0.00    +0.000 C 
ENDROOT
BRANCH   2   3
ATOM      3  S   UNL     1     -26.598  88.644  -4.525  0.00  0.00    +0.000 S 
ATOM      4  O   UNL     1     -26.509  89.103  -3.099  0.00  0.00    +0.000 OA
ATOM      5  C   UNL     1     -25.952  87.056  -4.123  0.00  0.00    +0.000 C 
ENDBRANCH   2   3
BRANCH   1   6
ATOM      6  C   UNL     1     -22.249  90.461  -5.558  0.00  0.00    +0.000 C 
ATOM      7  C   UNL     1     -20.866  91.037  -5.885  0.00  0.00    +0.000 C 
BRANCH   7   9
ATOM      8  S   UNL     1     -19.874  93.942  -7.551  0.00  0.00    +0.000 S 
ATOM      9  N   UNL     1     -19.662  91.553  -6.170  0.00  0.00    +0.000 NA
ATOM     10  C   UNL     1     -19.773  92.565  -6.755  0.00  0.00    +0.000 C 
ENDBRANCH   7   9
ENDBRANCH   1   6
TORSDOF 3
ENDMDL
MODEL 5
REMARK VINA RESULT:      -3.0     12.556     13.211
REMARK  Name = 5350_Sulforaphane.pdbqt.pdb
REMARK  3 active torsions:
REMARK  status: ('A' for Active; 'I' for Inactive)
REMARK    1  A    between atoms: C_1  and  C_2
REMARK    2  A    between atoms: C_3  and  N_5
REMARK    3  A    between atoms: C_7  and  S_8
REMARK                            x       y       z     vdW  Elec       q    Type
REMARK                         _______ _______ _______ _____ _____    ______ ____
ROOT
ATOM      1  C   UNL     1     -32.963  87.537  17.010  0.00  0.00    +0.000 C 
ATOM      2  C   UNL     1     -32.062  88.694  17.456  0.00  0.00    +0.000 C 
ENDROOT
BRANCH   2   3
ATOM      3  S   UNL     1     -31.030  90.025  17.972  0.00  0.00    +0.000 S 
ATOM      4  O   UNL     1     -31.388  90.843  16.768  0.00  0.00    +0.000 OA
ATOM      5  C   UNL     1     -29.604  89.363  17.179  0.00  0.00    +0.000 C 
ENDBRANCH   2   3
BRANCH   1   6
ATOM      6  C   UNL     1     -33.864  86.383  16.561  0.00  0.00    +0.000 C 
ATOM      7  C   UNL     1     -34.765  85.227  16.111  0.00  0.00    +0.000 C 
BRANCH   7   9
ATOM      8  S   UNL     1     -37.937  84.193  17.145  0.00  0.00    +0.000 S 
ATOM      9  N   UNL     1     -35.564  84.225  15.721  0.00  0.00    +0.000 NA
ATOM     10  C   UNL     1     -36.564  84.229  16.335  0.00  0.00    +0.000 C 
ENDBRANCH   7   9
ENDBRANCH   1   6
TORSDOF 3
ENDMDL
MODEL 6
REMARK VINA RESULT:      -2.8     11.861     12.289
REMARK  Name = 5350_Sulforaphane.pdbqt.pdb
REMARK  3 active torsions:
REMARK  status: ('A' for Active; 'I' for Inactive)
REMARK    1  A    between atoms: C_1  and  C_2
REMARK    2  A    between atoms: C_3  and  N_5
REMARK    3  A    between atoms: C_7  and  S_8
REMARK                            x       y       z     vdW  Elec       q    Type
REMARK                         _______ _______ _______ _____ _____    ______ ____
ROOT
ATOM      1  C   UNL     1     -29.881  89.014  16.854  0.00  0.00    +0.000 C 
ATOM      2  C   UNL     1     -28.750  88.766  15.850  0.00  0.00    +0.000 C 
ENDROOT
BRANCH   2   3
ATOM      3  S   UNL     1     -27.448  88.486  14.696  0.00  0.00    +0.000 S 
ATOM      4  O   UNL     1     -27.750  89.758  13.962  0.00  0.00    +0.000 OA
ATOM      5  C   UNL     1     -28.469  87.543  13.615  0.00  0.00    +0.000 C 
ENDBRANCH   2   3
BRANCH   1   6
ATOM      6  C   UNL     1     -31.013  89.261  17.855  0.00  0.00    +0.000 C 
ATOM      7  C   UNL     1     -32.146  89.509  18.857  0.00  0.00    +0.000 C 
BRANCH   7   9
ATOM      8  S   UNL     1     -35.278  88.036  19.321  0.00  0.00    +0.000 S 
ATOM      9  N   UNL     1     -33.128  89.727  19.743  0.00  0.00    +0.000 NA
ATOM     10  C   UNL     1     -34.029  89.001  19.548  0.00  0.00    +0.000 C 
ENDBRANCH   7   9
ENDBRANCH   1   6
TORSDOF 3
ENDMDL
MODEL 7
REMARK VINA RESULT:      -2.8     24.850     26.124
REMARK  Name = 5350_Sulforaphane.pdbqt.pdb
REMARK  3 active torsions:
REMARK  status: ('A' for Active; 'I' for Inactive)
REMARK    1  A    between atoms: C_1  and  C_2
REMARK    2  A    between atoms: C_3  and  N_5
REMARK    3  A    between atoms: C_7  and  S_8
REMARK                            x       y       z     vdW  Elec       q    Type
REMARK                         _______ _______ _______ _____ _____    ______ ____
ROOT
ATOM      1  C   UNL     1     -23.297  89.648  -5.552  0.00  0.00    +0.000 C 
ATOM      2  C   UNL     1     -24.777  89.466  -5.903  0.00  0.00    +0.000 C 
ENDROOT
BRANCH   2   3
ATOM      3  S   UNL     1     -26.480  89.259  -6.304  0.00  0.00    +0.000 S 
ATOM      4  O   UNL     1     -26.792  90.685  -5.956  0.00  0.00    +0.000 OA
ATOM      5  C   UNL     1     -26.900  88.704  -4.687  0.00  0.00    +0.000 C 
ENDBRANCH   2   3
BRANCH   1   6
ATOM      6  C   UNL     1     -21.817  89.827  -5.199  0.00  0.00    +0.000 C 
ATOM      7  C   UNL     1     -20.336  90.006  -4.846  0.00  0.00    +0.000 C 
BRANCH   7   9
ATOM      8  S   UNL     1     -18.613  92.571  -3.219  0.00  0.00    +0.000 S 
ATOM      9  N   UNL     1     -19.043  90.174  -4.536  0.00  0.00    +0.000 NA
ATOM     10  C   UNL     1     -18.882  91.195  -3.978  0.00  0.00    +0.000 C 
ENDBRANCH   7   9
ENDBRANCH   1   6
TORSDOF 3
ENDMDL
MODEL 8
REMARK VINA RESULT:      -2.7      6.138      7.772
REMARK  Name = 5350_Sulforaphane.pdbqt.pdb
REMARK  3 active torsions:
REMARK  status: ('A' for Active; 'I' for Inactive)
REMARK    1  A    between atoms: C_1  and  C_2
REMARK    2  A    between atoms: C_3  and  N_5
REMARK    3  A    between atoms: C_7  and  S_8
REMARK                            x       y       z     vdW  Elec       q    Type
REMARK                         _______ _______ _______ _____ _____    ______ ____
ROOT
ATOM      1  C   UNL     1     -29.520  98.744  19.820  0.00  0.00    +0.000 C 
ATOM      2  C   UNL     1     -29.156  98.961  21.293  0.00  0.00    +0.000 C 
ENDROOT
BRANCH   2   3
ATOM      3  S   UNL     1     -28.739  99.207  22.987  0.00  0.00    +0.000 S 
ATOM      4  O   UNL     1     -27.679 100.209  22.638  0.00  0.00    +0.000 OA
ATOM      5  C   UNL     1     -27.576  97.884  23.000  0.00  0.00    +0.000 C 
ENDBRANCH   2   3
BRANCH   1   6
ATOM      6  C   UNL     1     -29.886  98.530  18.349  0.00  0.00    +0.000 C 
ATOM      7  C   UNL     1     -30.253  98.315  16.876  0.00  0.00    +0.000 C 
BRANCH   7   9
ATOM      8  S   UNL     1     -31.273 100.527  14.373  0.00  0.00    +0.000 S 
ATOM      9  N   UNL     1     -30.575  98.140  15.586  0.00  0.00    +0.000 NA
ATOM     10  C   UNL     1     -30.867  99.162  15.091  0.00  0.00    +0.000 C 
ENDBRANCH   7   9
ENDBRANCH   1   6
TORSDOF 3
ENDMDL
MODEL 9
REMARK VINA RESULT:      -2.7      4.112      5.517
REMARK  Name = 5350_Sulforaphane.pdbqt.pdb
REMARK  3 active torsions:
REMARK  status: ('A' for Active; 'I' for Inactive)
REMARK    1  A    between atoms: C_1  and  C_2
REMARK    2  A    between atoms: C_3  and  N_5
REMARK    3  A    between atoms: C_7  and  S_8
REMARK                            x       y       z     vdW  Elec       q    Type
REMARK                         _______ _______ _______ _____ _____    ______ ____
ROOT
ATOM      1  C   UNL     1     -38.824 101.876  13.522  0.00  0.00    +0.000 C 
ATOM      2  C   UNL     1     -37.346 101.496  13.385  0.00  0.00    +0.000 C 
ENDROOT
BRANCH   2   3
ATOM      3  S   UNL     1     -35.648 101.054  13.226  0.00  0.00    +0.000 S 
ATOM      4  O   UNL     1     -35.866 100.489  11.855  0.00  0.00    +0.000 OA
ATOM      5  C   UNL     1     -35.879  99.481  13.983  0.00  0.00    +0.000 C 
ENDBRANCH   2   3
BRANCH   1   6
ATOM      6  C   UNL     1     -40.301 102.256  13.662  0.00  0.00    +0.000 C 
ATOM      7  C   UNL     1     -41.779 102.636  13.803  0.00  0.00    +0.000 C 
BRANCH   7   9
ATOM      8  S   UNL     1     -44.445 102.530  11.549  0.00  0.00    +0.000 S 
ATOM      9  N   UNL     1     -43.073 102.969  13.912  0.00  0.00    +0.000 NA
ATOM     10  C   UNL     1     -43.637 102.775  12.901  0.00  0.00    +0.000 C 
ENDBRANCH   7   9
ENDBRANCH   1   6
TORSDOF 3
ENDMDL
