MODEL 1
REMARK VINA RESULT:      -5.2      0.000      0.000
REMARK  Name = 5357283_Methylferulate.pdbqt.pdb
REMARK  5 active torsions:
REMARK  status: ('A' for Active; 'I' for Inactive)
REMARK    1  A    between atoms: C_1  and  C_11
REMARK    2  A    between atoms: C_2  and  O_7
REMARK    3  A    between atoms: C_5  and  O_9
REMARK    4  A    between atoms: C_12  and  C_14
REMARK    5  A    between atoms: C_14  and  O_15
REMARK                            x       y       z     vdW  Elec       q    Type
REMARK                         _______ _______ _______ _____ _____    ______ ____
ROOT
ATOM      1  C   UNL     1     -35.662 100.372  13.763  0.00  0.00    +0.000 A 
ATOM      2  C   UNL     1     -37.755 101.282  12.942  0.00  0.00    +0.000 A 
ATOM      3  C   UNL     1     -36.372 101.382  13.113  0.00  0.00    +0.000 A 
ATOM      4  C   UNL     1     -36.330  99.251  14.248  0.00  0.00    +0.000 A 
ATOM      5  C   UNL     1     -38.412 100.151  13.434  0.00  0.00    +0.000 A 
ATOM      6  C   UNL     1     -37.707  99.139  14.084  0.00  0.00    +0.000 A 
ENDROOT
BRANCH   2   7
ATOM      7  O   UNL     1     -38.528 102.229  12.315  0.00  0.00    +0.000 OA
ATOM      8  C   UNL     1     -38.615 103.467  12.972  0.00  0.00    +0.000 C 
ENDBRANCH   2   7
BRANCH   5   9
ATOM      9  O   UNL     1     -39.766 100.034  13.275  0.00  0.00    +0.000 OA
ATOM     10  H   UNL     1     -40.204 100.729  13.799  0.00  0.00    +0.000 HD
ENDBRANCH   5   9
BRANCH   1  11
ATOM     11  C   UNL     1     -34.251 100.492  13.929  0.00  0.00    +0.000 C 
ATOM     12  C   UNL     1     -33.061 100.593  14.068  0.00  0.00    +0.000 C 
BRANCH  12  14
ATOM     13  O   UNL     1     -31.085 101.791  14.052  0.00  0.00    +0.000 OA
ATOM     14  C   UNL     1     -31.631 100.710  14.233  0.00  0.00    +0.000 C 
BRANCH  14  15
ATOM     15  O   UNL     1     -31.075  99.515  14.589  0.00  0.00    +0.000 OA
ATOM     16  C   UNL     1     -29.945  99.538  15.424  0.00  0.00    +0.000 C 
ENDBRANCH  14  15
ENDBRANCH  12  14
ENDBRANCH   1  11
TORSDOF 5
ENDMDL
MODEL 2
REMARK VINA RESULT:      -4.8     26.652     27.702
REMARK  Name = 5357283_Methylferulate.pdbqt.pdb
REMARK  5 active torsions:
REMARK  status: ('A' for Active; 'I' for Inactive)
REMARK    1  A    between atoms: C_1  and  C_11
REMARK    2  A    between atoms: C_2  and  O_7
REMARK    3  A    between atoms: C_5  and  O_9
REMARK    4  A    between atoms: C_12  and  C_14
REMARK    5  A    between atoms: C_14  and  O_15
REMARK                            x       y       z     vdW  Elec       q    Type
REMARK                         _______ _______ _______ _____ _____    ______ ____
ROOT
ATOM      1  C   UNL     1     -33.028  97.886 -13.033  0.00  0.00    +0.000 A 
ATOM      2  C   UNL     1     -32.248  95.939 -14.250  0.00  0.00    +0.000 A 
ATOM      3  C   UNL     1     -33.250  96.607 -13.541  0.00  0.00    +0.000 A 
ATOM      4  C   UNL     1     -31.799  98.511 -13.229  0.00  0.00    +0.000 A 
ATOM      5  C   UNL     1     -31.020  96.578 -14.438  0.00  0.00    +0.000 A 
ATOM      6  C   UNL     1     -30.792  97.857 -13.933  0.00  0.00    +0.000 A 
ENDROOT
BRANCH   2   7
ATOM      7  O   UNL     1     -32.385  94.679 -14.783  0.00  0.00    +0.000 OA
ATOM      8  C   UNL     1     -32.937  93.718 -13.922  0.00  0.00    +0.000 C 
ENDBRANCH   2   7
BRANCH   5   9
ATOM      9  O   UNL     1     -30.026  95.941 -15.131  0.00  0.00    +0.000 OA
ATOM     10  H   UNL     1     -29.168  96.319 -14.865  0.00  0.00    +0.000 HD
ENDBRANCH   5   9
BRANCH   1  11
ATOM     11  C   UNL     1     -34.062  98.552 -12.312  0.00  0.00    +0.000 C 
ATOM     12  C   UNL     1     -34.935  99.114 -11.705  0.00  0.00    +0.000 C 
BRANCH  12  14
ATOM     13  O   UNL     1     -35.882  99.949  -9.769  0.00  0.00    +0.000 OA
ATOM     14  C   UNL     1     -35.983  99.791 -10.979  0.00  0.00    +0.000 C 
BRANCH  14  15
ATOM     15  O   UNL     1     -36.993 100.176 -11.814  0.00  0.00    +0.000 OA
ATOM     16  C   UNL     1     -36.732 101.211 -12.729  0.00  0.00    +0.000 C 
ENDBRANCH  14  15
ENDBRANCH  12  14
ENDBRANCH   1  11
TORSDOF 5
ENDMDL
MODEL 3
REMARK VINA RESULT:      -4.4     24.316     26.213
REMARK  Name = 5357283_Methylferulate.pdbqt.pdb
REMARK  5 active torsions:
REMARK  status: ('A' for Active; 'I' for Inactive)
REMARK    1  A    between atoms: C_1  and  C_11
REMARK    2  A    between atoms: C_2  and  O_7
REMARK    3  A    between atoms: C_5  and  O_9
REMARK    4  A    between atoms: C_12  and  C_14
REMARK    5  A    between atoms: C_14  and  O_15
REMARK                            x       y       z     vdW  Elec       q    Type
REMARK                         _______ _______ _______ _____ _____    ______ ____
ROOT
ATOM      1  C   UNL     1     -22.375  89.744  -5.620  0.00  0.00    +0.000 A 
ATOM      2  C   UNL     1     -20.196  90.590  -6.266  0.00  0.00    +0.000 A 
ATOM      3  C   UNL     1     -21.497  90.811  -5.804  0.00  0.00    +0.000 A 
ATOM      4  C   UNL     1     -21.961  88.443  -5.896  0.00  0.00    +0.000 A 
ATOM      5  C   UNL     1     -19.795  89.280  -6.538  0.00  0.00    +0.000 A 
ATOM      6  C   UNL     1     -20.669  88.209  -6.356  0.00  0.00    +0.000 A 
ENDROOT
BRANCH   2   7
ATOM      7  O   UNL     1     -19.270  91.584  -6.473  0.00  0.00    +0.000 OA
ATOM      8  C   UNL     1     -19.597  92.513  -7.473  0.00  0.00    +0.000 C 
ENDBRANCH   2   7
BRANCH   5   9
ATOM      9  O   UNL     1     -18.525  89.043  -6.990  0.00  0.00    +0.000 OA
ATOM     10  H   UNL     1     -17.893  89.486  -6.394  0.00  0.00    +0.000 HD
ENDBRANCH   5   9
BRANCH   1  11
ATOM     11  C   UNL     1     -23.699  89.988  -5.150  0.00  0.00    +0.000 C 
ATOM     12  C   UNL     1     -24.815  90.195  -4.754  0.00  0.00    +0.000 C 
BRANCH  12  14
ATOM     13  O   UNL     1     -26.786  91.401  -4.712  0.00  0.00    +0.000 OA
ATOM     14  C   UNL     1     -26.155  90.448  -4.276  0.00  0.00    +0.000 C 
BRANCH  14  15
ATOM     15  O   UNL     1     -26.532  89.519  -3.349  0.00  0.00    +0.000 OA
ATOM     16  C   UNL     1     -27.047  88.296  -3.814  0.00  0.00    +0.000 C 
ENDBRANCH  14  15
ENDBRANCH  12  14
ENDBRANCH   1  11
TORSDOF 5
ENDMDL
MODEL 4
REMARK VINA RESULT:      -4.3     11.736     13.176
REMARK  Name = 5357283_Methylferulate.pdbqt.pdb
REMARK  5 active torsions:
REMARK  status: ('A' for Active; 'I' for Inactive)
REMARK    1  A    between atoms: C_1  and  C_11
REMARK    2  A    between atoms: C_2  and  O_7
REMARK    3  A    between atoms: C_5  and  O_9
REMARK    4  A    between atoms: C_12  and  C_14
REMARK    5  A    between atoms: C_14  and  O_15
REMARK                            x       y       z     vdW  Elec       q    Type
REMARK                         _______ _______ _______ _____ _____    ______ ____
ROOT
ATOM      1  C   UNL     1     -33.137  88.090  17.337  0.00  0.00    +0.000 A 
ATOM      2  C   UNL     1     -35.441  87.686  17.977  0.00  0.00    +0.000 A 
ATOM      3  C   UNL     1     -34.340  88.542  17.877  0.00  0.00    +0.000 A 
ATOM      4  C   UNL     1     -33.022  86.776  16.890  0.00  0.00    +0.000 A 
ATOM      5  C   UNL     1     -35.311  86.371  17.524  0.00  0.00    +0.000 A 
ATOM      6  C   UNL     1     -34.110  85.914  16.983  0.00  0.00    +0.000 A 
ENDROOT
BRANCH   2   7
ATOM      7  O   UNL     1     -36.660  88.051  18.496  0.00  0.00    +0.000 OA
ATOM      8  C   UNL     1     -36.707  88.178  19.893  0.00  0.00    +0.000 C 
ENDBRANCH   2   7
BRANCH   5   9
ATOM      9  O   UNL     1     -36.378  85.518  17.612  0.00  0.00    +0.000 OA
ATOM     10  H   UNL     1     -36.588  85.377  18.554  0.00  0.00    +0.000 HD
ENDBRANCH   5   9
BRANCH   1  11
ATOM     11  C   UNL     1     -32.024  88.977  17.244  0.00  0.00    +0.000 C 
ATOM     12  C   UNL     1     -31.087  89.726  17.165  0.00  0.00    +0.000 C 
BRANCH  12  14
ATOM     13  O   UNL     1     -29.411  90.794  15.986  0.00  0.00    +0.000 OA
ATOM     14  C   UNL     1     -29.962  90.626  17.066  0.00  0.00    +0.000 C 
BRANCH  14  15
ATOM     15  O   UNL     1     -29.669  91.186  18.277  0.00  0.00    +0.000 OA
ATOM     16  C   UNL     1     -30.576  92.122  18.805  0.00  0.00    +0.000 C 
ENDBRANCH  14  15
ENDBRANCH  12  14
ENDBRANCH   1  11
TORSDOF 5
ENDMDL
MODEL 5
REMARK VINA RESULT:      -4.3     26.324     26.840
REMARK  Name = 5357283_Methylferulate.pdbqt.pdb
REMARK  5 active torsions:
REMARK  status: ('A' for Active; 'I' for Inactive)
REMARK    1  A    between atoms: C_1  and  C_11
REMARK    2  A    between atoms: C_2  and  O_7
REMARK    3  A    between atoms: C_5  and  O_9
REMARK    4  A    between atoms: C_12  and  C_14
REMARK    5  A    between atoms: C_14  and  O_15
REMARK                            x       y       z     vdW  Elec       q    Type
REMARK                         _______ _______ _______ _____ _____    ______ ____
ROOT
ATOM      1  C   UNL     1     -33.567  99.143 -12.560  0.00  0.00    +0.000 A 
ATOM      2  C   UNL     1     -35.596 100.258 -11.840  0.00  0.00    +0.000 A 
ATOM      3  C   UNL     1     -34.514 100.154 -12.718  0.00  0.00    +0.000 A 
ATOM      4  C   UNL     1     -33.692  98.225 -11.520  0.00  0.00    +0.000 A 
ATOM      5  C   UNL     1     -35.709  99.330 -10.801  0.00  0.00    +0.000 A 
ATOM      6  C   UNL     1     -34.765  98.317 -10.639  0.00  0.00    +0.000 A 
ENDROOT
BRANCH   2   7
ATOM      7  O   UNL     1     -36.572 101.222 -11.925  0.00  0.00    +0.000 OA
ATOM      8  C   UNL     1     -36.988 101.544 -13.226  0.00  0.00    +0.000 C 
ENDBRANCH   2   7
BRANCH   5   9
ATOM      9  O   UNL     1     -36.762  99.415  -9.931  0.00  0.00    +0.000 OA
ATOM     10  H   UNL     1     -37.432  98.753 -10.185  0.00  0.00    +0.000 HD
ENDBRANCH   5   9
BRANCH   1  11
ATOM     11  C   UNL     1     -32.469  99.052 -13.465  0.00  0.00    +0.000 C 
ATOM     12  C   UNL     1     -31.543  98.978 -14.228  0.00  0.00    +0.000 C 
BRANCH  12  14
ATOM     13  O   UNL     1     -30.358  99.672 -16.087  0.00  0.00    +0.000 OA
ATOM     14  C   UNL     1     -30.433  98.889 -15.149  0.00  0.00    +0.000 C 
BRANCH  14  15
ATOM     15  O   UNL     1     -29.585  97.877 -14.804  0.00  0.00    +0.000 OA
ATOM     16  C   UNL     1     -28.355  98.221 -14.216  0.00  0.00    +0.000 C 
ENDBRANCH  14  15
ENDBRANCH  12  14
ENDBRANCH   1  11
TORSDOF 5
ENDMDL
MODEL 6
REMARK VINA RESULT:      -4.2     12.181     14.780
REMARK  Name = 5357283_Methylferulate.pdbqt.pdb
REMARK  5 active torsions:
REMARK  status: ('A' for Active; 'I' for Inactive)
REMARK    1  A    between atoms: C_1  and  C_11
REMARK    2  A    between atoms: C_2  and  O_7
REMARK    3  A    between atoms: C_5  and  O_9
REMARK    4  A    between atoms: C_12  and  C_14
REMARK    5  A    between atoms: C_14  and  O_15
REMARK                            x       y       z     vdW  Elec       q    Type
REMARK                         _______ _______ _______ _____ _____    ______ ____
ROOT
ATOM      1  C   UNL     1     -31.016  87.937  16.975  0.00  0.00    +0.000 A 
ATOM      2  C   UNL     1     -30.720  90.344  16.993  0.00  0.00    +0.000 A 
ATOM      3  C   UNL     1     -31.484  89.212  17.289  0.00  0.00    +0.000 A 
ATOM      4  C   UNL     1     -29.776  87.781  16.360  0.00  0.00    +0.000 A 
ATOM      5  C   UNL     1     -29.478  90.172  16.376  0.00  0.00    +0.000 A 
ATOM      6  C   UNL     1     -29.004  88.899  16.060  0.00  0.00    +0.000 A 
ENDROOT
BRANCH   2   7
ATOM      7  O   UNL     1     -31.107  91.633  17.269  0.00  0.00    +0.000 OA
ATOM      8  C   UNL     1     -31.034  92.008  18.620  0.00  0.00    +0.000 C 
ENDBRANCH   2   7
BRANCH   5   9
ATOM      9  O   UNL     1     -28.714  91.268  16.079  0.00  0.00    +0.000 OA
ATOM     10  H   UNL     1     -29.102  92.048  16.517  0.00  0.00    +0.000 HD
ENDBRANCH   5   9
BRANCH   1  11
ATOM     11  C   UNL     1     -31.809  86.794  17.283  0.00  0.00    +0.000 C 
ATOM     12  C   UNL     1     -32.479  85.829  17.541  0.00  0.00    +0.000 C 
BRANCH  12  14
ATOM     13  O   UNL     1     -33.501  84.372  19.015  0.00  0.00    +0.000 OA
ATOM     14  C   UNL     1     -33.285  84.670  17.848  0.00  0.00    +0.000 C 
BRANCH  14  15
ATOM     15  O   UNL     1     -33.708  84.048  16.709  0.00  0.00    +0.000 OA
ATOM     16  C   UNL     1     -34.904  84.494  16.121  0.00  0.00    +0.000 C 
ENDBRANCH  14  15
ENDBRANCH  12  14
ENDBRANCH   1  11
TORSDOF 5
ENDMDL
MODEL 7
REMARK VINA RESULT:      -4.2     20.055     20.671
REMARK  Name = 5357283_Methylferulate.pdbqt.pdb
REMARK  5 active torsions:
REMARK  status: ('A' for Active; 'I' for Inactive)
REMARK    1  A    between atoms: C_1  and  C_11
REMARK    2  A    between atoms: C_2  and  O_7
REMARK    3  A    between atoms: C_5  and  O_9
REMARK    4  A    between atoms: C_12  and  C_14
REMARK    5  A    between atoms: C_14  and  O_15
REMARK                            x       y       z     vdW  Elec       q    Type
REMARK                         _______ _______ _______ _____ _____    ______ ____
ROOT
ATOM      1  C   UNL     1     -21.271  88.659   4.618  0.00  0.00    +0.000 A 
ATOM      2  C   UNL     1     -23.237  87.245   4.754  0.00  0.00    +0.000 A 
ATOM      3  C   UNL     1     -22.223  87.979   5.377  0.00  0.00    +0.000 A 
ATOM      4  C   UNL     1     -21.324  88.614   3.227  0.00  0.00    +0.000 A 
ATOM      5  C   UNL     1     -23.277  87.208   3.358  0.00  0.00    +0.000 A 
ATOM      6  C   UNL     1     -22.329  87.887   2.594  0.00  0.00    +0.000 A 
ENDROOT
BRANCH   2   7
ATOM      7  O   UNL     1     -24.211  86.547   5.426  0.00  0.00    +0.000 OA
ATOM      8  C   UNL     1     -23.751  85.705   6.450  0.00  0.00    +0.000 C 
ENDBRANCH   2   7
BRANCH   5   9
ATOM      9  O   UNL     1     -24.263  86.496   2.730  0.00  0.00    +0.000 OA
ATOM     10  H   UNL     1     -23.955  85.581   2.602  0.00  0.00    +0.000 HD
ENDBRANCH   5   9
BRANCH   1  11
ATOM     11  C   UNL     1     -20.243  89.402   5.270  0.00  0.00    +0.000 C 
ATOM     12  C   UNL     1     -19.377  90.028   5.820  0.00  0.00    +0.000 C 
BRANCH  12  14
ATOM     13  O   UNL     1     -17.731  90.291   7.421  0.00  0.00    +0.000 OA
ATOM     14  C   UNL     1     -18.339  90.785   6.481  0.00  0.00    +0.000 C 
BRANCH  14  15
ATOM     15  O   UNL     1     -18.190  92.018   5.913  0.00  0.00    +0.000 OA
ATOM     16  C   UNL     1     -18.227  93.141   6.758  0.00  0.00    +0.000 C 
ENDBRANCH  14  15
ENDBRANCH  12  14
ENDBRANCH   1  11
TORSDOF 5
ENDMDL
MODEL 8
REMARK VINA RESULT:      -4.2     24.501     26.500
REMARK  Name = 5357283_Methylferulate.pdbqt.pdb
REMARK  5 active torsions:
REMARK  status: ('A' for Active; 'I' for Inactive)
REMARK    1  A    between atoms: C_1  and  C_11
REMARK    2  A    between atoms: C_2  and  O_7
REMARK    3  A    between atoms: C_5  and  O_9
REMARK    4  A    between atoms: C_12  and  C_14
REMARK    5  A    between atoms: C_14  and  O_15
REMARK                            x       y       z     vdW  Elec       q    Type
REMARK                         _______ _______ _______ _____ _____    ______ ____
ROOT
ATOM      1  C   UNL     1     -22.187  89.979  -5.580  0.00  0.00    +0.000 A 
ATOM      2  C   UNL     1     -20.367  88.516  -6.235  0.00  0.00    +0.000 A 
ATOM      3  C   UNL     1     -21.678  88.697  -5.787  0.00  0.00    +0.000 A 
ATOM      4  C   UNL     1     -21.388  91.094  -5.820  0.00  0.00    +0.000 A 
ATOM      5  C   UNL     1     -19.577  89.645  -6.471  0.00  0.00    +0.000 A 
ATOM      6  C   UNL     1     -20.081  90.928  -6.266  0.00  0.00    +0.000 A 
ENDROOT
BRANCH   2   7
ATOM      7  O   UNL     1     -19.789  87.290  -6.464  0.00  0.00    +0.000 OA
ATOM      8  C   UNL     1     -20.517  86.428  -7.298  0.00  0.00    +0.000 C 
ENDBRANCH   2   7
BRANCH   5   9
ATOM      9  O   UNL     1     -18.291  89.488  -6.912  0.00  0.00    +0.000 OA
ATOM     10  H   UNL     1     -17.996  88.584  -6.700  0.00  0.00    +0.000 HD
ENDBRANCH   5   9
BRANCH   1  11
ATOM     11  C   UNL     1     -23.527  90.145  -5.122  0.00  0.00    +0.000 C 
ATOM     12  C   UNL     1     -24.657  90.283  -4.735  0.00  0.00    +0.000 C 
BRANCH  12  14
ATOM     13  O   UNL     1     -26.699  91.364  -4.707  0.00  0.00    +0.000 OA
ATOM     14  C   UNL     1     -26.016  90.446  -4.273  0.00  0.00    +0.000 C 
BRANCH  14  15
ATOM     15  O   UNL     1     -26.347  89.483  -3.363  0.00  0.00    +0.000 OA
ATOM     16  C   UNL     1     -27.147  88.413  -3.798  0.00  0.00    +0.000 C 
ENDBRANCH  14  15
ENDBRANCH  12  14
ENDBRANCH   1  11
TORSDOF 5
ENDMDL
MODEL 9
REMARK VINA RESULT:      -4.2      5.678      8.487
REMARK  Name = 5357283_Methylferulate.pdbqt.pdb
REMARK  5 active torsions:
REMARK  status: ('A' for Active; 'I' for Inactive)
REMARK    1  A    between atoms: C_1  and  C_11
REMARK    2  A    between atoms: C_2  and  O_7
REMARK    3  A    between atoms: C_5  and  O_9
REMARK    4  A    between atoms: C_12  and  C_14
REMARK    5  A    between atoms: C_14  and  O_15
REMARK                            x       y       z     vdW  Elec       q    Type
REMARK                         _______ _______ _______ _____ _____    ______ ____
ROOT
ATOM      1  C   UNL     1     -29.153 100.068  17.876  0.00  0.00    +0.000 A 
ATOM      2  C   UNL     1     -30.340  98.902  16.113  0.00  0.00    +0.000 A 
ATOM      3  C   UNL     1     -29.867  98.958  17.427  0.00  0.00    +0.000 A 
ATOM      4  C   UNL     1     -28.904 101.135  17.015  0.00  0.00    +0.000 A 
ATOM      5  C   UNL     1     -30.083  99.978  15.260  0.00  0.00    +0.000 A 
ATOM      6  C   UNL     1     -29.370 101.091  15.704  0.00  0.00    +0.000 A 
ENDROOT
BRANCH   2   7
ATOM      7  O   UNL     1     -31.051  97.847  15.591  0.00  0.00    +0.000 OA
ATOM      8  C   UNL     1     -32.399  97.781  15.976  0.00  0.00    +0.000 C 
ENDBRANCH   2   7
BRANCH   5   9
ATOM      9  O   UNL     1     -30.540  99.942  13.970  0.00  0.00    +0.000 OA
ATOM     10  H   UNL     1     -30.075  99.230  13.494  0.00  0.00    +0.000 HD
ENDBRANCH   5   9
BRANCH   1  11
ATOM     11  C   UNL     1     -28.676 100.109  19.219  0.00  0.00    +0.000 C 
ATOM     12  C   UNL     1     -28.275 100.142  20.352  0.00  0.00    +0.000 C 
BRANCH  12  14
ATOM     13  O   UNL     1     -27.718 101.253  22.300  0.00  0.00    +0.000 OA
ATOM     14  C   UNL     1     -27.798 100.181  21.715  0.00  0.00    +0.000 C 
BRANCH  14  15
ATOM     15  O   UNL     1     -27.489  98.930  22.166  0.00  0.00    +0.000 OA
ATOM     16  C   UNL     1     -27.083  98.795  23.505  0.00  0.00    +0.000 C 
ENDBRANCH  14  15
ENDBRANCH  12  14
ENDBRANCH   1  11
TORSDOF 5
ENDMDL
