MODEL 1
REMARK VINA RESULT:      -6.4      0.000      0.000
REMARK  Name = 5358691_Yuanhuacine.pdbqt.pdb
REMARK  12 active torsions:
REMARK  status: ('A' for Active; 'I' for Inactive)
REMARK    1  A    between atoms: C_9  and  C_48
REMARK    2  A    between atoms: C_13  and  C_23
REMARK    3  A    between atoms: C_14  and  O_26
REMARK    4  A    between atoms: C_15  and  O_28
REMARK    5  A    between atoms: C_16  and  O_39
REMARK    6  A    between atoms: C_17  and  C_30
REMARK    7  A    between atoms: C_31  and  C_32
REMARK    8  A    between atoms: C_33  and  C_34
REMARK    9  A    between atoms: C_35  and  C_36
REMARK   10  A    between atoms: O_39  and  C_41
REMARK   11  A    between atoms: C_41  and  C_42
REMARK   12  A    between atoms: C_48  and  O_49
REMARK                            x       y       z     vdW  Elec       q    Type
REMARK                         _______ _______ _______ _____ _____    ______ ____
ROOT
ATOM      1  O   UNL     1     -45.918 104.702  -0.067  0.00  0.00    +0.000 OA
ATOM      2  O   UNL     1     -44.782 101.397   0.154  0.00  0.00    +0.000 OA
ATOM      3  O   UNL     1     -45.329 102.346   2.260  0.00  0.00    +0.000 OA
ATOM      4  O   UNL     1     -43.754 100.682   2.169  0.00  0.00    +0.000 OA
ATOM      5  O   UNL     1     -43.249 104.609  -4.538  0.00  0.00    +0.000 OA
ATOM      6  C   UNL     1     -44.059 103.609   0.857  0.00  0.00    +0.000 C 
ATOM      7  C   UNL     1     -43.847 102.475  -0.157  0.00  0.00    +0.000 C 
ATOM      8  C   UNL     1     -44.736 104.851   0.614  0.00  0.00    +0.000 C 
ATOM      9  C   UNL     1     -44.999 105.687  -0.559  0.00  0.00    +0.000 C 
ATOM     10  C   UNL     1     -44.086 102.972   2.179  0.00  0.00    +0.000 C 
ATOM     11  C   UNL     1     -44.130 102.913  -1.562  0.00  0.00    +0.000 C 
ATOM     12  C   UNL     1     -42.395 101.932   0.001  0.00  0.00    +0.000 C 
ATOM     13  C   UNL     1     -43.006 101.898   2.452  0.00  0.00    +0.000 C 
ATOM     14  C   UNL     1     -43.518 104.174  -2.130  0.00  0.00    +0.000 C 
ATOM     15  C   UNL     1     -44.240 105.451  -1.817  0.00  0.00    +0.000 C 
ATOM     16  C   UNL     1     -41.932 101.900   1.379  0.00  0.00    +0.000 C 
ATOM     17  C   UNL     1     -44.961 101.146   1.569  0.00  0.00    +0.000 C 
ATOM     18  C   UNL     1     -44.556 102.094  -2.639  0.00  0.00    +0.000 C 
ATOM     19  C   UNL     1     -41.564 101.247  -1.084  0.00  0.00    +0.000 C 
ATOM     20  C   UNL     1     -43.637 103.848  -3.656  0.00  0.00    +0.000 C 
ATOM     21  C   UNL     1     -44.297 102.513  -3.832  0.00  0.00    +0.000 C 
ATOM     22  C   UNL     1     -45.014 102.038  -5.054  0.00  0.00    +0.000 C 
ENDROOT
BRANCH  13  23
ATOM     23  C   UNL     1     -42.533 101.990   3.922  0.00  0.00    +0.000 C 
ATOM     24  C   UNL     1     -42.334 103.302   4.678  0.00  0.00    +0.000 C 
ATOM     25  C   UNL     1     -41.979 100.958   4.592  0.00  0.00    +0.000 C 
ENDBRANCH  13  23
BRANCH  14  26
ATOM     26  O   UNL     1     -42.176 104.320  -1.717  0.00  0.00    +0.000 OA
ATOM     27  H   UNL     1     -42.115 105.163  -1.224  0.00  0.00    +0.000 HD
ENDBRANCH  14  26
BRANCH  15  28
ATOM     28  O   UNL     1     -44.024 106.526  -2.684  0.00  0.00    +0.000 OA
ATOM     29  H   UNL     1     -43.148 106.532  -3.126  0.00  0.00    +0.000 HD
ENDBRANCH  15  28
BRANCH  17  30
ATOM     30  C   UNL     1     -46.005 100.140   1.740  0.00  0.00    +0.000 C 
ATOM     31  C   UNL     1     -46.862  99.312   1.879  0.00  0.00    +0.000 C 
BRANCH  31  32
ATOM     32  C   UNL     1     -47.955  98.254   2.055  0.00  0.00    +0.000 C 
ATOM     33  C   UNL     1     -48.812  97.425   2.192  0.00  0.00    +0.000 C 
BRANCH  33  34
ATOM     34  C   UNL     1     -49.907  96.368   2.366  0.00  0.00    +0.000 C 
ATOM     35  C   UNL     1     -51.002  95.313   2.540  0.00  0.00    +0.000 C 
BRANCH  35  36
ATOM     36  C   UNL     1     -52.099  94.256   2.713  0.00  0.00    +0.000 C 
ATOM     37  C   UNL     1     -53.196  93.202   2.885  0.00  0.00    +0.000 C 
ATOM     38  C   UNL     1     -54.294  92.146   3.056  0.00  0.00    +0.000 C 
ENDBRANCH  35  36
ENDBRANCH  33  34
ENDBRANCH  31  32
ENDBRANCH  17  30
BRANCH  16  39
ATOM     39  O   UNL     1     -40.548 101.828   1.610  0.00  0.00    +0.000 OA
BRANCH  39  41
ATOM     40  O   UNL     1     -40.195 103.903   0.688  0.00  0.00    +0.000 OA
ATOM     41  C   UNL     1     -39.892 103.018   1.469  0.00  0.00    +0.000 C 
BRANCH  41  42
ATOM     42  C   UNL     1     -38.726 103.069   2.369  0.00  0.00    +0.000 A 
ATOM     43  C   UNL     1     -38.797 102.605   3.682  0.00  0.00    +0.000 A 
ATOM     44  C   UNL     1     -37.533 103.596   1.876  0.00  0.00    +0.000 A 
ATOM     45  C   UNL     1     -37.672 102.669   4.502  0.00  0.00    +0.000 A 
ATOM     46  C   UNL     1     -36.411 103.658   2.697  0.00  0.00    +0.000 A 
ATOM     47  C   UNL     1     -36.481 103.195   4.009  0.00  0.00    +0.000 A 
ENDBRANCH  41  42
ENDBRANCH  39  41
ENDBRANCH  16  39
BRANCH   9  48
ATOM     48  C   UNL     1     -45.545 107.019  -0.341  0.00  0.00    +0.000 C 
BRANCH  48  49
ATOM     49  O   UNL     1     -46.050 108.233  -0.140  0.00  0.00    +0.000 OA
ATOM     50  H   UNL     1     -45.456 108.913  -0.503  0.00  0.00    +0.000 HD
ENDBRANCH  48  49
ENDBRANCH   9  48
TORSDOF 12
ENDMDL
MODEL 2
REMARK VINA RESULT:      -6.1     17.328     20.894
REMARK  Name = 5358691_Yuanhuacine.pdbqt.pdb
REMARK  12 active torsions:
REMARK  status: ('A' for Active; 'I' for Inactive)
REMARK    1  A    between atoms: C_9  and  C_48
REMARK    2  A    between atoms: C_13  and  C_23
REMARK    3  A    between atoms: C_14  and  O_26
REMARK    4  A    between atoms: C_15  and  O_28
REMARK    5  A    between atoms: C_16  and  O_39
REMARK    6  A    between atoms: C_17  and  C_30
REMARK    7  A    between atoms: C_31  and  C_32
REMARK    8  A    between atoms: C_33  and  C_34
REMARK    9  A    between atoms: C_35  and  C_36
REMARK   10  A    between atoms: O_39  and  C_41
REMARK   11  A    between atoms: C_41  and  C_42
REMARK   12  A    between atoms: C_48  and  O_49
REMARK                            x       y       z     vdW  Elec       q    Type
REMARK                         _______ _______ _______ _____ _____    ______ ____
ROOT
ATOM      1  O   UNL     1     -34.651 100.794  20.125  0.00  0.00    +0.000 OA
ATOM      2  O   UNL     1     -34.355  98.115  17.889  0.00  0.00    +0.000 OA
ATOM      3  O   UNL     1     -32.326  98.636  19.005  0.00  0.00    +0.000 OA
ATOM      4  O   UNL     1     -32.232  97.665  16.930  0.00  0.00    +0.000 OA
ATOM      5  O   UNL     1     -38.691 102.017  17.074  0.00  0.00    +0.000 OA
ATOM      6  C   UNL     1     -33.497 100.377  18.125  0.00  0.00    +0.000 C 
ATOM      7  C   UNL     1     -34.500  99.479  17.386  0.00  0.00    +0.000 C 
ATOM      8  C   UNL     1     -33.802 101.306  19.176  0.00  0.00    +0.000 C 
ATOM      9  C   UNL     1     -34.979 102.079  19.579  0.00  0.00    +0.000 C 
ATOM     10  C   UNL     1     -32.210  99.673  18.081  0.00  0.00    +0.000 C 
ATOM     11  C   UNL     1     -35.918  99.892  17.633  0.00  0.00    +0.000 C 
ATOM     12  C   UNL     1     -34.148  99.486  15.868  0.00  0.00    +0.000 C 
ATOM     13  C   UNL     1     -31.812  99.043  16.724  0.00  0.00    +0.000 C 
ATOM     14  C   UNL     1     -36.359 101.329  17.462  0.00  0.00    +0.000 C 
ATOM     15  C   UNL     1     -36.120 102.231  18.637  0.00  0.00    +0.000 C 
ATOM     16  C   UNL     1     -32.719  99.517  15.601  0.00  0.00    +0.000 C 
ATOM     17  C   UNL     1     -32.988  97.707  18.138  0.00  0.00    +0.000 C 
ATOM     18  C   UNL     1     -37.067  99.061  17.589  0.00  0.00    +0.000 C 
ATOM     19  C   UNL     1     -35.119  99.233  14.714  0.00  0.00    +0.000 C 
ATOM     20  C   UNL     1     -37.894 101.101  17.261  0.00  0.00    +0.000 C 
ATOM     21  C   UNL     1     -38.199  99.636  17.356  0.00  0.00    +0.000 C 
ATOM     22  C   UNL     1     -39.523  99.031  17.689  0.00  0.00    +0.000 C 
ENDROOT
BRANCH  13  23
ATOM     23  C   UNL     1     -30.288  99.186  16.505  0.00  0.00    +0.000 C 
ATOM     24  C   UNL     1     -29.385 100.102  17.328  0.00  0.00    +0.000 C 
ATOM     25  C   UNL     1     -29.649  98.745  15.401  0.00  0.00    +0.000 C 
ENDBRANCH  13  23
BRANCH  14  26
ATOM     26  O   UNL     1     -35.752 101.917  16.331  0.00  0.00    +0.000 OA
ATOM     27  H   UNL     1     -36.189 102.779  16.184  0.00  0.00    +0.000 HD
ENDBRANCH  14  26
BRANCH  15  28
ATOM     28  O   UNL     1     -36.917 103.375  18.725  0.00  0.00    +0.000 OA
ATOM     29  H   UNL     1     -37.618 103.446  18.042  0.00  0.00    +0.000 HD
ENDBRANCH  15  28
BRANCH  17  30
ATOM     30  C   UNL     1     -32.996  96.382  18.750  0.00  0.00    +0.000 C 
ATOM     31  C   UNL     1     -33.001  95.293  19.254  0.00  0.00    +0.000 C 
BRANCH  31  32
ATOM     32  C   UNL     1     -33.007  93.903  19.897  0.00  0.00    +0.000 C 
ATOM     33  C   UNL     1     -33.011  92.813  20.400  0.00  0.00    +0.000 C 
BRANCH  33  34
ATOM     34  C   UNL     1     -33.018  91.422  21.040  0.00  0.00    +0.000 C 
ATOM     35  C   UNL     1     -33.024  90.031  21.679  0.00  0.00    +0.000 C 
BRANCH  35  36
ATOM     36  C   UNL     1     -33.029  88.638  22.319  0.00  0.00    +0.000 C 
ATOM     37  C   UNL     1     -33.034  87.246  22.958  0.00  0.00    +0.000 C 
ATOM     38  C   UNL     1     -33.038  85.853  23.595  0.00  0.00    +0.000 C 
ENDBRANCH  35  36
ENDBRANCH  33  34
ENDBRANCH  31  32
ENDBRANCH  17  30
BRANCH  16  39
ATOM     39  O   UNL     1     -32.292  99.931  14.328  0.00  0.00    +0.000 OA
BRANCH  39  41
ATOM     40  O   UNL     1     -33.376 101.738  13.409  0.00  0.00    +0.000 OA
ATOM     41  C   UNL     1     -32.476 101.262  14.080  0.00  0.00    +0.000 C 
BRANCH  41  42
ATOM     42  C   UNL     1     -31.399 102.052  14.703  0.00  0.00    +0.000 A 
ATOM     43  C   UNL     1     -31.617 102.796  15.862  0.00  0.00    +0.000 A 
ATOM     44  C   UNL     1     -30.139 102.039  14.106  0.00  0.00    +0.000 A 
ATOM     45  C   UNL     1     -30.574 103.529  16.423  0.00  0.00    +0.000 A 
ATOM     46  C   UNL     1     -29.098 102.771  14.668  0.00  0.00    +0.000 A 
ATOM     47  C   UNL     1     -29.315 103.516  15.826  0.00  0.00    +0.000 A 
ENDBRANCH  41  42
ENDBRANCH  39  41
ENDBRANCH  16  39
BRANCH   9  48
ATOM     48  C   UNL     1     -34.806 103.103  20.601  0.00  0.00    +0.000 C 
BRANCH  48  49
ATOM     49  O   UNL     1     -34.650 104.033  21.538  0.00  0.00    +0.000 OA
ATOM     50  H   UNL     1     -34.381 103.626  22.380  0.00  0.00    +0.000 HD
ENDBRANCH  48  49
ENDBRANCH   9  48
TORSDOF 12
ENDMDL
MODEL 3
REMARK VINA RESULT:      -6.0      5.150     11.910
REMARK  Name = 5358691_Yuanhuacine.pdbqt.pdb
REMARK  12 active torsions:
REMARK  status: ('A' for Active; 'I' for Inactive)
REMARK    1  A    between atoms: C_9  and  C_48
REMARK    2  A    between atoms: C_13  and  C_23
REMARK    3  A    between atoms: C_14  and  O_26
REMARK    4  A    between atoms: C_15  and  O_28
REMARK    5  A    between atoms: C_16  and  O_39
REMARK    6  A    between atoms: C_17  and  C_30
REMARK    7  A    between atoms: C_31  and  C_32
REMARK    8  A    between atoms: C_33  and  C_34
REMARK    9  A    between atoms: C_35  and  C_36
REMARK   10  A    between atoms: O_39  and  C_41
REMARK   11  A    between atoms: C_41  and  C_42
REMARK   12  A    between atoms: C_48  and  O_49
REMARK                            x       y       z     vdW  Elec       q    Type
REMARK                         _______ _______ _______ _____ _____    ______ ____
ROOT
ATOM      1  O   UNL     1     -38.636 108.365   3.294  0.00  0.00    +0.000 OA
ATOM      2  O   UNL     1     -37.159 105.299   2.467  0.00  0.00    +0.000 OA
ATOM      3  O   UNL     1     -38.924 105.917   1.005  0.00  0.00    +0.000 OA
ATOM      4  O   UNL     1     -38.457 103.692   1.300  0.00  0.00    +0.000 OA
ATOM      5  O   UNL     1     -36.718 107.252   8.006  0.00  0.00    +0.000 OA
ATOM      6  C   UNL     1     -39.314 106.120   3.237  0.00  0.00    +0.000 C 
ATOM      7  C   UNL     1     -38.016 105.407   3.645  0.00  0.00    +0.000 C 
ATOM      8  C   UNL     1     -39.662 107.483   3.523  0.00  0.00    +0.000 C 
ATOM      9  C   UNL     1     -39.309 108.457   4.557  0.00  0.00    +0.000 C 
ATOM     10  C   UNL     1     -39.773 105.458   2.010  0.00  0.00    +0.000 C 
ATOM     11  C   UNL     1     -37.251 106.176   4.679  0.00  0.00    +0.000 C 
ATOM     12  C   UNL     1     -38.371 103.970   4.133  0.00  0.00    +0.000 C 
ATOM     13  C   UNL     1     -39.716 103.911   1.995  0.00  0.00    +0.000 C 
ATOM     14  C   UNL     1     -37.922 106.687   5.934  0.00  0.00    +0.000 C 
ATOM     15  C   UNL     1     -38.640 107.998   5.805  0.00  0.00    +0.000 C 
ATOM     16  C   UNL     1     -39.448 103.348   3.380  0.00  0.00    +0.000 C 
ATOM     17  C   UNL     1     -37.861 104.986   1.239  0.00  0.00    +0.000 C 
ATOM     18  C   UNL     1     -35.850 106.144   4.899  0.00  0.00    +0.000 C 
ATOM     19  C   UNL     1     -37.562 103.126   5.118  0.00  0.00    +0.000 C 
ATOM     20  C   UNL     1     -36.662 106.851   6.847  0.00  0.00    +0.000 C 
ATOM     21  C   UNL     1     -35.433 106.469   6.076  0.00  0.00    +0.000 C 
ATOM     22  C   UNL     1     -34.035 106.904   6.373  0.00  0.00    +0.000 C 
ENDROOT
BRANCH  13  23
ATOM     23  C   UNL     1     -40.936 103.347   1.230  0.00  0.00    +0.000 C 
ATOM     24  C   UNL     1     -42.346 103.930   1.315  0.00  0.00    +0.000 C 
ATOM     25  C   UNL     1     -40.951 102.132   0.644  0.00  0.00    +0.000 C 
ENDBRANCH  13  23
BRANCH  14  26
ATOM     26  O   UNL     1     -38.835 105.740   6.447  0.00  0.00    +0.000 OA
ATOM     27  H   UNL     1     -39.136 105.192   5.696  0.00  0.00    +0.000 HD
ENDBRANCH  14  26
BRANCH  15  28
ATOM     28  O   UNL     1     -38.835 108.728   6.980  0.00  0.00    +0.000 OA
ATOM     29  H   UNL     1     -38.147 108.599   7.668  0.00  0.00    +0.000 HD
ENDBRANCH  15  28
BRANCH  17  30
ATOM     30  C   UNL     1     -36.912 105.032   0.131  0.00  0.00    +0.000 C 
ATOM     31  C   UNL     1     -36.132 105.071  -0.780  0.00  0.00    +0.000 C 
BRANCH  31  32
ATOM     32  C   UNL     1     -35.135 105.122  -1.940  0.00  0.00    +0.000 C 
ATOM     33  C   UNL     1     -34.353 105.162  -2.851  0.00  0.00    +0.000 C 
BRANCH  33  34
ATOM     34  C   UNL     1     -33.358 105.215  -4.014  0.00  0.00    +0.000 C 
ATOM     35  C   UNL     1     -32.363 105.267  -5.176  0.00  0.00    +0.000 C 
BRANCH  35  36
ATOM     36  C   UNL     1     -31.367 105.318  -6.340  0.00  0.00    +0.000 C 
ATOM     37  C   UNL     1     -30.372 105.368  -7.502  0.00  0.00    +0.000 C 
ATOM     38  C   UNL     1     -29.375 105.418  -8.665  0.00  0.00    +0.000 C 
ENDBRANCH  35  36
ENDBRANCH  33  34
ENDBRANCH  31  32
ENDBRANCH  17  30
BRANCH  16  39
ATOM     39  O   UNL     1     -40.120 102.260   3.963  0.00  0.00    +0.000 OA
BRANCH  39  41
ATOM     40  O   UNL     1     -40.700 103.101   6.021  0.00  0.00    +0.000 OA
ATOM     41  C   UNL     1     -41.000 102.606   4.948  0.00  0.00    +0.000 C 
BRANCH  41  42
ATOM     42  C   UNL     1     -42.376 102.254   4.552  0.00  0.00    +0.000 A 
ATOM     43  C   UNL     1     -42.642 101.152   3.741  0.00  0.00    +0.000 A 
ATOM     44  C   UNL     1     -43.420 103.055   5.012  0.00  0.00    +0.000 A 
ATOM     45  C   UNL     1     -43.956 100.851   3.390  0.00  0.00    +0.000 A 
ATOM     46  C   UNL     1     -44.732 102.752   4.660  0.00  0.00    +0.000 A 
ATOM     47  C   UNL     1     -45.000 101.651   3.850  0.00  0.00    +0.000 A 
ENDBRANCH  41  42
ENDBRANCH  39  41
ENDBRANCH  16  39
BRANCH   9  48
ATOM     48  C   UNL     1     -40.071 109.697   4.617  0.00  0.00    +0.000 C 
BRANCH  48  49
ATOM     49  O   UNL     1     -40.772 110.826   4.671  0.00  0.00    +0.000 OA
ATOM     50  H   UNL     1     -40.678 111.324   3.840  0.00  0.00    +0.000 HD
ENDBRANCH  48  49
ENDBRANCH   9  48
TORSDOF 12
ENDMDL
MODEL 4
REMARK VINA RESULT:      -5.8     17.467     23.730
REMARK  Name = 5358691_Yuanhuacine.pdbqt.pdb
REMARK  12 active torsions:
REMARK  status: ('A' for Active; 'I' for Inactive)
REMARK    1  A    between atoms: C_9  and  C_48
REMARK    2  A    between atoms: C_13  and  C_23
REMARK    3  A    between atoms: C_14  and  O_26
REMARK    4  A    between atoms: C_15  and  O_28
REMARK    5  A    between atoms: C_16  and  O_39
REMARK    6  A    between atoms: C_17  and  C_30
REMARK    7  A    between atoms: C_31  and  C_32
REMARK    8  A    between atoms: C_33  and  C_34
REMARK    9  A    between atoms: C_35  and  C_36
REMARK   10  A    between atoms: O_39  and  C_41
REMARK   11  A    between atoms: C_41  and  C_42
REMARK   12  A    between atoms: C_48  and  O_49
REMARK                            x       y       z     vdW  Elec       q    Type
REMARK                         _______ _______ _______ _____ _____    ______ ____
ROOT
ATOM      1  O   UNL     1     -28.660 104.871  17.871  0.00  0.00    +0.000 OA
ATOM      2  O   UNL     1     -30.418 102.340  19.533  0.00  0.00    +0.000 OA
ATOM      3  O   UNL     1     -28.681 101.518  18.140  0.00  0.00    +0.000 OA
ATOM      4  O   UNL     1     -30.496 100.180  18.554  0.00  0.00    +0.000 OA
ATOM      5  O   UNL     1     -33.062 107.533  18.683  0.00  0.00    +0.000 OA
ATOM      6  C   UNL     1     -30.060 103.094  17.250  0.00  0.00    +0.000 C 
ATOM      7  C   UNL     1     -31.043 103.065  18.430  0.00  0.00    +0.000 C 
ATOM      8  C   UNL     1     -29.269 104.216  16.831  0.00  0.00    +0.000 C 
ATOM      9  C   UNL     1     -29.385 105.672  16.928  0.00  0.00    +0.000 C 
ATOM     10  C   UNL     1     -29.576 101.718  17.090  0.00  0.00    +0.000 C 
ATOM     11  C   UNL     1     -31.365 104.439  18.932  0.00  0.00    +0.000 C 
ATOM     12  C   UNL     1     -32.323 102.291  17.992  0.00  0.00    +0.000 C 
ATOM     13  C   UNL     1     -30.640 100.596  17.167  0.00  0.00    +0.000 C 
ATOM     14  C   UNL     1     -31.796 105.539  17.988  0.00  0.00    +0.000 C 
ATOM     15  C   UNL     1     -30.689 106.285  17.302  0.00  0.00    +0.000 C 
ATOM     16  C   UNL     1     -32.050 101.159  17.121  0.00  0.00    +0.000 C 
ATOM     17  C   UNL     1     -29.655 101.176  19.133  0.00  0.00    +0.000 C 
ATOM     18  C   UNL     1     -31.762 104.794  20.247  0.00  0.00    +0.000 C 
ATOM     19  C   UNL     1     -33.728 102.472  18.566  0.00  0.00    +0.000 C 
ATOM     20  C   UNL     1     -32.526 106.476  19.006  0.00  0.00    +0.000 C 
ATOM     21  C   UNL     1     -32.436 105.887  20.382  0.00  0.00    +0.000 C 
ATOM     22  C   UNL     1     -32.565 106.631  21.670  0.00  0.00    +0.000 C 
ENDROOT
BRANCH  13  23
ATOM     23  C   UNL     1     -30.296  99.475  16.159  0.00  0.00    +0.000 C 
ATOM     24  C   UNL     1     -29.857  99.723  14.717  0.00  0.00    +0.000 C 
ATOM     25  C   UNL     1     -30.617  98.178  16.350  0.00  0.00    +0.000 C 
ENDBRANCH  13  23
BRANCH  14  26
ATOM     26  O   UNL     1     -32.668 105.045  16.993  0.00  0.00    +0.000 OA
ATOM     27  H   UNL     1     -32.158 104.990  16.161  0.00  0.00    +0.000 HD
ENDBRANCH  14  26
BRANCH  15  28
ATOM     28  O   UNL     1     -30.987 107.568  16.836  0.00  0.00    +0.000 OA
ATOM     29  H   UNL     1     -31.846 107.931  17.143  0.00  0.00    +0.000 HD
ENDBRANCH  15  28
BRANCH  17  30
ATOM     30  C   UNL     1     -28.987 100.624  20.307  0.00  0.00    +0.000 C 
ATOM     31  C   UNL     1     -28.438 100.171  21.274  0.00  0.00    +0.000 C 
BRANCH  31  32
ATOM     32  C   UNL     1     -27.739  99.596  22.509  0.00  0.00    +0.000 C 
ATOM     33  C   UNL     1     -27.191  99.145  23.477  0.00  0.00    +0.000 C 
BRANCH  33  34
ATOM     34  C   UNL     1     -26.492  98.572  24.714  0.00  0.00    +0.000 C 
ATOM     35  C   UNL     1     -25.794  97.998  25.949  0.00  0.00    +0.000 C 
BRANCH  35  36
ATOM     36  C   UNL     1     -25.093  97.424  27.185  0.00  0.00    +0.000 C 
ATOM     37  C   UNL     1     -24.395  96.850  28.421  0.00  0.00    +0.000 C 
ATOM     38  C   UNL     1     -23.696  96.275  29.658  0.00  0.00    +0.000 C 
ENDBRANCH  35  36
ENDBRANCH  33  34
ENDBRANCH  31  32
ENDBRANCH  17  30
BRANCH  16  39
ATOM     39  O   UNL     1     -33.106 100.650  16.347  0.00  0.00    +0.000 OA
BRANCH  39  41
ATOM     40  O   UNL     1     -32.513 102.108  14.673  0.00  0.00    +0.000 OA
ATOM     41  C   UNL     1     -33.235 101.232  15.119  0.00  0.00    +0.000 C 
BRANCH  41  42
ATOM     42  C   UNL     1     -34.405 100.682  14.411  0.00  0.00    +0.000 A 
ATOM     43  C   UNL     1     -34.704 101.048  13.099  0.00  0.00    +0.000 A 
ATOM     44  C   UNL     1     -35.219  99.775  15.088  0.00  0.00    +0.000 A 
ATOM     45  C   UNL     1     -35.818 100.506  12.464  0.00  0.00    +0.000 A 
ATOM     46  C   UNL     1     -36.332  99.234  14.451  0.00  0.00    +0.000 A 
ATOM     47  C   UNL     1     -36.631  99.599  13.140  0.00  0.00    +0.000 A 
ENDBRANCH  41  42
ENDBRANCH  39  41
ENDBRANCH  16  39
BRANCH   9  48
ATOM     48  C   UNL     1     -28.454 106.485  16.158  0.00  0.00    +0.000 C 
BRANCH  48  49
ATOM     49  O   UNL     1     -27.607 107.226  15.449  0.00  0.00    +0.000 OA
ATOM     50  H   UNL     1     -27.159 107.872  16.022  0.00  0.00    +0.000 HD
ENDBRANCH  48  49
ENDBRANCH   9  48
TORSDOF 12
ENDMDL
MODEL 5
REMARK VINA RESULT:      -5.8     14.036     17.573
REMARK  Name = 5358691_Yuanhuacine.pdbqt.pdb
REMARK  12 active torsions:
REMARK  status: ('A' for Active; 'I' for Inactive)
REMARK    1  A    between atoms: C_9  and  C_48
REMARK    2  A    between atoms: C_13  and  C_23
REMARK    3  A    between atoms: C_14  and  O_26
REMARK    4  A    between atoms: C_15  and  O_28
REMARK    5  A    between atoms: C_16  and  O_39
REMARK    6  A    between atoms: C_17  and  C_30
REMARK    7  A    between atoms: C_31  and  C_32
REMARK    8  A    between atoms: C_33  and  C_34
REMARK    9  A    between atoms: C_35  and  C_36
REMARK   10  A    between atoms: O_39  and  C_41
REMARK   11  A    between atoms: C_41  and  C_42
REMARK   12  A    between atoms: C_48  and  O_49
REMARK                            x       y       z     vdW  Elec       q    Type
REMARK                         _______ _______ _______ _____ _____    ______ ____
ROOT
ATOM      1  O   UNL     1     -37.855 103.830  17.428  0.00  0.00    +0.000 OA
ATOM      2  O   UNL     1     -38.177 100.476  16.476  0.00  0.00    +0.000 OA
ATOM      3  O   UNL     1     -36.528 100.824  18.148  0.00  0.00    +0.000 OA
ATOM      4  O   UNL     1     -36.305  99.040  16.725  0.00  0.00    +0.000 OA
ATOM      5  O   UNL     1     -39.899 104.665  12.712  0.00  0.00    +0.000 OA
ATOM      6  C   UNL     1     -36.504 102.236  16.363  0.00  0.00    +0.000 C 
ATOM      7  C   UNL     1     -37.552 101.439  15.573  0.00  0.00    +0.000 C 
ATOM      8  C   UNL     1     -36.641 103.583  16.839  0.00  0.00    +0.000 C 
ATOM      9  C   UNL     1     -37.409 104.762  16.434  0.00  0.00    +0.000 C 
ATOM     10  C   UNL     1     -35.710 101.245  17.100  0.00  0.00    +0.000 C 
ATOM     11  C   UNL     1     -38.643 102.315  15.039  0.00  0.00    +0.000 C 
ATOM     12  C   UNL     1     -36.828 100.654  14.438  0.00  0.00    +0.000 C 
ATOM     13  C   UNL     1     -35.275  99.984  16.315  0.00  0.00    +0.000 C 
ATOM     14  C   UNL     1     -38.330 103.577  14.266  0.00  0.00    +0.000 C 
ATOM     15  C   UNL     1     -38.051 104.798  15.091  0.00  0.00    +0.000 C 
ATOM     16  C   UNL     1     -35.524 100.140  14.825  0.00  0.00    +0.000 C 
ATOM     17  C   UNL     1     -37.264  99.844  17.407  0.00  0.00    +0.000 C 
ATOM     18  C   UNL     1     -39.979 101.933  14.753  0.00  0.00    +0.000 C 
ATOM     19  C   UNL     1     -37.446 100.205  13.114  0.00  0.00    +0.000 C 
ATOM     20  C   UNL     1     -39.682 103.745  13.496  0.00  0.00    +0.000 C 
ATOM     21  C   UNL     1     -40.621 102.644  13.888  0.00  0.00    +0.000 C 
ATOM     22  C   UNL     1     -42.110 102.674  13.777  0.00  0.00    +0.000 C 
ENDROOT
BRANCH  13  23
ATOM     23  C   UNL     1     -33.854  99.557  16.751  0.00  0.00    +0.000 C 
ATOM     24  C   UNL     1     -33.243  98.187  16.460  0.00  0.00    +0.000 C 
ATOM     25  C   UNL     1     -33.122 100.227  17.664  0.00  0.00    +0.000 C 
ENDBRANCH  13  23
BRANCH  14  26
ATOM     26  O   UNL     1     -37.237 103.383  13.393  0.00  0.00    +0.000 OA
ATOM     27  H   UNL     1     -36.953 102.452  13.488  0.00  0.00    +0.000 HD
ENDBRANCH  14  26
BRANCH  15  28
ATOM     28  O   UNL     1     -38.243 106.036  14.471  0.00  0.00    +0.000 OA
ATOM     29  H   UNL     1     -38.471 105.991  13.518  0.00  0.00    +0.000 HD
ENDBRANCH  15  28
BRANCH  17  30
ATOM     30  C   UNL     1     -38.033  99.008  18.325  0.00  0.00    +0.000 C 
ATOM     31  C   UNL     1     -38.663  98.320  19.079  0.00  0.00    +0.000 C 
BRANCH  31  32
ATOM     32  C   UNL     1     -39.465  97.441  20.042  0.00  0.00    +0.000 C 
ATOM     33  C   UNL     1     -40.094  96.751  20.797  0.00  0.00    +0.000 C 
BRANCH  33  34
ATOM     34  C   UNL     1     -40.897  95.869  21.758  0.00  0.00    +0.000 C 
ATOM     35  C   UNL     1     -41.698  94.987  22.719  0.00  0.00    +0.000 C 
BRANCH  35  36
ATOM     36  C   UNL     1     -42.501  94.106  23.683  0.00  0.00    +0.000 C 
ATOM     37  C   UNL     1     -43.303  93.225  24.644  0.00  0.00    +0.000 C 
ATOM     38  C   UNL     1     -44.105  92.342  25.606  0.00  0.00    +0.000 C 
ENDBRANCH  35  36
ENDBRANCH  33  34
ENDBRANCH  31  32
ENDBRANCH  17  30
BRANCH  16  39
ATOM     39  O   UNL     1     -34.623  99.788  13.806  0.00  0.00    +0.000 OA
BRANCH  39  41
ATOM     40  O   UNL     1     -34.367 101.359  12.149  0.00  0.00    +0.000 OA
ATOM     41  C   UNL     1     -34.016 100.851  13.200  0.00  0.00    +0.000 C 
BRANCH  41  42
ATOM     42  C   UNL     1     -32.839 101.280  13.977  0.00  0.00    +0.000 A 
ATOM     43  C   UNL     1     -32.848 102.456  14.727  0.00  0.00    +0.000 A 
ATOM     44  C   UNL     1     -31.701 100.476  13.949  0.00  0.00    +0.000 A 
ATOM     45  C   UNL     1     -31.717 102.827  15.449  0.00  0.00    +0.000 A 
ATOM     46  C   UNL     1     -30.571 100.848  14.672  0.00  0.00    +0.000 A 
ATOM     47  C   UNL     1     -30.580 102.023  15.421  0.00  0.00    +0.000 A 
ENDBRANCH  41  42
ENDBRANCH  39  41
ENDBRANCH  16  39
BRANCH   9  48
ATOM     48  C   UNL     1     -37.090 106.036  17.063  0.00  0.00    +0.000 C 
BRANCH  48  49
ATOM     49  O   UNL     1     -36.804 107.199  17.641  0.00  0.00    +0.000 OA
ATOM     50  H   UNL     1     -35.847 107.372  17.603  0.00  0.00    +0.000 HD
ENDBRANCH  48  49
ENDBRANCH   9  48
TORSDOF 12
ENDMDL
MODEL 6
REMARK VINA RESULT:      -5.7     20.132     23.118
REMARK  Name = 5358691_Yuanhuacine.pdbqt.pdb
REMARK  12 active torsions:
REMARK  status: ('A' for Active; 'I' for Inactive)
REMARK    1  A    between atoms: C_9  and  C_48
REMARK    2  A    between atoms: C_13  and  C_23
REMARK    3  A    between atoms: C_14  and  O_26
REMARK    4  A    between atoms: C_15  and  O_28
REMARK    5  A    between atoms: C_16  and  O_39
REMARK    6  A    between atoms: C_17  and  C_30
REMARK    7  A    between atoms: C_31  and  C_32
REMARK    8  A    between atoms: C_33  and  C_34
REMARK    9  A    between atoms: C_35  and  C_36
REMARK   10  A    between atoms: O_39  and  C_41
REMARK   11  A    between atoms: C_41  and  C_42
REMARK   12  A    between atoms: C_48  and  O_49
REMARK                            x       y       z     vdW  Elec       q    Type
REMARK                         _______ _______ _______ _____ _____    ______ ____
ROOT
ATOM      1  O   UNL     1     -20.696 105.495   3.619  0.00  0.00    +0.000 OA
ATOM      2  O   UNL     1     -23.636 104.647   5.320  0.00  0.00    +0.000 OA
ATOM      3  O   UNL     1     -21.804 105.074   6.767  0.00  0.00    +0.000 OA
ATOM      4  O   UNL     1     -23.460 103.651   7.466  0.00  0.00    +0.000 OA
ATOM      5  O   UNL     1     -23.003 102.919  -0.275  0.00  0.00    +0.000 OA
ATOM      6  C   UNL     1     -21.414 103.723   4.978  0.00  0.00    +0.000 C 
ATOM      7  C   UNL     1     -22.895 103.627   4.582  0.00  0.00    +0.000 C 
ATOM      8  C   UNL     1     -20.359 104.294   4.190  0.00  0.00    +0.000 C 
ATOM      9  C   UNL     1     -20.117 104.502   2.761  0.00  0.00    +0.000 C 
ATOM     10  C   UNL     1     -21.388 103.783   6.444  0.00  0.00    +0.000 C 
ATOM     11  C   UNL     1     -23.109 103.895   3.124  0.00  0.00    +0.000 C 
ATOM     12  C   UNL     1     -23.431 102.225   5.001  0.00  0.00    +0.000 C 
ATOM     13  C   UNL     1     -22.314 102.796   7.194  0.00  0.00    +0.000 C 
ATOM     14  C   UNL     1     -22.292 103.185   2.067  0.00  0.00    +0.000 C 
ATOM     15  C   UNL     1     -20.953 103.788   1.759  0.00  0.00    +0.000 C 
ATOM     16  C   UNL     1     -22.883 101.743   6.259  0.00  0.00    +0.000 C 
ATOM     17  C   UNL     1     -23.212 104.823   6.694  0.00  0.00    +0.000 C 
ATOM     18  C   UNL     1     -24.283 104.408   2.515  0.00  0.00    +0.000 C 
ATOM     19  C   UNL     1     -24.597 101.474   4.356  0.00  0.00    +0.000 C 
ATOM     20  C   UNL     1     -23.254 103.357   0.845  0.00  0.00    +0.000 C 
ATOM     21  C   UNL     1     -24.465 104.134   1.267  0.00  0.00    +0.000 C 
ATOM     22  C   UNL     1     -25.373 104.909   0.370  0.00  0.00    +0.000 C 
ENDROOT
BRANCH  13  23
ATOM     23  C   UNL     1     -21.616 102.292   8.479  0.00  0.00    +0.000 C 
ATOM     24  C   UNL     1     -22.349 101.661   9.662  0.00  0.00    +0.000 C 
ATOM     25  C   UNL     1     -20.347 102.609   8.811  0.00  0.00    +0.000 C 
ENDBRANCH  13  23
BRANCH  14  26
ATOM     26  O   UNL     1     -22.090 101.829   2.403  0.00  0.00    +0.000 OA
ATOM     27  H   UNL     1     -21.188 101.752   2.772  0.00  0.00    +0.000 HD
ENDBRANCH  14  26
BRANCH  15  28
ATOM     28  O   UNL     1     -20.401 103.494   0.509  0.00  0.00    +0.000 OA
ATOM     29  H   UNL     1     -19.933 102.634   0.456  0.00  0.00    +0.000 HD
ENDBRANCH  15  28
BRANCH  17  30
ATOM     30  C   UNL     1     -23.943 105.947   7.270  0.00  0.00    +0.000 C 
ATOM     31  C   UNL     1     -24.543 106.871   7.747  0.00  0.00    +0.000 C 
BRANCH  31  32
ATOM     32  C   UNL     1     -25.308 108.050   8.355  0.00  0.00    +0.000 C 
ATOM     33  C   UNL     1     -25.908 108.974   8.831  0.00  0.00    +0.000 C 
BRANCH  33  34
ATOM     34  C   UNL     1     -26.675 110.154   9.436  0.00  0.00    +0.000 C 
ATOM     35  C   UNL     1     -27.442 111.332  10.041  0.00  0.00    +0.000 C 
BRANCH  35  36
ATOM     36  C   UNL     1     -28.211 112.511  10.648  0.00  0.00    +0.000 C 
ATOM     37  C   UNL     1     -28.980 113.689  11.254  0.00  0.00    +0.000 C 
ATOM     38  C   UNL     1     -29.750 114.866  11.860  0.00  0.00    +0.000 C 
ENDBRANCH  35  36
ENDBRANCH  33  34
ENDBRANCH  31  32
ENDBRANCH  17  30
BRANCH  16  39
ATOM     39  O   UNL     1     -22.962 100.367   6.531  0.00  0.00    +0.000 OA
BRANCH  39  41
ATOM     40  O   UNL     1     -22.207  99.060   4.798  0.00  0.00    +0.000 OA
ATOM     41  C   UNL     1     -22.035  99.610   5.872  0.00  0.00    +0.000 C 
BRANCH  41  42
ATOM     42  C   UNL     1     -20.797  99.511   6.666  0.00  0.00    +0.000 A 
ATOM     43  C   UNL     1     -20.766  98.840   7.888  0.00  0.00    +0.000 A 
ATOM     44  C   UNL     1     -19.642 100.108   6.165  0.00  0.00    +0.000 A 
ATOM     45  C   UNL     1     -19.576  98.766   8.609  0.00  0.00    +0.000 A 
ATOM     46  C   UNL     1     -18.454 100.033   6.887  0.00  0.00    +0.000 A 
ATOM     47  C   UNL     1     -18.422  99.362   8.108  0.00  0.00    +0.000 A 
ENDBRANCH  41  42
ENDBRANCH  39  41
ENDBRANCH  16  39
BRANCH   9  48
ATOM     48  C   UNL     1     -18.786 104.928   2.348  0.00  0.00    +0.000 C 
BRANCH  48  49
ATOM     49  O   UNL     1     -17.570 105.320   1.977  0.00  0.00    +0.000 OA
ATOM     50  H   UNL     1     -16.916 104.625   2.166  0.00  0.00    +0.000 HD
ENDBRANCH  48  49
ENDBRANCH   9  48
TORSDOF 12
ENDMDL
MODEL 7
REMARK VINA RESULT:      -5.6     20.052     25.731
REMARK  Name = 5358691_Yuanhuacine.pdbqt.pdb
REMARK  12 active torsions:
REMARK  status: ('A' for Active; 'I' for Inactive)
REMARK    1  A    between atoms: C_9  and  C_48
REMARK    2  A    between atoms: C_13  and  C_23
REMARK    3  A    between atoms: C_14  and  O_26
REMARK    4  A    between atoms: C_15  and  O_28
REMARK    5  A    between atoms: C_16  and  O_39
REMARK    6  A    between atoms: C_17  and  C_30
REMARK    7  A    between atoms: C_31  and  C_32
REMARK    8  A    between atoms: C_33  and  C_34
REMARK    9  A    between atoms: C_35  and  C_36
REMARK   10  A    between atoms: O_39  and  C_41
REMARK   11  A    between atoms: C_41  and  C_42
REMARK   12  A    between atoms: C_48  and  O_49
REMARK                            x       y       z     vdW  Elec       q    Type
REMARK                         _______ _______ _______ _____ _____    ______ ____
ROOT
ATOM      1  O   UNL     1     -27.569 101.347  18.154  0.00  0.00    +0.000 OA
ATOM      2  O   UNL     1     -29.209 100.948  21.222  0.00  0.00    +0.000 OA
ATOM      3  O   UNL     1     -28.742  98.892  20.131  0.00  0.00    +0.000 OA
ATOM      4  O   UNL     1     -30.534  99.008  21.557  0.00  0.00    +0.000 OA
ATOM      5  O   UNL     1     -29.752 106.071  18.368  0.00  0.00    +0.000 OA
ATOM      6  C   UNL     1     -29.657 100.548  18.866  0.00  0.00    +0.000 C 
ATOM      7  C   UNL     1     -29.934 101.467  20.064  0.00  0.00    +0.000 C 
ATOM      8  C   UNL     1     -28.778 100.826  17.766  0.00  0.00    +0.000 C 
ATOM      9  C   UNL     1     -28.274 102.034  17.111  0.00  0.00    +0.000 C 
ATOM     10  C   UNL     1     -29.861  99.177  19.350  0.00  0.00    +0.000 C 
ATOM     11  C   UNL     1     -29.446 102.864  19.830  0.00  0.00    +0.000 C 
ATOM     12  C   UNL     1     -31.460 101.429  20.378  0.00  0.00    +0.000 C 
ATOM     13  C   UNL     1     -31.114  98.931  20.225  0.00  0.00    +0.000 C 
ATOM     14  C   UNL     1     -29.799 103.617  18.566  0.00  0.00    +0.000 C 
ATOM     15  C   UNL     1     -28.927 103.345  17.376  0.00  0.00    +0.000 C 
ATOM     16  C   UNL     1     -32.060 100.118  20.191  0.00  0.00    +0.000 C 
ATOM     17  C   UNL     1     -29.215  99.503  21.337  0.00  0.00    +0.000 C 
ATOM     18  C   UNL     1     -29.041 103.802  20.814  0.00  0.00    +0.000 C 
ATOM     19  C   UNL     1     -32.270 102.534  21.056  0.00  0.00    +0.000 C 
ATOM     20  C   UNL     1     -29.576 105.081  19.073  0.00  0.00    +0.000 C 
ATOM     21  C   UNL     1     -29.111 105.051  20.498  0.00  0.00    +0.000 C 
ATOM     22  C   UNL     1     -28.354 106.130  21.202  0.00  0.00    +0.000 C 
ENDROOT
BRANCH  13  23
ATOM     23  C   UNL     1     -31.715  97.542  19.905  0.00  0.00    +0.000 C 
ATOM     24  C   UNL     1     -32.938  96.955  20.608  0.00  0.00    +0.000 C 
ATOM     25  C   UNL     1     -31.070  96.598  19.190  0.00  0.00    +0.000 C 
ENDBRANCH  13  23
BRANCH  14  26
ATOM     26  O   UNL     1     -31.138 103.379  18.188  0.00  0.00    +0.000 OA
ATOM     27  H   UNL     1     -31.706 103.695  18.919  0.00  0.00    +0.000 HD
ENDBRANCH  14  26
BRANCH  15  28
ATOM     28  O   UNL     1     -28.889 104.328  16.384  0.00  0.00    +0.000 OA
ATOM     29  H   UNL     1     -29.293 104.070  15.529  0.00  0.00    +0.000 HD
ENDBRANCH  15  28
BRANCH  17  30
ATOM     30  C   UNL     1     -28.359  99.117  22.454  0.00  0.00    +0.000 C 
ATOM     31  C   UNL     1     -27.656  98.798  23.373  0.00  0.00    +0.000 C 
BRANCH  31  32
ATOM     32  C   UNL     1     -26.760  98.389  24.545  0.00  0.00    +0.000 C 
ATOM     33  C   UNL     1     -26.056  98.070  25.463  0.00  0.00    +0.000 C 
BRANCH  33  34
ATOM     34  C   UNL     1     -25.157  97.663  26.635  0.00  0.00    +0.000 C 
ATOM     35  C   UNL     1     -24.258  97.256  27.805  0.00  0.00    +0.000 C 
BRANCH  35  36
ATOM     36  C   UNL     1     -23.357  96.848  28.976  0.00  0.00    +0.000 C 
ATOM     37  C   UNL     1     -22.456  96.441  30.145  0.00  0.00    +0.000 C 
ATOM     38  C   UNL     1     -21.554  96.034  31.315  0.00  0.00    +0.000 C 
ENDBRANCH  35  36
ENDBRANCH  33  34
ENDBRANCH  31  32
ENDBRANCH  17  30
BRANCH  16  39
ATOM     39  O   UNL     1     -33.456 100.045  20.043  0.00  0.00    +0.000 OA
BRANCH  39  41
ATOM     40  O   UNL     1     -34.705 101.544  18.828  0.00  0.00    +0.000 OA
ATOM     41  C   UNL     1     -33.928 100.606  18.890  0.00  0.00    +0.000 C 
BRANCH  41  42
ATOM     42  C   UNL     1     -33.400  99.887  17.717  0.00  0.00    +0.000 A 
ATOM     43  C   UNL     1     -33.762  98.568  17.446  0.00  0.00    +0.000 A 
ATOM     44  C   UNL     1     -32.520 100.560  16.871  0.00  0.00    +0.000 A 
ATOM     45  C   UNL     1     -33.243  97.922  16.326  0.00  0.00    +0.000 A 
ATOM     46  C   UNL     1     -32.004  99.913  15.752  0.00  0.00    +0.000 A 
ATOM     47  C   UNL     1     -32.365  98.595  15.480  0.00  0.00    +0.000 A 
ENDBRANCH  41  42
ENDBRANCH  39  41
ENDBRANCH  16  39
BRANCH   9  48
ATOM     48  C   UNL     1     -27.557 101.881  15.852  0.00  0.00    +0.000 C 
BRANCH  48  49
ATOM     49  O   UNL     1     -26.907 101.743  14.700  0.00  0.00    +0.000 OA
ATOM     50  H   UNL     1     -27.466 101.289  14.046  0.00  0.00    +0.000 HD
ENDBRANCH  48  49
ENDBRANCH   9  48
TORSDOF 12
ENDMDL
MODEL 8
REMARK VINA RESULT:      -5.6     23.790     26.531
REMARK  Name = 5358691_Yuanhuacine.pdbqt.pdb
REMARK  12 active torsions:
REMARK  status: ('A' for Active; 'I' for Inactive)
REMARK    1  A    between atoms: C_9  and  C_48
REMARK    2  A    between atoms: C_13  and  C_23
REMARK    3  A    between atoms: C_14  and  O_26
REMARK    4  A    between atoms: C_15  and  O_28
REMARK    5  A    between atoms: C_16  and  O_39
REMARK    6  A    between atoms: C_17  and  C_30
REMARK    7  A    between atoms: C_31  and  C_32
REMARK    8  A    between atoms: C_33  and  C_34
REMARK    9  A    between atoms: C_35  and  C_36
REMARK   10  A    between atoms: O_39  and  C_41
REMARK   11  A    between atoms: C_41  and  C_42
REMARK   12  A    between atoms: C_48  and  O_49
REMARK                            x       y       z     vdW  Elec       q    Type
REMARK                         _______ _______ _______ _____ _____    ______ ____
ROOT
ATOM      1  O   UNL     1     -25.669  87.890  -3.921  0.00  0.00    +0.000 OA
ATOM      2  O   UNL     1     -26.039  84.573  -4.978  0.00  0.00    +0.000 OA
ATOM      3  O   UNL     1     -23.921  85.017  -4.003  0.00  0.00    +0.000 OA
ATOM      4  O   UNL     1     -24.095  83.342  -5.558  0.00  0.00    +0.000 OA
ATOM      5  O   UNL     1     -29.387  88.728  -7.469  0.00  0.00    +0.000 OA
ATOM      6  C   UNL     1     -24.683  86.510  -5.542  0.00  0.00    +0.000 C 
ATOM      7  C   UNL     1     -25.879  85.643  -5.960  0.00  0.00    +0.000 C 
ATOM      8  C   UNL     1     -24.746  87.809  -4.933  0.00  0.00    +0.000 C 
ATOM      9  C   UNL     1     -25.706  88.914  -4.924  0.00  0.00    +0.000 C 
ATOM     10  C   UNL     1     -23.591  85.578  -5.236  0.00  0.00    +0.000 C 
ATOM     11  C   UNL     1     -27.161  86.418  -5.978  0.00  0.00    +0.000 C 
ATOM     12  C   UNL     1     -25.567  85.001  -7.345  0.00  0.00    +0.000 C 
ATOM     13  C   UNL     1     -23.376  84.413  -6.233  0.00  0.00    +0.000 C 
ATOM     14  C   UNL     1     -27.266  87.744  -6.699  0.00  0.00    +0.000 C 
ATOM     15  C   UNL     1     -26.803  88.946  -5.930  0.00  0.00    +0.000 C 
ATOM     16  C   UNL     1     -24.175  84.615  -7.508  0.00  0.00    +0.000 C 
ATOM     17  C   UNL     1     -24.795  84.000  -4.505  0.00  0.00    +0.000 C 
ATOM     18  C   UNL     1     -28.470  85.905  -5.787  0.00  0.00    +0.000 C 
ATOM     19  C   UNL     1     -26.595  84.552  -8.384  0.00  0.00    +0.000 C 
ATOM     20  C   UNL     1     -28.816  87.800  -6.903  0.00  0.00    +0.000 C 
ATOM     21  C   UNL     1     -29.445  86.584  -6.291  0.00  0.00    +0.000 C 
ATOM     22  C   UNL     1     -30.865  86.454  -5.847  0.00  0.00    +0.000 C 
ENDROOT
BRANCH  13  23
ATOM     23  C   UNL     1     -21.865  84.125  -6.387  0.00  0.00    +0.000 C 
ATOM     24  C   UNL     1     -21.291  82.797  -6.878  0.00  0.00    +0.000 C 
ATOM     25  C   UNL     1     -20.900  84.896  -5.844  0.00  0.00    +0.000 C 
ENDBRANCH  13  23
BRANCH  14  26
ATOM     26  O   UNL     1     -26.565  87.716  -7.924  0.00  0.00    +0.000 OA
ATOM     27  H   UNL     1     -26.469  86.777  -8.182  0.00  0.00    +0.000 HD
ENDBRANCH  14  26
BRANCH  15  28
ATOM     28  O   UNL     1     -27.316  90.184  -6.325  0.00  0.00    +0.000 OA
ATOM     29  H   UNL     1     -28.062  90.516  -5.782  0.00  0.00    +0.000 HD
ENDBRANCH  15  28
BRANCH  17  30
ATOM     30  C   UNL     1     -25.092  83.040  -3.447  0.00  0.00    +0.000 C 
ATOM     31  C   UNL     1     -25.339  82.251  -2.576  0.00  0.00    +0.000 C 
BRANCH  31  32
ATOM     32  C   UNL     1     -25.654  81.244  -1.467  0.00  0.00    +0.000 C 
ATOM     33  C   UNL     1     -25.902  80.455  -0.597  0.00  0.00    +0.000 C 
BRANCH  33  34
ATOM     34  C   UNL     1     -26.220  79.450   0.515  0.00  0.00    +0.000 C 
ATOM     35  C   UNL     1     -26.536  78.447   1.627  0.00  0.00    +0.000 C 
BRANCH  35  36
ATOM     36  C   UNL     1     -26.853  77.443   2.741  0.00  0.00    +0.000 C 
ATOM     37  C   UNL     1     -27.169  76.439   3.853  0.00  0.00    +0.000 C 
ATOM     38  C   UNL     1     -27.484  75.435   4.967  0.00  0.00    +0.000 C 
ENDBRANCH  35  36
ENDBRANCH  33  34
ENDBRANCH  31  32
ENDBRANCH  17  30
BRANCH  16  39
ATOM     39  O   UNL     1     -23.693  84.416  -8.813  0.00  0.00    +0.000 OA
BRANCH  39  41
ATOM     40  O   UNL     1     -24.290  85.932 -10.433  0.00  0.00    +0.000 OA
ATOM     41  C   UNL     1     -23.547  85.563  -9.539  0.00  0.00    +0.000 C 
BRANCH  41  42
ATOM     42  C   UNL     1     -22.331  86.283  -9.122  0.00  0.00    +0.000 A 
ATOM     43  C   UNL     1     -22.397  87.432  -8.334  0.00  0.00    +0.000 A 
ATOM     44  C   UNL     1     -21.095  85.785  -9.532  0.00  0.00    +0.000 A 
ATOM     45  C   UNL     1     -21.225  88.084  -7.958  0.00  0.00    +0.000 A 
ATOM     46  C   UNL     1     -19.925  86.438  -9.155  0.00  0.00    +0.000 A 
ATOM     47  C   UNL     1     -19.990  87.586  -8.369  0.00  0.00    +0.000 A 
ENDBRANCH  41  42
ENDBRANCH  39  41
ENDBRANCH  16  39
BRANCH   9  48
ATOM     48  C   UNL     1     -25.283  90.182  -4.347  0.00  0.00    +0.000 C 
BRANCH  48  49
ATOM     49  O   UNL     1     -24.892  91.340  -3.822  0.00  0.00    +0.000 OA
ATOM     50  H   UNL     1     -24.510  91.913  -4.509  0.00  0.00    +0.000 HD
ENDBRANCH  48  49
ENDBRANCH   9  48
TORSDOF 12
ENDMDL
MODEL 9
REMARK VINA RESULT:      -5.5     18.099     21.516
REMARK  Name = 5358691_Yuanhuacine.pdbqt.pdb
REMARK  12 active torsions:
REMARK  status: ('A' for Active; 'I' for Inactive)
REMARK    1  A    between atoms: C_9  and  C_48
REMARK    2  A    between atoms: C_13  and  C_23
REMARK    3  A    between atoms: C_14  and  O_26
REMARK    4  A    between atoms: C_15  and  O_28
REMARK    5  A    between atoms: C_16  and  O_39
REMARK    6  A    between atoms: C_17  and  C_30
REMARK    7  A    between atoms: C_31  and  C_32
REMARK    8  A    between atoms: C_33  and  C_34
REMARK    9  A    between atoms: C_35  and  C_36
REMARK   10  A    between atoms: O_39  and  C_41
REMARK   11  A    between atoms: C_41  and  C_42
REMARK   12  A    between atoms: C_48  and  O_49
REMARK                            x       y       z     vdW  Elec       q    Type
REMARK                         _______ _______ _______ _____ _____    ______ ____
ROOT
ATOM      1  O   UNL     1     -36.446  85.376  -7.369  0.00  0.00    +0.000 OA
ATOM      2  O   UNL     1     -34.508  86.642  -4.742  0.00  0.00    +0.000 OA
ATOM      3  O   UNL     1     -34.090  84.350  -5.198  0.00  0.00    +0.000 OA
ATOM      4  O   UNL     1     -33.735  85.140  -3.075  0.00  0.00    +0.000 OA
ATOM      5  O   UNL     1     -39.576  89.331  -6.073  0.00  0.00    +0.000 OA
ATOM      6  C   UNL     1     -36.268  84.996  -5.061  0.00  0.00    +0.000 C 
ATOM      7  C   UNL     1     -35.937  86.406  -4.553  0.00  0.00    +0.000 C 
ATOM      8  C   UNL     1     -36.924  84.669  -6.295  0.00  0.00    +0.000 C 
ATOM      9  C   UNL     1     -37.868  85.344  -7.188  0.00  0.00    +0.000 C 
ATOM     10  C   UNL     1     -35.258  84.105  -4.477  0.00  0.00    +0.000 C 
ATOM     11  C   UNL     1     -36.664  87.469  -5.319  0.00  0.00    +0.000 C 
ATOM     12  C   UNL     1     -36.252  86.471  -3.028  0.00  0.00    +0.000 C 
ATOM     13  C   UNL     1     -34.931  84.318  -2.978  0.00  0.00    +0.000 C 
ATOM     14  C   UNL     1     -38.157  87.388  -5.549  0.00  0.00    +0.000 C 
ATOM     15  C   UNL     1     -38.597  86.552  -6.714  0.00  0.00    +0.000 C 
ATOM     16  C   UNL     1     -35.935  85.245  -2.314  0.00  0.00    +0.000 C 
ATOM     17  C   UNL     1     -33.667  85.498  -4.454  0.00  0.00    +0.000 C 
ATOM     18  C   UNL     1     -36.250  88.811  -5.516  0.00  0.00    +0.000 C 
ATOM     19  C   UNL     1     -36.617  87.726  -2.233  0.00  0.00    +0.000 C 
ATOM     20  C   UNL     1     -38.452  88.899  -5.829  0.00  0.00    +0.000 C 
ATOM     21  C   UNL     1     -37.172  89.678  -5.771  0.00  0.00    +0.000 C 
ATOM     22  C   UNL     1     -36.914  91.001  -6.413  0.00  0.00    +0.000 C 
ENDROOT
BRANCH  13  23
ATOM     23  C   UNL     1     -34.675  82.953  -2.297  0.00  0.00    +0.000 C 
ATOM     24  C   UNL     1     -35.578  81.732  -2.458  0.00  0.00    +0.000 C 
ATOM     25  C   UNL     1     -33.806  82.780  -1.280  0.00  0.00    +0.000 C 
ENDBRANCH  13  23
BRANCH  14  26
ATOM     26  O   UNL     1     -38.826  86.917  -4.398  0.00  0.00    +0.000 OA
ATOM     27  H   UNL     1     -38.142  86.682  -3.741  0.00  0.00    +0.000 HD
ENDBRANCH  14  26
BRANCH  15  28
ATOM     28  O   UNL     1     -39.856  86.832  -7.252  0.00  0.00    +0.000 OA
ATOM     29  H   UNL     1     -40.005  87.773  -7.489  0.00  0.00    +0.000 HD
ENDBRANCH  15  28
BRANCH  17  30
ATOM     30  C   UNL     1     -32.288  85.830  -4.801  0.00  0.00    +0.000 C 
ATOM     31  C   UNL     1     -31.154  86.102  -5.085  0.00  0.00    +0.000 C 
BRANCH  31  32
ATOM     32  C   UNL     1     -29.707  86.448  -5.446  0.00  0.00    +0.000 C 
ATOM     33  C   UNL     1     -28.572  86.719  -5.728  0.00  0.00    +0.000 C 
BRANCH  33  34
ATOM     34  C   UNL     1     -27.124  87.066  -6.085  0.00  0.00    +0.000 C 
ATOM     35  C   UNL     1     -25.676  87.411  -6.442  0.00  0.00    +0.000 C 
BRANCH  35  36
ATOM     36  C   UNL     1     -24.226  87.756  -6.801  0.00  0.00    +0.000 C 
ATOM     37  C   UNL     1     -22.778  88.101  -7.158  0.00  0.00    +0.000 C 
ATOM     38  C   UNL     1     -21.328  88.446  -7.514  0.00  0.00    +0.000 C 
ENDBRANCH  35  36
ENDBRANCH  33  34
ENDBRANCH  31  32
ENDBRANCH  17  30
BRANCH  16  39
ATOM     39  O   UNL     1     -36.535  85.034  -1.061  0.00  0.00    +0.000 OA
BRANCH  39  41
ATOM     40  O   UNL     1     -38.700  84.944  -1.827  0.00  0.00    +0.000 OA
ATOM     41  C   UNL     1     -37.798  84.520  -1.123  0.00  0.00    +0.000 C 
BRANCH  41  42
ATOM     42  C   UNL     1     -37.940  83.396  -0.181  0.00  0.00    +0.000 A 
ATOM     43  C   UNL     1     -36.914  83.044   0.696  0.00  0.00    +0.000 A 
ATOM     44  C   UNL     1     -39.138  82.681  -0.181  0.00  0.00    +0.000 A 
ATOM     45  C   UNL     1     -37.087  81.977   1.574  0.00  0.00    +0.000 A 
ATOM     46  C   UNL     1     -39.308  81.615   0.698  0.00  0.00    +0.000 A 
ATOM     47  C   UNL     1     -38.283  81.263   1.574  0.00  0.00    +0.000 A 
ENDBRANCH  41  42
ENDBRANCH  39  41
ENDBRANCH  16  39
BRANCH   9  48
ATOM     48  C   UNL     1     -38.480  84.562  -8.253  0.00  0.00    +0.000 C 
BRANCH  48  49
ATOM     49  O   UNL     1     -39.039  83.853  -9.230  0.00  0.00    +0.000 OA
ATOM     50  H   UNL     1     -38.512  83.056  -9.417  0.00  0.00    +0.000 HD
ENDBRANCH  48  49
ENDBRANCH   9  48
TORSDOF 12
ENDMDL
