MODEL 1
REMARK VINA RESULT:      -4.8      0.000      0.000
REMARK  Name = 5386_Tegafur.pdbqt.pdb
REMARK  1 active torsions:
REMARK  status: ('A' for Active; 'I' for Inactive)
REMARK    1  A    between atoms: N_4  and  C_12
REMARK                            x       y       z     vdW  Elec       q    Type
REMARK                         _______ _______ _______ _____ _____    ______ ____
ROOT
ATOM      1  F   UNL     1     -36.927  98.754  15.906  0.00  0.00    +0.000 F 
ATOM      2  O   UNL     1     -34.673 101.364  11.710  0.00  0.00    +0.000 OA
ATOM      3  O   UNL     1     -38.310  99.190  13.477  0.00  0.00    +0.000 OA
ATOM      4  N   UNL     1     -34.600 100.758  13.995  0.00  0.00    +0.000 N 
ATOM      5  N   UNL     1     -36.494 100.350  12.666  0.00  0.00    +0.000 N 
ATOM      6  C   UNL     1     -35.183 100.879  12.713  0.00  0.00    +0.000 C 
ATOM      7  C   UNL     1     -35.343 100.174  14.958  0.00  0.00    +0.000 C 
ATOM      8  C   UNL     1     -36.530  99.672  15.010  0.00  0.00    +0.000 C 
ATOM      9  C   UNL     1     -37.216  99.702  13.677  0.00  0.00    +0.000 C 
ATOM     10  H   UNL     1     -36.938 100.379  11.759  0.00  0.00    +0.000 HD
ENDROOT
BRANCH   4  12
ATOM     11  O   UNL     1     -33.100 102.327  15.081  0.00  0.00    +0.000 OA
ATOM     12  C   UNL     1     -33.342 101.190  14.301  0.00  0.00    +0.000 C 
ATOM     13  C   UNL     1     -32.090 100.635  13.923  0.00  0.00    +0.000 C 
ATOM     14  C   UNL     1     -30.759 101.256  14.353  0.00  0.00    +0.000 C 
ATOM     15  C   UNL     1     -31.768 102.203  15.000  0.00  0.00    +0.000 C 
ENDBRANCH   4  12
TORSDOF 1
ENDMDL
MODEL 2
REMARK VINA RESULT:      -4.5     16.069     16.498
REMARK  Name = 5386_Tegafur.pdbqt.pdb
REMARK  1 active torsions:
REMARK  status: ('A' for Active; 'I' for Inactive)
REMARK    1  A    between atoms: N_4  and  C_12
REMARK                            x       y       z     vdW  Elec       q    Type
REMARK                         _______ _______ _______ _____ _____    ______ ____
ROOT
ATOM      1  F   UNL     1     -27.282  82.551  11.946  0.00  0.00    +0.000 F 
ATOM      2  O   UNL     1     -29.865  87.224  10.948  0.00  0.00    +0.000 OA
ATOM      3  O   UNL     1     -28.890  82.929   9.649  0.00  0.00    +0.000 OA
ATOM      4  N   UNL     1     -28.662  85.855  12.457  0.00  0.00    +0.000 N 
ATOM      5  N   UNL     1     -29.422  85.045  10.386  0.00  0.00    +0.000 N 
ATOM      6  C   UNL     1     -29.358  86.153  11.262  0.00  0.00    +0.000 C 
ATOM      7  C   UNL     1     -28.171  84.605  12.589  0.00  0.00    +0.000 C 
ATOM      8  C   UNL     1     -28.182  83.544  11.857  0.00  0.00    +0.000 C 
ATOM      9  C   UNL     1     -28.853  83.773  10.536  0.00  0.00    +0.000 C 
ATOM     10  H   UNL     1     -29.876  85.222   9.501  0.00  0.00    +0.000 HD
ENDROOT
BRANCH   4  12
ATOM     11  O   UNL     1     -27.762  87.953  13.280  0.00  0.00    +0.000 OA
ATOM     12  C   UNL     1     -28.460  86.754  13.464  0.00  0.00    +0.000 C 
ATOM     13  C   UNL     1     -28.872  86.682  14.822  0.00  0.00    +0.000 C 
ATOM     14  C   UNL     1     -28.552  87.787  15.830  0.00  0.00    +0.000 C 
ATOM     15  C   UNL     1     -27.908  88.332  14.557  0.00  0.00    +0.000 C 
ENDBRANCH   4  12
TORSDOF 1
ENDMDL
MODEL 3
REMARK VINA RESULT:      -4.5      2.765      3.488
REMARK  Name = 5386_Tegafur.pdbqt.pdb
REMARK  1 active torsions:
REMARK  status: ('A' for Active; 'I' for Inactive)
REMARK    1  A    between atoms: N_4  and  C_12
REMARK                            x       y       z     vdW  Elec       q    Type
REMARK                         _______ _______ _______ _____ _____    ______ ____
ROOT
ATOM      1  F   UNL     1     -38.788 104.152  13.726  0.00  0.00    +0.000 F 
ATOM      2  O   UNL     1     -37.767  98.818  13.826  0.00  0.00    +0.000 OA
ATOM      3  O   UNL     1     -40.805 102.218  13.287  0.00  0.00    +0.000 OA
ATOM      4  N   UNL     1     -36.950 101.037  13.770  0.00  0.00    +0.000 N 
ATOM      5  N   UNL     1     -39.230 100.550  13.477  0.00  0.00    +0.000 N 
ATOM      6  C   UNL     1     -37.935 100.026  13.704  0.00  0.00    +0.000 C 
ATOM      7  C   UNL     1     -37.363 102.312  13.619  0.00  0.00    +0.000 C 
ATOM      8  C   UNL     1     -38.503 102.878  13.409  0.00  0.00    +0.000 C 
ATOM      9  C   UNL     1     -39.629 101.889  13.377  0.00  0.00    +0.000 C 
ATOM     10  H   UNL     1     -39.974  99.867  13.461  0.00  0.00    +0.000 HD
ENDROOT
BRANCH   4  12
ATOM     11  O   UNL     1     -35.152 100.073  15.086  0.00  0.00    +0.000 OA
ATOM     12  C   UNL     1     -35.624 100.793  13.982  0.00  0.00    +0.000 C 
ATOM     13  C   UNL     1     -34.506 101.190  13.200  0.00  0.00    +0.000 C 
ATOM     14  C   UNL     1     -33.070 100.834  13.590  0.00  0.00    +0.000 C 
ATOM     15  C   UNL     1     -33.868 100.194  14.724  0.00  0.00    +0.000 C 
ENDBRANCH   4  12
TORSDOF 1
ENDMDL
MODEL 4
REMARK VINA RESULT:      -4.4      1.927      4.572
REMARK  Name = 5386_Tegafur.pdbqt.pdb
REMARK  1 active torsions:
REMARK  status: ('A' for Active; 'I' for Inactive)
REMARK    1  A    between atoms: N_4  and  C_12
REMARK                            x       y       z     vdW  Elec       q    Type
REMARK                         _______ _______ _______ _____ _____    ______ ____
ROOT
ATOM      1  F   UNL     1     -33.063  99.250  16.497  0.00  0.00    +0.000 F 
ATOM      2  O   UNL     1     -34.565 101.957  12.033  0.00  0.00    +0.000 OA
ATOM      3  O   UNL     1     -31.190 100.191  14.597  0.00  0.00    +0.000 OA
ATOM      4  N   UNL     1     -35.166 100.632  13.899  0.00  0.00    +0.000 N 
ATOM      5  N   UNL     1     -32.921 100.982  13.301  0.00  0.00    +0.000 N 
ATOM      6  C   UNL     1     -34.275 101.250  12.992  0.00  0.00    +0.000 C 
ATOM      7  C   UNL     1     -34.624  99.904  14.896  0.00  0.00    +0.000 C 
ATOM      8  C   UNL     1     -33.421  99.604  15.251  0.00  0.00    +0.000 C 
ATOM      9  C   UNL     1     -32.393 100.260  14.380  0.00  0.00    +0.000 C 
ATOM     10  H   UNL     1     -32.245 101.435  12.703  0.00  0.00    +0.000 HD
ENDROOT
BRANCH   4  12
ATOM     11  O   UNL     1     -37.231 101.829  14.340  0.00  0.00    +0.000 OA
ATOM     12  C   UNL     1     -36.524 100.738  13.821  0.00  0.00    +0.000 C 
ATOM     13  C   UNL     1     -37.460  99.835  13.248  0.00  0.00    +0.000 C 
ATOM     14  C   UNL     1     -38.965 100.108  13.253  0.00  0.00    +0.000 C 
ATOM     15  C   UNL     1     -38.422 101.344  13.967  0.00  0.00    +0.000 C 
ENDBRANCH   4  12
TORSDOF 1
ENDMDL
MODEL 5
REMARK VINA RESULT:      -4.4     13.067     13.548
REMARK  Name = 5386_Tegafur.pdbqt.pdb
REMARK  1 active torsions:
REMARK  status: ('A' for Active; 'I' for Inactive)
REMARK    1  A    between atoms: N_4  and  C_12
REMARK                            x       y       z     vdW  Elec       q    Type
REMARK                         _______ _______ _______ _____ _____    ______ ____
ROOT
ATOM      1  F   UNL     1     -29.363  85.460  16.731  0.00  0.00    +0.000 F 
ATOM      2  O   UNL     1     -28.423  90.504  14.949  0.00  0.00    +0.000 OA
ATOM      3  O   UNL     1     -27.921  85.979  14.354  0.00  0.00    +0.000 OA
ATOM      4  N   UNL     1     -29.582  89.056  16.419  0.00  0.00    +0.000 N 
ATOM      5  N   UNL     1     -28.274  88.235  14.647  0.00  0.00    +0.000 N 
ATOM      6  C   UNL     1     -28.749  89.383  15.324  0.00  0.00    +0.000 C 
ATOM      7  C   UNL     1     -29.797  87.747  16.660  0.00  0.00    +0.000 C 
ATOM      8  C   UNL     1     -29.417  86.647  16.105  0.00  0.00    +0.000 C 
ATOM      9  C   UNL     1     -28.479  86.885  14.960  0.00  0.00    +0.000 C 
ATOM     10  H   UNL     1     -27.643  88.418  13.880  0.00  0.00    +0.000 HD
ENDROOT
BRANCH   4  12
ATOM     11  O   UNL     1     -31.014  90.987  16.754  0.00  0.00    +0.000 OA
ATOM     12  C   UNL     1     -30.164  89.983  17.233  0.00  0.00    +0.000 C 
ATOM     13  C   UNL     1     -30.045  90.137  18.641  0.00  0.00    +0.000 C 
ATOM     14  C   UNL     1     -30.770  91.247  19.405  0.00  0.00    +0.000 C 
ATOM     15  C   UNL     1     -31.216  91.515  17.968  0.00  0.00    +0.000 C 
ENDBRANCH   4  12
TORSDOF 1
ENDMDL
MODEL 6
REMARK VINA RESULT:      -4.3     14.519     16.084
REMARK  Name = 5386_Tegafur.pdbqt.pdb
REMARK  1 active torsions:
REMARK  status: ('A' for Active; 'I' for Inactive)
REMARK    1  A    between atoms: N_4  and  C_12
REMARK                            x       y       z     vdW  Elec       q    Type
REMARK                         _______ _______ _______ _____ _____    ______ ____
ROOT
ATOM      1  F   UNL     1     -16.298  98.329  11.954  0.00  0.00    +0.000 F 
ATOM      2  O   UNL     1     -21.202  99.417  14.021  0.00  0.00    +0.000 OA
ATOM      3  O   UNL     1     -16.931  97.860  14.671  0.00  0.00    +0.000 OA
ATOM      4  N   UNL     1     -19.659  99.634  12.240  0.00  0.00    +0.000 N 
ATOM      5  N   UNL     1     -19.033  98.732  14.318  0.00  0.00    +0.000 N 
ATOM      6  C   UNL     1     -20.079  99.289  13.545  0.00  0.00    +0.000 C 
ATOM      7  C   UNL     1     -18.371  99.391  11.923  0.00  0.00    +0.000 C 
ATOM      8  C   UNL     1     -17.358  98.897  12.551  0.00  0.00    +0.000 C 
ATOM      9  C   UNL     1     -17.716  98.446  13.935  0.00  0.00    +0.000 C 
ATOM     10  H   UNL     1     -19.296  98.433  15.246  0.00  0.00    +0.000 HD
ENDROOT
BRANCH   4  12
ATOM     11  O   UNL     1     -20.623 101.570  11.137  0.00  0.00    +0.000 OA
ATOM     12  C   UNL     1     -20.479 100.186  11.299  0.00  0.00    +0.000 C 
ATOM     13  C   UNL     1     -21.314  99.538  10.350  0.00  0.00    +0.000 C 
ATOM     14  C   UNL     1     -22.184 100.318   9.362  0.00  0.00    +0.000 C 
ATOM     15  C   UNL     1     -21.504 101.446  10.135  0.00  0.00    +0.000 C 
ENDBRANCH   4  12
TORSDOF 1
ENDMDL
MODEL 7
REMARK VINA RESULT:      -4.1     24.505     25.315
REMARK  Name = 5386_Tegafur.pdbqt.pdb
REMARK  1 active torsions:
REMARK  status: ('A' for Active; 'I' for Inactive)
REMARK    1  A    between atoms: N_4  and  C_12
REMARK                            x       y       z     vdW  Elec       q    Type
REMARK                         _______ _______ _______ _____ _____    ______ ____
ROOT
ATOM      1  F   UNL     1     -30.527  86.609  -8.611  0.00  0.00    +0.000 F 
ATOM      2  O   UNL     1     -27.969  91.317  -7.722  0.00  0.00    +0.000 OA
ATOM      3  O   UNL     1     -31.530  89.077  -9.561  0.00  0.00    +0.000 OA
ATOM      4  N   UNL     1     -28.199  89.013  -7.238  0.00  0.00    +0.000 N 
ATOM      5  N   UNL     1     -29.774  90.167  -8.546  0.00  0.00    +0.000 N 
ATOM      6  C   UNL     1     -28.571  90.253  -7.807  0.00  0.00    +0.000 C 
ATOM      7  C   UNL     1     -29.009  87.960  -7.472  0.00  0.00    +0.000 C 
ATOM      8  C   UNL     1     -30.110  87.788  -8.121  0.00  0.00    +0.000 C 
ATOM      9  C   UNL     1     -30.562  89.039  -8.811  0.00  0.00    +0.000 C 
ATOM     10  H   UNL     1     -30.059  91.020  -9.004  0.00  0.00    +0.000 HD
ENDROOT
BRANCH   4  12
ATOM     11  O   UNL     1     -27.063  89.013  -5.093  0.00  0.00    +0.000 OA
ATOM     12  C   UNL     1     -27.079  88.829  -6.481  0.00  0.00    +0.000 C 
ATOM     13  C   UNL     1     -25.773  88.449  -6.894  0.00  0.00    +0.000 C 
ATOM     14  C   UNL     1     -24.617  88.294  -5.904  0.00  0.00    +0.000 C 
ATOM     15  C   UNL     1     -25.764  88.704  -4.981  0.00  0.00    +0.000 C 
ENDBRANCH   4  12
TORSDOF 1
ENDMDL
MODEL 8
REMARK VINA RESULT:      -4.0     21.790     22.813
REMARK  Name = 5386_Tegafur.pdbqt.pdb
REMARK  1 active torsions:
REMARK  status: ('A' for Active; 'I' for Inactive)
REMARK    1  A    between atoms: N_4  and  C_12
REMARK                            x       y       z     vdW  Elec       q    Type
REMARK                         _______ _______ _______ _____ _____    ______ ____
ROOT
ATOM      1  F   UNL     1     -29.365  79.097   6.221  0.00  0.00    +0.000 F 
ATOM      2  O   UNL     1     -33.208  80.698   9.709  0.00  0.00    +0.000 OA
ATOM      3  O   UNL     1     -28.976  81.248   8.017  0.00  0.00    +0.000 OA
ATOM      4  N   UNL     1     -32.594  79.413   7.821  0.00  0.00    +0.000 N 
ATOM      5  N   UNL     1     -31.136  80.991   8.772  0.00  0.00    +0.000 N 
ATOM      6  C   UNL     1     -32.410  80.379   8.836  0.00  0.00    +0.000 C 
ATOM      7  C   UNL     1     -31.568  79.212   6.967  0.00  0.00    +0.000 C 
ATOM      8  C   UNL     1     -30.389  79.716   6.830  0.00  0.00    +0.000 C 
ATOM      9  C   UNL     1     -30.074  80.718   7.899  0.00  0.00    +0.000 C 
ATOM     10  H   UNL     1     -30.944  81.662   9.502  0.00  0.00    +0.000 HD
ENDROOT
BRANCH   4  12
ATOM     11  O   UNL     1     -33.851  77.356   8.105  0.00  0.00    +0.000 OA
ATOM     12  C   UNL     1     -33.735  78.681   7.666  0.00  0.00    +0.000 C 
ATOM     13  C   UNL     1     -34.966  79.059   7.066  0.00  0.00    +0.000 C 
ATOM     14  C   UNL     1     -36.155  78.102   6.969  0.00  0.00    +0.000 C 
ATOM     15  C   UNL     1     -35.114  77.235   7.676  0.00  0.00    +0.000 C 
ENDBRANCH   4  12
TORSDOF 1
ENDMDL
MODEL 9
REMARK VINA RESULT:      -4.0     20.106     21.013
REMARK  Name = 5386_Tegafur.pdbqt.pdb
REMARK  1 active torsions:
REMARK  status: ('A' for Active; 'I' for Inactive)
REMARK    1  A    between atoms: N_4  and  C_12
REMARK                            x       y       z     vdW  Elec       q    Type
REMARK                         _______ _______ _______ _____ _____    ______ ____
ROOT
ATOM      1  F   UNL     1     -21.672  85.200   7.681  0.00  0.00    +0.000 F 
ATOM      2  O   UNL     1     -24.203  87.090   3.263  0.00  0.00    +0.000 OA
ATOM      3  O   UNL     1     -24.489  85.186   7.430  0.00  0.00    +0.000 OA
ATOM      4  N   UNL     1     -22.214  86.888   4.529  0.00  0.00    +0.000 N 
ATOM      5  N   UNL     1     -24.299  86.222   5.383  0.00  0.00    +0.000 N 
ATOM      6  C   UNL     1     -23.602  86.776   4.284  0.00  0.00    +0.000 C 
ATOM      7  C   UNL     1     -21.763  86.465   5.727  0.00  0.00    +0.000 C 
ATOM      8  C   UNL     1     -22.314  85.957   6.777  0.00  0.00    +0.000 C 
ATOM      9  C   UNL     1     -23.787  85.745   6.597  0.00  0.00    +0.000 C 
ATOM     10  H   UNL     1     -25.290  86.086   5.240  0.00  0.00    +0.000 HD
ENDROOT
BRANCH   4  12
ATOM     11  O   UNL     1     -20.453  86.577   2.887  0.00  0.00    +0.000 OA
ATOM     12  C   UNL     1     -21.322  87.389   3.626  0.00  0.00    +0.000 C 
ATOM     13  C   UNL     1     -21.081  88.742   3.264  0.00  0.00    +0.000 C 
ATOM     14  C   UNL     1     -20.026  89.133   2.227  0.00  0.00    +0.000 C 
ATOM     15  C   UNL     1     -19.890  87.612   2.251  0.00  0.00    +0.000 C 
ENDBRANCH   4  12
TORSDOF 1
ENDMDL
