MODEL 1
REMARK VINA RESULT:      -5.3      0.000      0.000
REMARK  Name = 5470187_Zerumbone.pdbqt.pdb
REMARK  0 active torsions:
REMARK  status: ('A' for Active; 'I' for Inactive)
REMARK                            x       y       z     vdW  Elec       q    Type
REMARK                         _______ _______ _______ _____ _____    ______ ____
ROOT
ATOM      1  O   UNL     1     -36.015  98.360  16.760  0.00  0.00    +0.000 OA
ATOM      2  C   UNL     1     -31.552  98.272  18.747  0.00  0.00    +0.000 C 
ATOM      3  C   UNL     1     -30.472  98.865  17.922  0.00  0.00    +0.000 C 
ATOM      4  C   UNL     1     -31.680  99.040  20.085  0.00  0.00    +0.000 C 
ATOM      5  C   UNL     1     -31.248  96.774  18.999  0.00  0.00    +0.000 C 
ATOM      6  C   UNL     1     -32.816  98.408  17.954  0.00  0.00    +0.000 C 
ATOM      7  C   UNL     1     -29.678  99.547  16.794  0.00  0.00    +0.000 C 
ATOM      8  C   UNL     1     -29.409 100.135  15.667  0.00  0.00    +0.000 C 
ATOM      9  C   UNL     1     -30.571 100.257  14.863  0.00  0.00    +0.000 C 
ATOM     10  C   UNL     1     -32.052 100.128  14.500  0.00  0.00    +0.000 C 
ATOM     11  C   UNL     1     -33.783  98.554  17.247  0.00  0.00    +0.000 C 
ATOM     12  C   UNL     1     -28.330 101.164  15.590  0.00  0.00    +0.000 C 
ATOM     13  C   UNL     1     -33.536  99.779  14.651  0.00  0.00    +0.000 C 
ATOM     14  C   UNL     1     -34.728  99.396  15.005  0.00  0.00    +0.000 C 
ATOM     15  C   UNL     1     -34.926  98.748  16.353  0.00  0.00    +0.000 C 
ATOM     16  C   UNL     1     -35.844  99.622  14.015  0.00  0.00    +0.000 C 
ENDROOT
TORSDOF 0
ENDMDL
MODEL 2
REMARK VINA RESULT:      -5.0     17.345     19.926
REMARK  Name = 5470187_Zerumbone.pdbqt.pdb
REMARK  0 active torsions:
REMARK  status: ('A' for Active; 'I' for Inactive)
REMARK                            x       y       z     vdW  Elec       q    Type
REMARK                         _______ _______ _______ _____ _____    ______ ____
ROOT
ATOM      1  O   UNL     1     -25.650 105.151   3.290  0.00  0.00    +0.000 OA
ATOM      2  C   UNL     1     -26.344 106.837  -1.243  0.00  0.00    +0.000 C 
ATOM      3  C   UNL     1     -25.709 106.047  -2.324  0.00  0.00    +0.000 C 
ATOM      4  C   UNL     1     -27.878 106.870  -1.442  0.00  0.00    +0.000 C 
ATOM      5  C   UNL     1     -25.759 108.272  -1.238  0.00  0.00    +0.000 C 
ATOM      6  C   UNL     1     -26.007 106.146   0.043  0.00  0.00    +0.000 C 
ATOM      7  C   UNL     1     -24.921 104.986  -3.114  0.00  0.00    +0.000 C 
ATOM      8  C   UNL     1     -24.198 103.937  -3.374  0.00  0.00    +0.000 C 
ATOM      9  C   UNL     1     -23.824 103.266  -2.182  0.00  0.00    +0.000 C 
ATOM     10  C   UNL     1     -23.767 102.994  -0.677  0.00  0.00    +0.000 C 
ATOM     11  C   UNL     1     -25.685 105.530   1.029  0.00  0.00    +0.000 C 
ATOM     12  C   UNL     1     -24.409 103.169  -4.636  0.00  0.00    +0.000 C 
ATOM     13  C   UNL     1     -24.037 103.176   0.819  0.00  0.00    +0.000 C 
ATOM     14  C   UNL     1     -24.401 103.529   2.017  0.00  0.00    +0.000 C 
ATOM     15  C   UNL     1     -25.265 104.752   2.196  0.00  0.00    +0.000 C 
ATOM     16  C   UNL     1     -23.910 102.678   3.163  0.00  0.00    +0.000 C 
ENDROOT
TORSDOF 0
ENDMDL
MODEL 3
REMARK VINA RESULT:      -5.0      2.212      4.914
REMARK  Name = 5470187_Zerumbone.pdbqt.pdb
REMARK  0 active torsions:
REMARK  status: ('A' for Active; 'I' for Inactive)
REMARK                            x       y       z     vdW  Elec       q    Type
REMARK                         _______ _______ _______ _____ _____    ______ ____
ROOT
ATOM      1  O   UNL     1     -36.544  96.123  18.426  0.00  0.00    +0.000 OA
ATOM      2  C   UNL     1     -36.590  99.802  15.211  0.00  0.00    +0.000 C 
ATOM      3  C   UNL     1     -35.260 100.315  14.807  0.00  0.00    +0.000 C 
ATOM      4  C   UNL     1     -37.347  99.261  13.975  0.00  0.00    +0.000 C 
ATOM      5  C   UNL     1     -37.396 100.933  15.899  0.00  0.00    +0.000 C 
ATOM      6  C   UNL     1     -36.339  98.692  16.186  0.00  0.00    +0.000 C 
ATOM      7  C   UNL     1     -33.744 100.543  14.659  0.00  0.00    +0.000 C 
ATOM      8  C   UNL     1     -32.462 100.402  14.818  0.00  0.00    +0.000 C 
ATOM      9  C   UNL     1     -32.173  99.382  15.761  0.00  0.00    +0.000 C 
ATOM     10  C   UNL     1     -32.471  98.258  16.755  0.00  0.00    +0.000 C 
ATOM     11  C   UNL     1     -36.046  97.817  16.964  0.00  0.00    +0.000 C 
ATOM     12  C   UNL     1     -31.527 100.667  13.685  0.00  0.00    +0.000 C 
ATOM     13  C   UNL     1     -33.288  97.267  17.589  0.00  0.00    +0.000 C 
ATOM     14  C   UNL     1     -34.181  96.533  18.188  0.00  0.00    +0.000 C 
ATOM     15  C   UNL     1     -35.643  96.769  17.904  0.00  0.00    +0.000 C 
ATOM     16  C   UNL     1     -33.675  95.487  19.152  0.00  0.00    +0.000 C 
ENDROOT
TORSDOF 0
ENDMDL
MODEL 4
REMARK VINA RESULT:      -4.8     15.013     18.100
REMARK  Name = 5470187_Zerumbone.pdbqt.pdb
REMARK  0 active torsions:
REMARK  status: ('A' for Active; 'I' for Inactive)
REMARK                            x       y       z     vdW  Elec       q    Type
REMARK                         _______ _______ _______ _____ _____    ______ ____
ROOT
ATOM      1  O   UNL     1     -45.453 102.487  -0.297  0.00  0.00    +0.000 OA
ATOM      2  C   UNL     1     -43.848 102.141   4.305  0.00  0.00    +0.000 C 
ATOM      3  C   UNL     1     -42.380 102.001   4.462  0.00  0.00    +0.000 C 
ATOM      4  C   UNL     1     -44.336 103.429   5.011  0.00  0.00    +0.000 C 
ATOM      5  C   UNL     1     -44.553 100.891   4.889  0.00  0.00    +0.000 C 
ATOM      6  C   UNL     1     -44.110 102.232   2.833  0.00  0.00    +0.000 C 
ATOM      7  C   UNL     1     -40.869 101.876   4.196  0.00  0.00    +0.000 C 
ATOM      8  C   UNL     1     -39.738 101.807   3.559  0.00  0.00    +0.000 C 
ATOM      9  C   UNL     1     -39.938 101.854   2.155  0.00  0.00    +0.000 C 
ATOM     10  C   UNL     1     -40.725 101.966   0.848  0.00  0.00    +0.000 C 
ATOM     11  C   UNL     1     -44.231 102.292   1.634  0.00  0.00    +0.000 C 
ATOM     12  C   UNL     1     -38.496 102.374   4.162  0.00  0.00    +0.000 C 
ATOM     13  C   UNL     1     -41.928 102.119  -0.088  0.00  0.00    +0.000 C 
ATOM     14  C   UNL     1     -43.083 102.258  -0.670  0.00  0.00    +0.000 C 
ATOM     15  C   UNL     1     -44.329 102.356   0.174  0.00  0.00    +0.000 C 
ATOM     16  C   UNL     1     -43.091 102.299  -2.179  0.00  0.00    +0.000 C 
ENDROOT
TORSDOF 0
ENDMDL
MODEL 5
REMARK VINA RESULT:      -4.8     14.348     15.790
REMARK  Name = 5470187_Zerumbone.pdbqt.pdb
REMARK  0 active torsions:
REMARK  status: ('A' for Active; 'I' for Inactive)
REMARK                            x       y       z     vdW  Elec       q    Type
REMARK                         _______ _______ _______ _____ _____    ______ ____
ROOT
ATOM      1  O   UNL     1     -45.617 103.418   6.165  0.00  0.00    +0.000 OA
ATOM      2  C   UNL     1     -41.114 105.309   6.055  0.00  0.00    +0.000 C 
ATOM      3  C   UNL     1     -40.093 104.491   5.358  0.00  0.00    +0.000 C 
ATOM      4  C   UNL     1     -41.259 106.683   5.357  0.00  0.00    +0.000 C 
ATOM      5  C   UNL     1     -40.711 105.486   7.540  0.00  0.00    +0.000 C 
ATOM      6  C   UNL     1     -42.401 104.548   5.965  0.00  0.00    +0.000 C 
ATOM      7  C   UNL     1     -39.368 103.380   4.577  0.00  0.00    +0.000 C 
ATOM      8  C   UNL     1     -39.163 102.275   3.924  0.00  0.00    +0.000 C 
ATOM      9  C   UNL     1     -40.348 101.501   3.841  0.00  0.00    +0.000 C 
ATOM     10  C   UNL     1     -41.826 101.162   4.048  0.00  0.00    +0.000 C 
ATOM     11  C   UNL     1     -43.391 103.868   5.850  0.00  0.00    +0.000 C 
ATOM     12  C   UNL     1     -38.153 102.224   2.826  0.00  0.00    +0.000 C 
ATOM     13  C   UNL     1     -43.281 101.327   4.498  0.00  0.00    +0.000 C 
ATOM     14  C   UNL     1     -44.438 101.687   4.972  0.00  0.00    +0.000 C 
ATOM     15  C   UNL     1     -44.564 103.007   5.690  0.00  0.00    +0.000 C 
ATOM     16  C   UNL     1     -45.589 100.730   4.774  0.00  0.00    +0.000 C 
ENDROOT
TORSDOF 0
ENDMDL
MODEL 6
REMARK VINA RESULT:      -4.7      1.404      4.162
REMARK  Name = 5470187_Zerumbone.pdbqt.pdb
REMARK  0 active torsions:
REMARK  status: ('A' for Active; 'I' for Inactive)
REMARK                            x       y       z     vdW  Elec       q    Type
REMARK                         _______ _______ _______ _____ _____    ______ ____
ROOT
ATOM      1  O   UNL     1     -34.463  96.832  18.108  0.00  0.00    +0.000 OA
ATOM      2  C   UNL     1     -33.517 100.803  15.423  0.00  0.00    +0.000 C 
ATOM      3  C   UNL     1     -32.098 101.230  15.389  0.00  0.00    +0.000 C 
ATOM      4  C   UNL     1     -34.002 100.461  13.994  0.00  0.00    +0.000 C 
ATOM      5  C   UNL     1     -34.382 101.929  16.043  0.00  0.00    +0.000 C 
ATOM      6  C   UNL     1     -33.573  99.583  16.290  0.00  0.00    +0.000 C 
ATOM      7  C   UNL     1     -30.578 101.330  15.609  0.00  0.00    +0.000 C 
ATOM      8  C   UNL     1     -29.380 101.055  16.032  0.00  0.00    +0.000 C 
ATOM      9  C   UNL     1     -29.385  99.924  16.888  0.00  0.00    +0.000 C 
ATOM     10  C   UNL     1     -29.980  98.738  17.650  0.00  0.00    +0.000 C 
ATOM     11  C   UNL     1     -33.528  98.611  17.005  0.00  0.00    +0.000 C 
ATOM     12  C   UNL     1     -28.192 101.345  15.175  0.00  0.00    +0.000 C 
ATOM     13  C   UNL     1     -31.033  97.749  18.158  0.00  0.00    +0.000 C 
ATOM     14  C   UNL     1     -32.087  97.045  18.452  0.00  0.00    +0.000 C 
ATOM     15  C   UNL     1     -33.425  97.442  17.880  0.00  0.00    +0.000 C 
ATOM     16  C   UNL     1     -31.890  95.865  19.373  0.00  0.00    +0.000 C 
ENDROOT
TORSDOF 0
ENDMDL
MODEL 7
REMARK VINA RESULT:      -4.6     14.512     16.087
REMARK  Name = 5470187_Zerumbone.pdbqt.pdb
REMARK  0 active torsions:
REMARK  status: ('A' for Active; 'I' for Inactive)
REMARK                            x       y       z     vdW  Elec       q    Type
REMARK                         _______ _______ _______ _____ _____    ______ ____
ROOT
ATOM      1  O   UNL     1     -43.782 102.435   2.191  0.00  0.00    +0.000 OA
ATOM      2  C   UNL     1     -40.944 104.997   5.233  0.00  0.00    +0.000 C 
ATOM      3  C   UNL     1     -39.489 104.737   5.123  0.00  0.00    +0.000 C 
ATOM      4  C   UNL     1     -41.242 106.483   4.923  0.00  0.00    +0.000 C 
ATOM      5  C   UNL     1     -41.431 104.623   6.656  0.00  0.00    +0.000 C 
ATOM      6  C   UNL     1     -41.611 104.117   4.220  0.00  0.00    +0.000 C 
ATOM      7  C   UNL     1     -38.111 104.193   4.704  0.00  0.00    +0.000 C 
ATOM      8  C   UNL     1     -37.203 103.510   4.074  0.00  0.00    +0.000 C 
ATOM      9  C   UNL     1     -37.788 102.634   3.124  0.00  0.00    +0.000 C 
ATOM     10  C   UNL     1     -38.913 101.976   2.321  0.00  0.00    +0.000 C 
ATOM     11  C   UNL     1     -42.064 103.374   3.384  0.00  0.00    +0.000 C 
ATOM     12  C   UNL     1     -35.853 104.097   3.824  0.00  0.00    +0.000 C 
ATOM     13  C   UNL     1     -40.332 101.673   1.833  0.00  0.00    +0.000 C 
ATOM     14  C   UNL     1     -41.607 101.589   1.587  0.00  0.00    +0.000 C 
ATOM     15  C   UNL     1     -42.568 102.454   2.363  0.00  0.00    +0.000 C 
ATOM     16  C   UNL     1     -42.039 100.604   0.528  0.00  0.00    +0.000 C 
ENDROOT
TORSDOF 0
ENDMDL
MODEL 8
REMARK VINA RESULT:      -4.6     22.949     24.222
REMARK  Name = 5470187_Zerumbone.pdbqt.pdb
REMARK  0 active torsions:
REMARK  status: ('A' for Active; 'I' for Inactive)
REMARK                            x       y       z     vdW  Elec       q    Type
REMARK                         _______ _______ _______ _____ _____    ______ ____
ROOT
ATOM      1  O   UNL     1     -42.427  81.808   0.433  0.00  0.00    +0.000 OA
ATOM      2  C   UNL     1     -41.507  86.292  -1.275  0.00  0.00    +0.000 C 
ATOM      3  C   UNL     1     -40.073  86.638  -1.426  0.00  0.00    +0.000 C 
ATOM      4  C   UNL     1     -42.217  86.364  -2.649  0.00  0.00    +0.000 C 
ATOM      5  C   UNL     1     -42.169  87.257  -0.261  0.00  0.00    +0.000 C 
ATOM      6  C   UNL     1     -41.552  84.890  -0.747  0.00  0.00    +0.000 C 
ATOM      7  C   UNL     1     -38.535  86.597  -1.432  0.00  0.00    +0.000 C 
ATOM      8  C   UNL     1     -37.319  86.159  -1.289  0.00  0.00    +0.000 C 
ATOM      9  C   UNL     1     -37.309  84.844  -0.757  0.00  0.00    +0.000 C 
ATOM     10  C   UNL     1     -37.897  83.531  -0.235  0.00  0.00    +0.000 C 
ATOM     11  C   UNL     1     -41.497  83.764  -0.318  0.00  0.00    +0.000 C 
ATOM     12  C   UNL     1     -36.242  86.602  -2.222  0.00  0.00    +0.000 C 
ATOM     13  C   UNL     1     -38.954  82.499   0.166  0.00  0.00    +0.000 C 
ATOM     14  C   UNL     1     -40.017  81.798   0.437  0.00  0.00    +0.000 C 
ATOM     15  C   UNL     1     -41.379  82.401   0.204  0.00  0.00    +0.000 C 
ATOM     16  C   UNL     1     -39.801  80.408   0.987  0.00  0.00    +0.000 C 
ENDROOT
TORSDOF 0
ENDMDL
MODEL 9
REMARK VINA RESULT:      -4.5     13.979     14.670
REMARK  Name = 5470187_Zerumbone.pdbqt.pdb
REMARK  0 active torsions:
REMARK  status: ('A' for Active; 'I' for Inactive)
REMARK                            x       y       z     vdW  Elec       q    Type
REMARK                         _______ _______ _______ _____ _____    ______ ____
ROOT
ATOM      1  O   UNL     1     -42.720 103.363   5.670  0.00  0.00    +0.000 OA
ATOM      2  C   UNL     1     -39.205 106.729   6.100  0.00  0.00    +0.000 C 
ATOM      3  C   UNL     1     -37.883 106.349   5.547  0.00  0.00    +0.000 C 
ATOM      4  C   UNL     1     -39.743 107.984   5.371  0.00  0.00    +0.000 C 
ATOM      5  C   UNL     1     -39.075 106.990   7.621  0.00  0.00    +0.000 C 
ATOM      6  C   UNL     1     -40.117 105.565   5.859  0.00  0.00    +0.000 C 
ATOM      7  C   UNL     1     -36.722 105.592   4.877  0.00  0.00    +0.000 C 
ATOM      8  C   UNL     1     -36.060 104.653   4.269  0.00  0.00    +0.000 C 
ATOM      9  C   UNL     1     -36.873 103.512   4.049  0.00  0.00    +0.000 C 
ATOM     10  C   UNL     1     -38.148 102.666   4.074  0.00  0.00    +0.000 C 
ATOM     11  C   UNL     1     -40.779 104.582   5.630  0.00  0.00    +0.000 C 
ATOM     12  C   UNL     1     -34.972 104.998   3.307  0.00  0.00    +0.000 C 
ATOM     13  C   UNL     1     -39.609 102.290   4.336  0.00  0.00    +0.000 C 
ATOM     14  C   UNL     1     -40.867 102.201   4.657  0.00  0.00    +0.000 C 
ATOM     15  C   UNL     1     -41.540 103.367   5.336  0.00  0.00    +0.000 C 
ATOM     16  C   UNL     1     -41.569 100.905   4.329  0.00  0.00    +0.000 C 
ENDROOT
TORSDOF 0
ENDMDL
