MODEL 1
REMARK VINA RESULT:      -6.6      0.000      0.000
REMARK  Name = 60953_Capecitabine.pdbqt.pdb
REMARK  6 active torsions:
REMARK  status: ('A' for Active; 'I' for Inactive)
REMARK    1  A    between atoms: N_4  and  C_16
REMARK    2  A    between atoms: C_11  and  O_23
REMARK    3  A    between atoms: C_14  and  O_19
REMARK    4  A    between atoms: C_15  and  O_21
REMARK    5  A    between atoms: O_23  and  C_24
REMARK    6  A    between atoms: C_25  and  C_26
REMARK                            x       y       z     vdW  Elec       q    Type
REMARK                         _______ _______ _______ _____ _____    ______ ____
ROOT
ATOM      1  F   UNL     1     -29.715  98.726 -13.429  0.00  0.00    +0.000 F 
ATOM      2  O   UNL     1     -34.197  95.809 -13.108  0.00  0.00    +0.000 OA
ATOM      3  O   UNL     1     -30.313  94.031 -15.008  0.00  0.00    +0.000 OA
ATOM      4  N   UNL     1     -33.168  97.880 -12.882  0.00  0.00    +0.000 N 
ATOM      5  N   UNL     1     -32.042  95.999 -13.858  0.00  0.00    +0.000 NA
ATOM      6  N   UNL     1     -29.809  96.259 -14.563  0.00  0.00    +0.000 N 
ATOM      7  C   UNL     1     -32.024  98.548 -13.127  0.00  0.00    +0.000 C 
ATOM      8  C   UNL     1     -33.207  96.517 -13.276  0.00  0.00    +0.000 C 
ATOM      9  C   UNL     1     -30.922  98.198 -13.692  0.00  0.00    +0.000 C 
ATOM     10  C   UNL     1     -30.989  96.742 -14.037  0.00  0.00    +0.000 C 
ATOM     11  C   UNL     1     -29.538  94.975 -14.983  0.00  0.00    +0.000 C 
ATOM     12  H   UNL     1     -29.023  96.889 -14.639  0.00  0.00    +0.000 HD
ENDROOT
BRANCH   4  16
ATOM     13  O   UNL     1     -34.900  99.566 -13.011  0.00  0.00    +0.000 OA
ATOM     14  C   UNL     1     -34.761  98.505 -10.969  0.00  0.00    +0.000 A 
ATOM     15  C   UNL     1     -35.774  99.512 -10.884  0.00  0.00    +0.000 A 
ATOM     16  C   UNL     1     -34.201  98.567 -12.299  0.00  0.00    +0.000 A 
ATOM     17  C   UNL     1     -35.856 100.153 -12.168  0.00  0.00    +0.000 A 
ATOM     18  C   UNL     1     -36.541 101.408 -12.590  0.00  0.00    +0.000 C 
BRANCH  14  19
ATOM     19  O   UNL     1     -34.078  98.143  -9.842  0.00  0.00    +0.000 OA
ATOM     20  H   UNL     1     -33.505  98.868  -9.506  0.00  0.00    +0.000 HD
ENDBRANCH  14  19
BRANCH  15  21
ATOM     21  O   UNL     1     -36.043 100.146  -9.700  0.00  0.00    +0.000 OA
ATOM     22  H   UNL     1     -35.540 100.980  -9.638  0.00  0.00    +0.000 HD
ENDBRANCH  15  21
ENDBRANCH   4  16
BRANCH  11  23
ATOM     23  O   UNL     1     -28.235  94.921 -15.392  0.00  0.00    +0.000 OA
BRANCH  23  24
ATOM     24  C   UNL     1     -27.490  95.984 -15.095  0.00  0.00    +0.000 C 
ATOM     25  C   UNL     1     -26.632  97.206 -14.750  0.00  0.00    +0.000 C 
BRANCH  25  26
ATOM     26  C   UNL     1     -25.775  98.427 -14.404  0.00  0.00    +0.000 C 
ATOM     27  C   UNL     1     -24.920  99.647 -14.051  0.00  0.00    +0.000 C 
ATOM     28  C   UNL     1     -24.064 100.864 -13.685  0.00  0.00    +0.000 C 
ENDBRANCH  25  26
ENDBRANCH  23  24
ENDBRANCH  11  23
TORSDOF 6
ENDMDL
MODEL 2
REMARK VINA RESULT:      -6.2     27.846     29.627
REMARK  Name = 60953_Capecitabine.pdbqt.pdb
REMARK  6 active torsions:
REMARK  status: ('A' for Active; 'I' for Inactive)
REMARK    1  A    between atoms: N_4  and  C_16
REMARK    2  A    between atoms: C_11  and  O_23
REMARK    3  A    between atoms: C_14  and  O_19
REMARK    4  A    between atoms: C_15  and  O_21
REMARK    5  A    between atoms: O_23  and  C_24
REMARK    6  A    between atoms: C_25  and  C_26
REMARK                            x       y       z     vdW  Elec       q    Type
REMARK                         _______ _______ _______ _____ _____    ______ ____
ROOT
ATOM      1  F   UNL     1     -29.496  86.755  10.155  0.00  0.00    +0.000 F 
ATOM      2  O   UNL     1     -28.444  82.379  13.061  0.00  0.00    +0.000 OA
ATOM      3  O   UNL     1     -27.426  86.640  14.693  0.00  0.00    +0.000 OA
ATOM      4  N   UNL     1     -29.094  83.287  11.024  0.00  0.00    +0.000 N 
ATOM      5  N   UNL     1     -28.273  84.650  12.820  0.00  0.00    +0.000 NA
ATOM      6  N   UNL     1     -28.170  86.984  12.515  0.00  0.00    +0.000 N 
ATOM      7  C   UNL     1     -29.199  84.447  10.344  0.00  0.00    +0.000 C 
ATOM      8  C   UNL     1     -28.588  83.369  12.347  0.00  0.00    +0.000 C 
ATOM      9  C   UNL     1     -28.897  85.659  10.651  0.00  0.00    +0.000 C 
ATOM     10  C   UNL     1     -28.425  85.702  12.072  0.00  0.00    +0.000 C 
ATOM     11  C   UNL     1     -27.723  87.370  13.760  0.00  0.00    +0.000 C 
ATOM     12  H   UNL     1     -28.345  87.754  11.886  0.00  0.00    +0.000 HD
ENDROOT
BRANCH   4  16
ATOM     13  O   UNL     1     -29.273  81.987   8.990  0.00  0.00    +0.000 OA
ATOM     14  C   UNL     1     -30.083  80.924  10.869  0.00  0.00    +0.000 A 
ATOM     15  C   UNL     1     -30.308  80.075   9.739  0.00  0.00    +0.000 A 
ATOM     16  C   UNL     1     -29.458  82.132  10.383  0.00  0.00    +0.000 A 
ATOM     17  C   UNL     1     -29.786  80.747   8.581  0.00  0.00    +0.000 A 
ATOM     18  C   UNL     1     -29.956  80.461   7.129  0.00  0.00    +0.000 C 
BRANCH  14  19
ATOM     19  O   UNL     1     -30.923  80.850  11.944  0.00  0.00    +0.000 OA
ATOM     20  H   UNL     1     -31.869  80.842  11.675  0.00  0.00    +0.000 HD
ENDBRANCH  14  19
BRANCH  15  21
ATOM     21  O   UNL     1     -31.375  79.216   9.703  0.00  0.00    +0.000 OA
ATOM     22  H   UNL     1     -31.232  78.468  10.314  0.00  0.00    +0.000 HD
ENDBRANCH  15  21
ENDBRANCH   4  16
BRANCH  11  23
ATOM     23  O   UNL     1     -27.648  88.734  13.786  0.00  0.00    +0.000 OA
BRANCH  23  24
ATOM     24  C   UNL     1     -28.295  89.331  14.785  0.00  0.00    +0.000 C 
ATOM     25  C   UNL     1     -29.039  90.019  15.934  0.00  0.00    +0.000 C 
BRANCH  25  26
ATOM     26  C   UNL     1     -29.781  90.708  17.083  0.00  0.00    +0.000 C 
ATOM     27  C   UNL     1     -30.528  91.399  18.227  0.00  0.00    +0.000 C 
ATOM     28  C   UNL     1     -31.287  92.089  19.366  0.00  0.00    +0.000 C 
ENDBRANCH  25  26
ENDBRANCH  23  24
ENDBRANCH  11  23
TORSDOF 6
ENDMDL
MODEL 3
REMARK VINA RESULT:      -6.2     29.841     31.484
REMARK  Name = 60953_Capecitabine.pdbqt.pdb
REMARK  6 active torsions:
REMARK  status: ('A' for Active; 'I' for Inactive)
REMARK    1  A    between atoms: N_4  and  C_16
REMARK    2  A    between atoms: C_11  and  O_23
REMARK    3  A    between atoms: C_14  and  O_19
REMARK    4  A    between atoms: C_15  and  O_21
REMARK    5  A    between atoms: O_23  and  C_24
REMARK    6  A    between atoms: C_25  and  C_26
REMARK                            x       y       z     vdW  Elec       q    Type
REMARK                         _______ _______ _______ _____ _____    ______ ____
ROOT
ATOM      1  F   UNL     1     -29.255  86.500  17.140  0.00  0.00    +0.000 F 
ATOM      2  O   UNL     1     -31.188  91.492  16.923  0.00  0.00    +0.000 OA
ATOM      3  O   UNL     1     -27.763  90.122  14.051  0.00  0.00    +0.000 OA
ATOM      4  N   UNL     1     -31.106  89.452  18.033  0.00  0.00    +0.000 N 
ATOM      5  N   UNL     1     -29.639  89.965  16.205  0.00  0.00    +0.000 NA
ATOM      6  N   UNL     1     -28.104  88.327  15.492  0.00  0.00    +0.000 N 
ATOM      7  C   UNL     1     -30.459  88.270  18.072  0.00  0.00    +0.000 C 
ATOM      8  C   UNL     1     -30.676  90.381  17.051  0.00  0.00    +0.000 C 
ATOM      9  C   UNL     1     -29.474  87.802  17.391  0.00  0.00    +0.000 C 
ATOM     10  C   UNL     1     -29.095  88.791  16.332  0.00  0.00    +0.000 C 
ATOM     11  C   UNL     1     -27.530  88.983  14.425  0.00  0.00    +0.000 C 
ATOM     12  H   UNL     1     -27.755  87.390  15.632  0.00  0.00    +0.000 HD
ENDROOT
BRANCH   4  16
ATOM     13  O   UNL     1     -33.231  88.824  19.008  0.00  0.00    +0.000 OA
ATOM     14  C   UNL     1     -32.275  90.701  19.947  0.00  0.00    +0.000 A 
ATOM     15  C   UNL     1     -33.545  90.484  20.569  0.00  0.00    +0.000 A 
ATOM     16  C   UNL     1     -32.101  89.670  18.950  0.00  0.00    +0.000 A 
ATOM     17  C   UNL     1     -34.120  89.304  19.982  0.00  0.00    +0.000 A 
ATOM     18  C   UNL     1     -35.502  88.752  20.057  0.00  0.00    +0.000 C 
BRANCH  14  19
ATOM     19  O   UNL     1     -31.777  91.971  19.863  0.00  0.00    +0.000 OA
ATOM     20  H   UNL     1     -30.929  92.004  19.366  0.00  0.00    +0.000 HD
ENDBRANCH  14  19
BRANCH  15  21
ATOM     21  O   UNL     1     -34.287  91.532  21.048  0.00  0.00    +0.000 OA
ATOM     22  H   UNL     1     -33.852  92.381  20.837  0.00  0.00    +0.000 HD
ENDBRANCH  15  21
ENDBRANCH   4  16
BRANCH  11  23
ATOM     23  O   UNL     1     -26.623  88.144  13.840  0.00  0.00    +0.000 OA
BRANCH  23  24
ATOM     24  C   UNL     1     -27.136  87.136  13.137  0.00  0.00    +0.000 C 
ATOM     25  C   UNL     1     -27.724  85.977  12.326  0.00  0.00    +0.000 C 
BRANCH  25  26
ATOM     26  C   UNL     1     -28.310  84.818  11.514  0.00  0.00    +0.000 C 
ATOM     27  C   UNL     1     -28.891  83.660  10.697  0.00  0.00    +0.000 C 
ATOM     28  C   UNL     1     -29.461  82.501   9.872  0.00  0.00    +0.000 C 
ENDBRANCH  25  26
ENDBRANCH  23  24
ENDBRANCH  11  23
TORSDOF 6
ENDMDL
MODEL 4
REMARK VINA RESULT:      -5.9     13.618     17.941
REMARK  Name = 60953_Capecitabine.pdbqt.pdb
REMARK  6 active torsions:
REMARK  status: ('A' for Active; 'I' for Inactive)
REMARK    1  A    between atoms: N_4  and  C_16
REMARK    2  A    between atoms: C_11  and  O_23
REMARK    3  A    between atoms: C_14  and  O_19
REMARK    4  A    between atoms: C_15  and  O_21
REMARK    5  A    between atoms: O_23  and  C_24
REMARK    6  A    between atoms: C_25  and  C_26
REMARK                            x       y       z     vdW  Elec       q    Type
REMARK                         _______ _______ _______ _____ _____    ______ ____
ROOT
ATOM      1  F   UNL     1     -37.424 104.075   1.085  0.00  0.00    +0.000 F 
ATOM      2  O   UNL     1     -32.642 106.316   0.186  0.00  0.00    +0.000 OA
ATOM      3  O   UNL     1     -34.456 106.190   4.493  0.00  0.00    +0.000 OA
ATOM      4  N   UNL     1     -34.592 105.407  -0.690  0.00  0.00    +0.000 N 
ATOM      5  N   UNL     1     -34.343 105.869   1.652  0.00  0.00    +0.000 NA
ATOM      6  N   UNL     1     -36.119 105.339   3.106  0.00  0.00    +0.000 N 
ATOM      7  C   UNL     1     -35.828 104.982  -0.358  0.00  0.00    +0.000 C 
ATOM      8  C   UNL     1     -33.783 105.898   0.367  0.00  0.00    +0.000 C 
ATOM      9  C   UNL     1     -36.461 104.955   0.762  0.00  0.00    +0.000 C 
ATOM     10  C   UNL     1     -35.549 105.426   1.852  0.00  0.00    +0.000 C 
ATOM     11  C   UNL     1     -35.556 105.690   4.312  0.00  0.00    +0.000 C 
ATOM     12  H   UNL     1     -37.049 104.951   3.184  0.00  0.00    +0.000 HD
ENDROOT
BRANCH   4  16
ATOM     13  O   UNL     1     -34.842 106.189  -2.967  0.00  0.00    +0.000 OA
ATOM     14  C   UNL     1     -33.277 104.515  -2.705  0.00  0.00    +0.000 A 
ATOM     15  C   UNL     1     -33.367 104.835  -4.098  0.00  0.00    +0.000 A 
ATOM     16  C   UNL     1     -34.227 105.352  -2.009  0.00  0.00    +0.000 A 
ATOM     17  C   UNL     1     -34.335 105.887  -4.240  0.00  0.00    +0.000 A 
ATOM     18  C   UNL     1     -35.006 106.438  -5.451  0.00  0.00    +0.000 C 
BRANCH  14  19
ATOM     19  O   UNL     1     -32.913 103.254  -2.328  0.00  0.00    +0.000 OA
ATOM     20  H   UNL     1     -32.191 102.893  -2.888  0.00  0.00    +0.000 HD
ENDBRANCH  14  19
BRANCH  15  21
ATOM     21  O   UNL     1     -33.130 103.886  -5.057  0.00  0.00    +0.000 OA
ATOM     22  H   UNL     1     -32.207 103.572  -5.006  0.00  0.00    +0.000 HD
ENDBRANCH  15  21
ENDBRANCH   4  16
BRANCH  11  23
ATOM     23  O   UNL     1     -36.449 105.399   5.306  0.00  0.00    +0.000 OA
BRANCH  23  24
ATOM     24  C   UNL     1     -37.441 104.577   4.970  0.00  0.00    +0.000 C 
ATOM     25  C   UNL     1     -38.582 103.631   4.582  0.00  0.00    +0.000 C 
BRANCH  25  26
ATOM     26  C   UNL     1     -39.722 102.686   4.191  0.00  0.00    +0.000 C 
ATOM     27  C   UNL     1     -40.867 101.746   3.805  0.00  0.00    +0.000 C 
ATOM     28  C   UNL     1     -42.021 100.814   3.420  0.00  0.00    +0.000 C 
ENDBRANCH  25  26
ENDBRANCH  23  24
ENDBRANCH  11  23
TORSDOF 6
ENDMDL
MODEL 5
REMARK VINA RESULT:      -5.9     30.228     32.012
REMARK  Name = 60953_Capecitabine.pdbqt.pdb
REMARK  6 active torsions:
REMARK  status: ('A' for Active; 'I' for Inactive)
REMARK    1  A    between atoms: N_4  and  C_16
REMARK    2  A    between atoms: C_11  and  O_23
REMARK    3  A    between atoms: C_14  and  O_19
REMARK    4  A    between atoms: C_15  and  O_21
REMARK    5  A    between atoms: O_23  and  C_24
REMARK    6  A    between atoms: C_25  and  C_26
REMARK                            x       y       z     vdW  Elec       q    Type
REMARK                         _______ _______ _______ _____ _____    ______ ____
ROOT
ATOM      1  F   UNL     1     -30.428  86.235  16.401  0.00  0.00    +0.000 F 
ATOM      2  O   UNL     1     -35.035  88.736  17.507  0.00  0.00    +0.000 OA
ATOM      3  O   UNL     1     -31.118  91.166  16.724  0.00  0.00    +0.000 OA
ATOM      4  N   UNL     1     -33.851  86.740  17.385  0.00  0.00    +0.000 N 
ATOM      5  N   UNL     1     -32.779  88.873  17.140  0.00  0.00    +0.000 NA
ATOM      6  N   UNL     1     -30.462  88.933  16.717  0.00  0.00    +0.000 N 
ATOM      7  C   UNL     1     -32.616  86.227  17.217  0.00  0.00    +0.000 C 
ATOM      8  C   UNL     1     -33.962  88.155  17.361  0.00  0.00    +0.000 C 
ATOM      9  C   UNL     1     -31.465  86.780  17.060  0.00  0.00    +0.000 C 
ATOM     10  C   UNL     1     -31.640  88.266  16.982  0.00  0.00    +0.000 C 
ATOM     11  C   UNL     1     -30.276  90.291  16.585  0.00  0.00    +0.000 C 
ATOM     12  H   UNL     1     -29.623  88.389  16.572  0.00  0.00    +0.000 HD
ENDROOT
BRANCH   4  16
ATOM     13  O   UNL     1     -35.338  85.566  18.892  0.00  0.00    +0.000 OA
ATOM     14  C   UNL     1     -35.672  85.083  16.661  0.00  0.00    +0.000 A 
ATOM     15  C   UNL     1     -36.568  84.279  17.435  0.00  0.00    +0.000 A 
ATOM     16  C   UNL     1     -34.887  85.866  17.587  0.00  0.00    +0.000 A 
ATOM     17  C   UNL     1     -36.356  84.602  18.819  0.00  0.00    +0.000 A 
ATOM     18  C   UNL     1     -36.816  83.920  20.061  0.00  0.00    +0.000 C 
BRANCH  14  19
ATOM     19  O   UNL     1     -35.238  84.629  15.448  0.00  0.00    +0.000 OA
ATOM     20  H   UNL     1     -35.983  84.370  14.860  0.00  0.00    +0.000 HD
ENDBRANCH  14  19
BRANCH  15  21
ATOM     21  O   UNL     1     -36.967  83.044  16.996  0.00  0.00    +0.000 OA
ATOM     22  H   UNL     1     -36.192  82.468  16.847  0.00  0.00    +0.000 HD
ENDBRANCH  15  21
ENDBRANCH   4  16
BRANCH  11  23
ATOM     23  O   UNL     1     -28.963  90.520  16.281  0.00  0.00    +0.000 OA
BRANCH  23  24
ATOM     24  C   UNL     1     -28.390  89.624  15.481  0.00  0.00    +0.000 C 
ATOM     25  C   UNL     1     -27.733  88.590  14.560  0.00  0.00    +0.000 C 
BRANCH  25  26
ATOM     26  C   UNL     1     -27.076  87.556  13.640  0.00  0.00    +0.000 C 
ATOM     27  C   UNL     1     -26.414  86.527  12.721  0.00  0.00    +0.000 C 
ATOM     28  C   UNL     1     -25.739  85.501  11.803  0.00  0.00    +0.000 C 
ENDBRANCH  25  26
ENDBRANCH  23  24
ENDBRANCH  11  23
TORSDOF 6
ENDMDL
MODEL 6
REMARK VINA RESULT:      -5.7     29.296     30.620
REMARK  Name = 60953_Capecitabine.pdbqt.pdb
REMARK  6 active torsions:
REMARK  status: ('A' for Active; 'I' for Inactive)
REMARK    1  A    between atoms: N_4  and  C_16
REMARK    2  A    between atoms: C_11  and  O_23
REMARK    3  A    between atoms: C_14  and  O_19
REMARK    4  A    between atoms: C_15  and  O_21
REMARK    5  A    between atoms: O_23  and  C_24
REMARK    6  A    between atoms: C_25  and  C_26
REMARK                            x       y       z     vdW  Elec       q    Type
REMARK                         _______ _______ _______ _____ _____    ______ ____
ROOT
ATOM      1  F   UNL     1     -30.079  85.614  16.450  0.00  0.00    +0.000 F 
ATOM      2  O   UNL     1     -28.628  90.697  15.579  0.00  0.00    +0.000 OA
ATOM      3  O   UNL     1     -27.523  87.335  12.525  0.00  0.00    +0.000 OA
ATOM      4  N   UNL     1     -29.515  89.119  17.035  0.00  0.00    +0.000 N 
ATOM      5  N   UNL     1     -28.530  88.502  14.936  0.00  0.00    +0.000 NA
ATOM      6  N   UNL     1     -28.507  86.228  14.320  0.00  0.00    +0.000 N 
ATOM      7  C   UNL     1     -29.717  87.796  17.199  0.00  0.00    +0.000 C 
ATOM      8  C   UNL     1     -28.869  89.520  15.837  0.00  0.00    +0.000 C 
ATOM      9  C   UNL     1     -29.408  86.778  16.475  0.00  0.00    +0.000 C 
ATOM     10  C   UNL     1     -28.784  87.255  15.200  0.00  0.00    +0.000 C 
ATOM     11  C   UNL     1     -27.935  86.322  13.071  0.00  0.00    +0.000 C 
ATOM     12  H   UNL     1     -28.766  85.287  14.583  0.00  0.00    +0.000 HD
ENDROOT
BRANCH   4  16
ATOM     13  O   UNL     1     -29.761  89.604  19.394  0.00  0.00    +0.000 OA
ATOM     14  C   UNL     1     -30.583  91.245  17.997  0.00  0.00    +0.000 A 
ATOM     15  C   UNL     1     -30.849  91.630  19.350  0.00  0.00    +0.000 A 
ATOM     16  C   UNL     1     -29.924  89.960  18.036  0.00  0.00    +0.000 A 
ATOM     17  C   UNL     1     -30.319  90.604  20.205  0.00  0.00    +0.000 A 
ATOM     18  C   UNL     1     -30.516  90.348  21.660  0.00  0.00    +0.000 C 
BRANCH  14  19
ATOM     19  O   UNL     1     -31.412  91.676  17.000  0.00  0.00    +0.000 OA
ATOM     20  H   UNL     1     -32.077  90.996  16.751  0.00  0.00    +0.000 HD
ENDBRANCH  14  19
BRANCH  15  21
ATOM     21  O   UNL     1     -31.943  92.392  19.665  0.00  0.00    +0.000 OA
ATOM     22  H   UNL     1     -31.667  93.220  20.102  0.00  0.00    +0.000 HD
ENDBRANCH  15  21
ENDBRANCH   4  16
BRANCH  11  23
ATOM     23  O   UNL     1     -27.884  85.070  12.525  0.00  0.00    +0.000 OA
BRANCH  23  24
ATOM     24  C   UNL     1     -26.949  84.882  11.596  0.00  0.00    +0.000 C 
ATOM     25  C   UNL     1     -25.873  84.667  10.527  0.00  0.00    +0.000 C 
BRANCH  25  26
ATOM     26  C   UNL     1     -24.797  84.454   9.457  0.00  0.00    +0.000 C 
ATOM     27  C   UNL     1     -23.718  84.248   8.391  0.00  0.00    +0.000 C 
ATOM     28  C   UNL     1     -22.630  84.047   7.331  0.00  0.00    +0.000 C 
ENDBRANCH  25  26
ENDBRANCH  23  24
ENDBRANCH  11  23
TORSDOF 6
ENDMDL
MODEL 7
REMARK VINA RESULT:      -5.4     17.032     18.854
REMARK  Name = 60953_Capecitabine.pdbqt.pdb
REMARK  6 active torsions:
REMARK  status: ('A' for Active; 'I' for Inactive)
REMARK    1  A    between atoms: N_4  and  C_16
REMARK    2  A    between atoms: C_11  and  O_23
REMARK    3  A    between atoms: C_14  and  O_19
REMARK    4  A    between atoms: C_15  and  O_21
REMARK    5  A    between atoms: O_23  and  C_24
REMARK    6  A    between atoms: C_25  and  C_26
REMARK                            x       y       z     vdW  Elec       q    Type
REMARK                         _______ _______ _______ _____ _____    ______ ____
ROOT
ATOM      1  F   UNL     1     -40.108 105.671  -1.217  0.00  0.00    +0.000 F 
ATOM      2  O   UNL     1     -39.730 101.695   2.353  0.00  0.00    +0.000 OA
ATOM      3  O   UNL     1     -42.742 101.433  -1.213  0.00  0.00    +0.000 OA
ATOM      4  N   UNL     1     -39.158 103.863   1.744  0.00  0.00    +0.000 N 
ATOM      5  N   UNL     1     -40.799 102.593   0.538  0.00  0.00    +0.000 NA
ATOM      6  N   UNL     1     -41.822 103.566  -1.348  0.00  0.00    +0.000 N 
ATOM      7  C   UNL     1     -39.429 104.842   0.857  0.00  0.00    +0.000 C 
ATOM      8  C   UNL     1     -39.888 102.655   1.601  0.00  0.00    +0.000 C 
ATOM      9  C   UNL     1     -40.268 104.918  -0.116  0.00  0.00    +0.000 C 
ATOM     10  C   UNL     1     -40.970 103.603  -0.263  0.00  0.00    +0.000 C 
ATOM     11  C   UNL     1     -42.613 102.518  -1.761  0.00  0.00    +0.000 C 
ATOM     12  H   UNL     1     -41.875 104.380  -1.944  0.00  0.00    +0.000 HD
ENDROOT
BRANCH   4  16
ATOM     13  O   UNL     1     -38.543 104.929   3.828  0.00  0.00    +0.000 OA
ATOM     14  C   UNL     1     -36.842 103.723   2.842  0.00  0.00    +0.000 A 
ATOM     15  C   UNL     1     -36.326 104.346   4.022  0.00  0.00    +0.000 A 
ATOM     16  C   UNL     1     -38.226 104.118   2.716  0.00  0.00    +0.000 A 
ATOM     17  C   UNL     1     -37.401 105.082   4.630  0.00  0.00    +0.000 A 
ATOM     18  C   UNL     1     -37.393 106.102   5.716  0.00  0.00    +0.000 C 
BRANCH  14  19
ATOM     19  O   UNL     1     -36.001 103.457   1.799  0.00  0.00    +0.000 OA
ATOM     20  H   UNL     1     -35.512 104.257   1.503  0.00  0.00    +0.000 HD
ENDBRANCH  14  19
BRANCH  15  21
ATOM     21  O   UNL     1     -35.009 104.715   4.107  0.00  0.00    +0.000 OA
ATOM     22  H   UNL     1     -34.437 103.926   4.160  0.00  0.00    +0.000 HD
ENDBRANCH  15  21
ENDBRANCH   4  16
BRANCH  11  23
ATOM     23  O   UNL     1     -43.263 102.892  -2.903  0.00  0.00    +0.000 OA
BRANCH  23  24
ATOM     24  C   UNL     1     -44.149 102.019  -3.378  0.00  0.00    +0.000 C 
ATOM     25  C   UNL     1     -45.171 101.015  -3.922  0.00  0.00    +0.000 C 
BRANCH  25  26
ATOM     26  C   UNL     1     -46.193 100.012  -4.465  0.00  0.00    +0.000 C 
ATOM     27  C   UNL     1     -47.219  99.010  -5.001  0.00  0.00    +0.000 C 
ATOM     28  C   UNL     1     -48.254  98.012  -5.530  0.00  0.00    +0.000 C 
ENDBRANCH  25  26
ENDBRANCH  23  24
ENDBRANCH  11  23
TORSDOF 6
ENDMDL
MODEL 8
REMARK VINA RESULT:      -5.3     16.977     18.668
REMARK  Name = 60953_Capecitabine.pdbqt.pdb
REMARK  6 active torsions:
REMARK  status: ('A' for Active; 'I' for Inactive)
REMARK    1  A    between atoms: N_4  and  C_16
REMARK    2  A    between atoms: C_11  and  O_23
REMARK    3  A    between atoms: C_14  and  O_19
REMARK    4  A    between atoms: C_15  and  O_21
REMARK    5  A    between atoms: O_23  and  C_24
REMARK    6  A    between atoms: C_25  and  C_26
REMARK                            x       y       z     vdW  Elec       q    Type
REMARK                         _______ _______ _______ _____ _____    ______ ____
ROOT
ATOM      1  F   UNL     1     -39.863 104.505  -0.678  0.00  0.00    +0.000 F 
ATOM      2  O   UNL     1     -38.941 101.696   3.790  0.00  0.00    +0.000 OA
ATOM      3  O   UNL     1     -42.264 100.380   0.776  0.00  0.00    +0.000 OA
ATOM      4  N   UNL     1     -38.542 103.619   2.549  0.00  0.00    +0.000 N 
ATOM      5  N   UNL     1     -40.224 102.026   1.922  0.00  0.00    +0.000 NA
ATOM      6  N   UNL     1     -41.471 102.410  -0.039  0.00  0.00    +0.000 N 
ATOM      7  C   UNL     1     -38.947 104.304   1.461  0.00  0.00    +0.000 C 
ATOM      8  C   UNL     1     -39.220 102.403   2.824  0.00  0.00    +0.000 C 
ATOM      9  C   UNL     1     -39.878 104.086   0.599  0.00  0.00    +0.000 C 
ATOM     10  C   UNL     1     -40.522 102.767   0.896  0.00  0.00    +0.000 C 
ATOM     11  C   UNL     1     -42.244 101.270  -0.060  0.00  0.00    +0.000 C 
ATOM     12  H   UNL     1     -41.623 103.022  -0.828  0.00  0.00    +0.000 HD
ENDROOT
BRANCH   4  16
ATOM     13  O   UNL     1     -37.826 104.908   4.469  0.00  0.00    +0.000 OA
ATOM     14  C   UNL     1     -36.101 104.147   3.140  0.00  0.00    +0.000 A 
ATOM     15  C   UNL     1     -35.543 104.940   4.193  0.00  0.00    +0.000 A 
ATOM     16  C   UNL     1     -37.536 104.157   3.308  0.00  0.00    +0.000 A 
ATOM     17  C   UNL     1     -36.629 105.394   5.017  0.00  0.00    +0.000 A 
ATOM     18  C   UNL     1     -36.675 106.430   6.087  0.00  0.00    +0.000 C 
BRANCH  14  19
ATOM     19  O   UNL     1     -35.449 104.064   1.943  0.00  0.00    +0.000 OA
ATOM     20  H   UNL     1     -36.043 103.773   1.216  0.00  0.00    +0.000 HD
ENDBRANCH  14  19
BRANCH  15  21
ATOM     21  O   UNL     1     -34.384 105.647   4.006  0.00  0.00    +0.000 OA
ATOM     22  H   UNL     1     -33.620 105.147   4.350  0.00  0.00    +0.000 HD
ENDBRANCH  15  21
ENDBRANCH   4  16
BRANCH  11  23
ATOM     23  O   UNL     1     -43.019 101.295  -1.186  0.00  0.00    +0.000 OA
BRANCH  23  24
ATOM     24  C   UNL     1     -42.887 102.373  -1.956  0.00  0.00    +0.000 C 
ATOM     25  C   UNL     1     -42.738 103.615  -2.841  0.00  0.00    +0.000 C 
BRANCH  25  26
ATOM     26  C   UNL     1     -42.590 104.857  -3.725  0.00  0.00    +0.000 C 
ATOM     27  C   UNL     1     -42.449 106.097  -4.612  0.00  0.00    +0.000 C 
ATOM     28  C   UNL     1     -42.321 107.337  -5.503  0.00  0.00    +0.000 C 
ENDBRANCH  25  26
ENDBRANCH  23  24
ENDBRANCH  11  23
TORSDOF 6
ENDMDL
MODEL 9
REMARK VINA RESULT:      -5.2     26.744     27.890
REMARK  Name = 60953_Capecitabine.pdbqt.pdb
REMARK  6 active torsions:
REMARK  status: ('A' for Active; 'I' for Inactive)
REMARK    1  A    between atoms: N_4  and  C_16
REMARK    2  A    between atoms: C_11  and  O_23
REMARK    3  A    between atoms: C_14  and  O_19
REMARK    4  A    between atoms: C_15  and  O_21
REMARK    5  A    between atoms: O_23  and  C_24
REMARK    6  A    between atoms: C_25  and  C_26
REMARK                            x       y       z     vdW  Elec       q    Type
REMARK                         _______ _______ _______ _____ _____    ______ ____
ROOT
ATOM      1  F   UNL     1     -41.663  82.466   3.725  0.00  0.00    +0.000 F 
ATOM      2  O   UNL     1     -44.566  79.375   7.000  0.00  0.00    +0.000 OA
ATOM      3  O   UNL     1     -40.341  78.010   5.539  0.00  0.00    +0.000 OA
ATOM      4  N   UNL     1     -44.462  81.249   5.631  0.00  0.00    +0.000 N 
ATOM      5  N   UNL     1     -42.692  79.631   5.709  0.00  0.00    +0.000 NA
ATOM      6  N   UNL     1     -40.774  79.986   4.389  0.00  0.00    +0.000 N 
ATOM      7  C   UNL     1     -43.693  81.878   4.719  0.00  0.00    +0.000 C 
ATOM      8  C   UNL     1     -43.953  80.038   6.166  0.00  0.00    +0.000 C 
ATOM      9  C   UNL     1     -42.558  81.578   4.192  0.00  0.00    +0.000 C 
ATOM     10  C   UNL     1     -42.036  80.327   4.829  0.00  0.00    +0.000 C 
ATOM     11  C   UNL     1     -40.015  78.901   4.769  0.00  0.00    +0.000 C 
ATOM     12  H   UNL     1     -40.314  80.596   3.728  0.00  0.00    +0.000 HD
ENDROOT
BRANCH   4  16
ATOM     13  O   UNL     1     -46.739  81.804   5.024  0.00  0.00    +0.000 OA
ATOM     14  C   UNL     1     -46.120  82.510   7.131  0.00  0.00    +0.000 A 
ATOM     15  C   UNL     1     -47.456  82.957   6.881  0.00  0.00    +0.000 A 
ATOM     16  C   UNL     1     -45.671  81.812   5.948  0.00  0.00    +0.000 A 
ATOM     17  C   UNL     1     -47.830  82.498   5.571  0.00  0.00    +0.000 A 
ATOM     18  C   UNL     1     -48.983  82.863   4.701  0.00  0.00    +0.000 C 
BRANCH  14  19
ATOM     19  O   UNL     1     -45.319  83.225   7.975  0.00  0.00    +0.000 OA
ATOM     20  H   UNL     1     -45.616  83.161   8.911  0.00  0.00    +0.000 HD
ENDBRANCH  14  19
BRANCH  15  21
ATOM     21  O   UNL     1     -47.933  84.111   7.445  0.00  0.00    +0.000 OA
ATOM     22  H   UNL     1     -48.646  83.910   8.081  0.00  0.00    +0.000 HD
ENDBRANCH  15  21
ENDBRANCH   4  16
BRANCH  11  23
ATOM     23  O   UNL     1     -38.813  78.968   4.123  0.00  0.00    +0.000 OA
BRANCH  23  24
ATOM     24  C   UNL     1     -37.737  79.020   4.906  0.00  0.00    +0.000 C 
ATOM     25  C   UNL     1     -36.499  79.078   5.806  0.00  0.00    +0.000 C 
BRANCH  25  26
ATOM     26  C   UNL     1     -35.261  79.134   6.707  0.00  0.00    +0.000 C 
ATOM     27  C   UNL     1     -34.027  79.195   7.611  0.00  0.00    +0.000 C 
ATOM     28  C   UNL     1     -32.798  79.263   8.525  0.00  0.00    +0.000 C 
ENDBRANCH  25  26
ENDBRANCH  23  24
ENDBRANCH  11  23
TORSDOF 6
ENDMDL
