MODEL 1
REMARK VINA RESULT:      -6.6      0.000      0.000
REMARK  Name = 6223_Gliotoxin.pdbqt.pdb
REMARK  3 active torsions:
REMARK  status: ('A' for Active; 'I' for Inactive)
REMARK    1  A    between atoms: C_10  and  C_21
REMARK    2  A    between atoms: C_14  and  O_19
REMARK    3  A    between atoms: C_21  and  O_22
REMARK                            x       y       z     vdW  Elec       q    Type
REMARK                         _______ _______ _______ _____ _____    ______ ____
ROOT
ATOM      1  S   UNL     1     -27.797  87.331  -4.686  0.00  0.00    +0.000 S 
ATOM      2  S   UNL     1     -26.718  88.870  -3.832  0.00  0.00    +0.000 S 
ATOM      3  O   UNL     1     -27.235  91.098  -6.646  0.00  0.00    +0.000 OA
ATOM      4  O   UNL     1     -25.169  86.267  -6.829  0.00  0.00    +0.000 OA
ATOM      5  N   UNL     1     -27.529  88.839  -6.955  0.00  0.00    +0.000 N 
ATOM      6  N   UNL     1     -25.024  88.454  -5.976  0.00  0.00    +0.000 N 
ATOM      7  C   UNL     1     -27.237  87.474  -6.417  0.00  0.00    +0.000 C 
ATOM      8  C   UNL     1     -28.465  88.789  -7.989  0.00  0.00    +0.000 A 
ATOM      9  C   UNL     1     -28.012  86.636  -7.329  0.00  0.00    +0.000 C 
ATOM     10  C   UNL     1     -25.826  89.544  -5.328  0.00  0.00    +0.000 C 
ATOM     11  C   UNL     1     -28.719  87.342  -8.312  0.00  0.00    +0.000 A 
ATOM     12  C   UNL     1     -26.915  89.942  -6.375  0.00  0.00    +0.000 C 
ATOM     13  C   UNL     1     -25.717  87.310  -6.467  0.00  0.00    +0.000 C 
ATOM     14  C   UNL     1     -29.416  89.830  -8.447  0.00  0.00    +0.000 A 
ATOM     15  C   UNL     1     -29.915  87.116  -8.774  0.00  0.00    +0.000 A 
ATOM     16  C   UNL     1     -30.604  89.248  -9.009  0.00  0.00    +0.000 A 
ATOM     17  C   UNL     1     -23.567  88.556  -5.907  0.00  0.00    +0.000 C 
ATOM     18  C   UNL     1     -30.989  88.126  -9.206  0.00  0.00    +0.000 A 
ENDROOT
BRANCH  14  19
ATOM     19  O   UNL     1     -29.434  91.096  -7.935  0.00  0.00    +0.000 OA
ATOM     20  H   UNL     1     -28.649  91.623  -8.184  0.00  0.00    +0.000 HD
ENDBRANCH  14  19
BRANCH  10  21
ATOM     21  C   UNL     1     -25.038  90.735  -4.912  0.00  0.00    +0.000 C 
BRANCH  21  22
ATOM     22  O   UNL     1     -24.340  91.815  -4.551  0.00  0.00    +0.000 OA
ATOM     23  H   UNL     1     -23.397  91.720  -4.781  0.00  0.00    +0.000 HD
ENDBRANCH  21  22
ENDBRANCH  10  21
TORSDOF 3
ENDMDL
MODEL 2
REMARK VINA RESULT:      -6.5     24.689     25.355
REMARK  Name = 6223_Gliotoxin.pdbqt.pdb
REMARK  3 active torsions:
REMARK  status: ('A' for Active; 'I' for Inactive)
REMARK    1  A    between atoms: C_10  and  C_21
REMARK    2  A    between atoms: C_14  and  O_19
REMARK    3  A    between atoms: C_21  and  O_22
REMARK                            x       y       z     vdW  Elec       q    Type
REMARK                         _______ _______ _______ _____ _____    ______ ____
ROOT
ATOM      1  S   UNL     1     -34.382 100.942  17.246  0.00  0.00    +0.000 S 
ATOM      2  S   UNL     1     -32.491 101.588  16.727  0.00  0.00    +0.000 S 
ATOM      3  O   UNL     1     -32.974 100.894  13.201  0.00  0.00    +0.000 OA
ATOM      4  O   UNL     1     -33.560  97.486  17.161  0.00  0.00    +0.000 OA
ATOM      5  N   UNL     1     -34.350  99.866  14.729  0.00  0.00    +0.000 N 
ATOM      6  N   UNL     1     -32.130  98.946  15.997  0.00  0.00    +0.000 N 
ATOM      7  C   UNL     1     -34.526  99.480  16.163  0.00  0.00    +0.000 C 
ATOM      8  C   UNL     1     -35.521  99.661  13.999  0.00  0.00    +0.000 A 
ATOM      9  C   UNL     1     -35.877  98.925  16.146  0.00  0.00    +0.000 C 
ATOM     10  C   UNL     1     -32.037 100.329  15.424  0.00  0.00    +0.000 C 
ATOM     11  C   UNL     1     -36.503  98.952  14.892  0.00  0.00    +0.000 A 
ATOM     12  C   UNL     1     -33.135 100.397  14.314  0.00  0.00    +0.000 C 
ATOM     13  C   UNL     1     -33.393  98.504  16.487  0.00  0.00    +0.000 C 
ATOM     14  C   UNL     1     -35.992 100.338  12.767  0.00  0.00    +0.000 A 
ATOM     15  C   UNL     1     -37.746  99.216  14.609  0.00  0.00    +0.000 A 
ATOM     16  C   UNL     1     -37.428 100.374  12.702  0.00  0.00    +0.000 A 
ATOM     17  C   UNL     1     -30.882  98.205  16.177  0.00  0.00    +0.000 C 
ATOM     18  C   UNL     1     -38.321  99.970  13.399  0.00  0.00    +0.000 A 
ENDROOT
BRANCH  14  19
ATOM     19  O   UNL     1     -35.240 101.255  12.091  0.00  0.00    +0.000 OA
ATOM     20  H   UNL     1     -35.320 102.160  12.453  0.00  0.00    +0.000 HD
ENDBRANCH  14  19
BRANCH  10  21
ATOM     21  C   UNL     1     -30.705 100.686  14.866  0.00  0.00    +0.000 C 
BRANCH  21  22
ATOM     22  O   UNL     1     -29.517 101.012  14.350  0.00  0.00    +0.000 OA
ATOM     23  H   UNL     1     -29.082 101.708  14.876  0.00  0.00    +0.000 HD
ENDBRANCH  21  22
ENDBRANCH  10  21
TORSDOF 3
ENDMDL
MODEL 3
REMARK VINA RESULT:      -6.3     24.688     25.985
REMARK  Name = 6223_Gliotoxin.pdbqt.pdb
REMARK  3 active torsions:
REMARK  status: ('A' for Active; 'I' for Inactive)
REMARK    1  A    between atoms: C_10  and  C_21
REMARK    2  A    between atoms: C_14  and  O_19
REMARK    3  A    between atoms: C_21  and  O_22
REMARK                            x       y       z     vdW  Elec       q    Type
REMARK                         _______ _______ _______ _____ _____    ______ ____
ROOT
ATOM      1  S   UNL     1     -34.470 102.538  15.301  0.00  0.00    +0.000 S 
ATOM      2  S   UNL     1     -36.403 102.075  15.857  0.00  0.00    +0.000 S 
ATOM      3  O   UNL     1     -35.691  98.541  16.236  0.00  0.00    +0.000 OA
ATOM      4  O   UNL     1     -34.851 101.450  11.939  0.00  0.00    +0.000 OA
ATOM      5  N   UNL     1     -34.263  99.827  14.976  0.00  0.00    +0.000 N 
ATOM      6  N   UNL     1     -36.402 100.627  13.503  0.00  0.00    +0.000 N 
ATOM      7  C   UNL     1     -34.100 101.111  14.225  0.00  0.00    +0.000 C 
ATOM      8  C   UNL     1     -33.045  99.159  15.111  0.00  0.00    +0.000 A 
ATOM      9  C   UNL     1     -32.691 101.044  13.846  0.00  0.00    +0.000 C 
ATOM     10  C   UNL     1     -36.642 100.448  14.973  0.00  0.00    +0.000 C 
ATOM     11  C   UNL     1     -32.021  99.895  14.291  0.00  0.00    +0.000 A 
ATOM     12  C   UNL     1     -35.516  99.484  15.467  0.00  0.00    +0.000 C 
ATOM     13  C   UNL     1     -35.115 101.070  13.081  0.00  0.00    +0.000 C 
ATOM     14  C   UNL     1     -32.612  98.198  16.153  0.00  0.00    +0.000 A 
ATOM     15  C   UNL     1     -30.810  99.789  14.757  0.00  0.00    +0.000 A 
ATOM     16  C   UNL     1     -31.190  98.253  16.361  0.00  0.00    +0.000 A 
ATOM     17  C   UNL     1     -37.554 100.503  12.611  0.00  0.00    +0.000 C 
ATOM     18  C   UNL     1     -30.284  98.878  15.877  0.00  0.00    +0.000 A 
ENDROOT
BRANCH  14  19
ATOM     19  O   UNL     1     -33.443  97.743  17.136  0.00  0.00    +0.000 OA
ATOM     20  H   UNL     1     -33.900  98.463  17.617  0.00  0.00    +0.000 HD
ENDBRANCH  14  19
BRANCH  10  21
ATOM     21  C   UNL     1     -37.984  99.911  15.325  0.00  0.00    +0.000 C 
BRANCH  21  22
ATOM     22  O   UNL     1     -39.197  99.442  15.631  0.00  0.00    +0.000 OA
ATOM     23  H   UNL     1     -39.143  98.547  16.017  0.00  0.00    +0.000 HD
ENDBRANCH  21  22
ENDBRANCH  10  21
TORSDOF 3
ENDMDL
MODEL 4
REMARK VINA RESULT:      -5.7     21.576     22.959
REMARK  Name = 6223_Gliotoxin.pdbqt.pdb
REMARK  3 active torsions:
REMARK  status: ('A' for Active; 'I' for Inactive)
REMARK    1  A    between atoms: C_10  and  C_21
REMARK    2  A    between atoms: C_14  and  O_19
REMARK    3  A    between atoms: C_21  and  O_22
REMARK                            x       y       z     vdW  Elec       q    Type
REMARK                         _______ _______ _______ _____ _____    ______ ____
ROOT
ATOM      1  S   UNL     1     -42.073 103.927   2.039  0.00  0.00    +0.000 S 
ATOM      2  S   UNL     1     -43.428 104.494   3.490  0.00  0.00    +0.000 S 
ATOM      3  O   UNL     1     -41.163 103.751   6.220  0.00  0.00    +0.000 OA
ATOM      4  O   UNL     1     -42.658 100.443   2.419  0.00  0.00    +0.000 OA
ATOM      5  N   UNL     1     -40.765 102.803   4.165  0.00  0.00    +0.000 N 
ATOM      6  N   UNL     1     -43.301 101.828   4.207  0.00  0.00    +0.000 N 
ATOM      7  C   UNL     1     -41.355 102.451   2.836  0.00  0.00    +0.000 C 
ATOM      8  C   UNL     1     -39.381 102.626   4.170  0.00  0.00    +0.000 A 
ATOM      9  C   UNL     1     -40.183 101.945   2.127  0.00  0.00    +0.000 C 
ATOM     10  C   UNL     1     -43.110 103.196   4.793  0.00  0.00    +0.000 C 
ATOM     11  C   UNL     1     -38.995 101.970   2.871  0.00  0.00    +0.000 A 
ATOM     12  C   UNL     1     -41.596 103.282   5.170  0.00  0.00    +0.000 C 
ATOM     13  C   UNL     1     -42.470 101.441   3.116  0.00  0.00    +0.000 C 
ATOM     14  C   UNL     1     -38.351 103.297   4.998  0.00  0.00    +0.000 A 
ATOM     15  C   UNL     1     -37.793 102.274   2.474  0.00  0.00    +0.000 A 
ATOM     16  C   UNL     1     -37.093 103.383   4.307  0.00  0.00    +0.000 A 
ATOM     17  C   UNL     1     -44.443 101.046   4.678  0.00  0.00    +0.000 C 
ATOM     18  C   UNL     1     -36.687 103.025   3.233  0.00  0.00    +0.000 A 
ENDROOT
BRANCH  14  19
ATOM     19  O   UNL     1     -38.658 104.172   5.999  0.00  0.00    +0.000 OA
ATOM     20  H   UNL     1     -39.291 103.807   6.650  0.00  0.00    +0.000 HD
ENDBRANCH  14  19
BRANCH  10  21
ATOM     21  C   UNL     1     -43.962 103.493   5.975  0.00  0.00    +0.000 C 
BRANCH  21  22
ATOM     22  O   UNL     1     -44.724 103.742   7.044  0.00  0.00    +0.000 OA
ATOM     23  H   UNL     1     -45.350 103.013   7.210  0.00  0.00    +0.000 HD
ENDBRANCH  21  22
ENDBRANCH  10  21
TORSDOF 3
ENDMDL
MODEL 5
REMARK VINA RESULT:      -5.6      1.187      1.369
REMARK  Name = 6223_Gliotoxin.pdbqt.pdb
REMARK  3 active torsions:
REMARK  status: ('A' for Active; 'I' for Inactive)
REMARK    1  A    between atoms: C_10  and  C_21
REMARK    2  A    between atoms: C_14  and  O_19
REMARK    3  A    between atoms: C_21  and  O_22
REMARK                            x       y       z     vdW  Elec       q    Type
REMARK                         _______ _______ _______ _____ _____    ______ ____
ROOT
ATOM      1  S   UNL     1     -28.717  86.853  -5.274  0.00  0.00    +0.000 S 
ATOM      2  S   UNL     1     -27.166  87.963  -4.482  0.00  0.00    +0.000 S 
ATOM      3  O   UNL     1     -27.374  90.510  -7.053  0.00  0.00    +0.000 OA
ATOM      4  O   UNL     1     -26.747  85.347  -7.820  0.00  0.00    +0.000 OA
ATOM      5  N   UNL     1     -28.310  88.450  -7.459  0.00  0.00    +0.000 N 
ATOM      6  N   UNL     1     -25.911  87.325  -6.861  0.00  0.00    +0.000 N 
ATOM      7  C   UNL     1     -28.344  87.011  -7.053  0.00  0.00    +0.000 C 
ATOM      8  C   UNL     1     -29.337  88.750  -8.356  0.00  0.00    +0.000 A 
ATOM      9  C   UNL     1     -29.419  86.500  -7.899  0.00  0.00    +0.000 C 
ATOM     10  C   UNL     1     -26.302  88.519  -6.042  0.00  0.00    +0.000 C 
ATOM     11  C   UNL     1     -30.013  87.459  -8.731  0.00  0.00    +0.000 A 
ATOM     12  C   UNL     1     -27.354  89.290  -6.902  0.00  0.00    +0.000 C 
ATOM     13  C   UNL     1     -26.943  86.457  -7.322  0.00  0.00    +0.000 C 
ATOM     14  C   UNL     1     -30.012  90.045  -8.613  0.00  0.00    +0.000 A 
ATOM     15  C   UNL     1     -31.270  87.603  -9.037  0.00  0.00    +0.000 A 
ATOM     16  C   UNL     1     -31.371  89.854  -9.041  0.00  0.00    +0.000 A 
ATOM     17  C   UNL     1     -24.484  87.031  -6.986  0.00  0.00    +0.000 C 
ATOM     18  C   UNL     1     -32.069  88.898  -9.252  0.00  0.00    +0.000 A 
ENDROOT
BRANCH  14  19
ATOM     19  O   UNL     1     -29.624  91.214  -8.025  0.00  0.00    +0.000 OA
ATOM     20  H   UNL     1     -29.038  91.754  -8.594  0.00  0.00    +0.000 HD
ENDBRANCH  14  19
BRANCH  10  21
ATOM     21  C   UNL     1     -25.176  89.414  -5.665  0.00  0.00    +0.000 C 
BRANCH  21  22
ATOM     22  O   UNL     1     -24.162  90.222  -5.344  0.00  0.00    +0.000 OA
ATOM     23  H   UNL     1     -23.915  90.794  -6.095  0.00  0.00    +0.000 HD
ENDBRANCH  21  22
ENDBRANCH  10  21
TORSDOF 3
ENDMDL
MODEL 6
REMARK VINA RESULT:      -5.5     20.842     22.122
REMARK  Name = 6223_Gliotoxin.pdbqt.pdb
REMARK  3 active torsions:
REMARK  status: ('A' for Active; 'I' for Inactive)
REMARK    1  A    between atoms: C_10  and  C_21
REMARK    2  A    between atoms: C_14  and  O_19
REMARK    3  A    between atoms: C_21  and  O_22
REMARK                            x       y       z     vdW  Elec       q    Type
REMARK                         _______ _______ _______ _____ _____    ______ ____
ROOT
ATOM      1  S   UNL     1     -37.445 107.554   4.232  0.00  0.00    +0.000 S 
ATOM      2  S   UNL     1     -35.585 108.272   3.697  0.00  0.00    +0.000 S 
ATOM      3  O   UNL     1     -34.240 104.967   3.056  0.00  0.00    +0.000 OA
ATOM      4  O   UNL     1     -36.476 106.615   7.520  0.00  0.00    +0.000 OA
ATOM      5  N   UNL     1     -36.121 105.161   4.363  0.00  0.00    +0.000 N 
ATOM      6  N   UNL     1     -34.753 106.896   5.945  0.00  0.00    +0.000 N 
ATOM      7  C   UNL     1     -36.952 106.085   5.197  0.00  0.00    +0.000 C 
ATOM      8  C   UNL     1     -36.772 103.945   4.149  0.00  0.00    +0.000 A 
ATOM      9  C   UNL     1     -38.086 105.227   5.532  0.00  0.00    +0.000 C 
ATOM     10  C   UNL     1     -34.476 106.985   4.473  0.00  0.00    +0.000 C 
ATOM     11  C   UNL     1     -38.019 103.935   4.991  0.00  0.00    +0.000 A 
ATOM     12  C   UNL     1     -34.894 105.600   3.883  0.00  0.00    +0.000 C 
ATOM     13  C   UNL     1     -36.064 106.526   6.362  0.00  0.00    +0.000 C 
ATOM     14  C   UNL     1     -36.622 102.983   3.032  0.00  0.00    +0.000 A 
ATOM     15  C   UNL     1     -38.979 103.215   4.486  0.00  0.00    +0.000 A 
ATOM     16  C   UNL     1     -37.841 102.262   2.791  0.00  0.00    +0.000 A 
ATOM     17  C   UNL     1     -33.708 107.362   6.857  0.00  0.00    +0.000 C 
ATOM     18  C   UNL     1     -38.935 102.248   3.292  0.00  0.00    +0.000 A 
ENDROOT
BRANCH  14  19
ATOM     19  O   UNL     1     -35.693 103.133   2.043  0.00  0.00    +0.000 OA
ATOM     20  H   UNL     1     -34.884 103.596   2.342  0.00  0.00    +0.000 HD
ENDBRANCH  14  19
BRANCH  10  21
ATOM     21  C   UNL     1     -33.066 107.302   4.121  0.00  0.00    +0.000 C 
BRANCH  21  22
ATOM     22  O   UNL     1     -31.796 107.587   3.823  0.00  0.00    +0.000 OA
ATOM     23  H   UNL     1     -31.300 106.783   3.579  0.00  0.00    +0.000 HD
ENDBRANCH  21  22
ENDBRANCH  10  21
TORSDOF 3
ENDMDL
MODEL 7
REMARK VINA RESULT:      -5.2     25.345     26.429
REMARK  Name = 6223_Gliotoxin.pdbqt.pdb
REMARK  3 active torsions:
REMARK  status: ('A' for Active; 'I' for Inactive)
REMARK    1  A    between atoms: C_10  and  C_21
REMARK    2  A    between atoms: C_14  and  O_19
REMARK    3  A    between atoms: C_21  and  O_22
REMARK                            x       y       z     vdW  Elec       q    Type
REMARK                         _______ _______ _______ _____ _____    ______ ____
ROOT
ATOM      1  S   UNL     1     -33.966 101.322  17.769  0.00  0.00    +0.000 S 
ATOM      2  S   UNL     1     -34.798  99.590  18.522  0.00  0.00    +0.000 S 
ATOM      3  O   UNL     1     -32.624  97.432  16.583  0.00  0.00    +0.000 OA
ATOM      4  O   UNL     1     -35.754 101.213  14.700  0.00  0.00    +0.000 OA
ATOM      5  N   UNL     1     -32.895  99.615  15.916  0.00  0.00    +0.000 N 
ATOM      6  N   UNL     1     -35.580  99.198  15.900  0.00  0.00    +0.000 N 
ATOM      7  C   UNL     1     -33.751 100.838  16.022  0.00  0.00    +0.000 C 
ATOM      8  C   UNL     1     -31.691  99.891  15.267  0.00  0.00    +0.000 A 
ATOM      9  C   UNL     1     -32.961 101.806  15.265  0.00  0.00    +0.000 C 
ATOM     10  C   UNL     1     -34.813  98.516  16.994  0.00  0.00    +0.000 C 
ATOM     11  C   UNL     1     -31.761 101.301  14.746  0.00  0.00    +0.000 A 
ATOM     12  C   UNL     1     -33.341  98.426  16.479  0.00  0.00    +0.000 C 
ATOM     13  C   UNL     1     -35.113 100.461  15.436  0.00  0.00    +0.000 C 
ATOM     14  C   UNL     1     -30.382  99.206  15.384  0.00  0.00    +0.000 A 
ATOM     15  C   UNL     1     -30.599 101.884  14.672  0.00  0.00    +0.000 A 
ATOM     16  C   UNL     1     -29.291 100.109  15.139  0.00  0.00    +0.000 A 
ATOM     17  C   UNL     1     -36.856  98.605  15.500  0.00  0.00    +0.000 C 
ATOM     18  C   UNL     1     -29.200 101.272  14.848  0.00  0.00    +0.000 A 
ENDROOT
BRANCH  14  19
ATOM     19  O   UNL     1     -30.199  98.077  16.130  0.00  0.00    +0.000 OA
ATOM     20  H   UNL     1     -29.258  97.898  16.332  0.00  0.00    +0.000 HD
ENDBRANCH  14  19
BRANCH  10  21
ATOM     21  C   UNL     1     -35.322  97.169  17.368  0.00  0.00    +0.000 C 
BRANCH  21  22
ATOM     22  O   UNL     1     -35.780  95.956  17.684  0.00  0.00    +0.000 OA
ATOM     23  H   UNL     1     -36.121  95.490  16.898  0.00  0.00    +0.000 HD
ENDBRANCH  21  22
ENDBRANCH  10  21
TORSDOF 3
ENDMDL
MODEL 8
REMARK VINA RESULT:      -5.1     11.701     13.630
REMARK  Name = 6223_Gliotoxin.pdbqt.pdb
REMARK  3 active torsions:
REMARK  status: ('A' for Active; 'I' for Inactive)
REMARK    1  A    between atoms: C_10  and  C_21
REMARK    2  A    between atoms: C_14  and  O_19
REMARK    3  A    between atoms: C_21  and  O_22
REMARK                            x       y       z     vdW  Elec       q    Type
REMARK                         _______ _______ _______ _____ _____    ______ ____
ROOT
ATOM      1  S   UNL     1     -18.037  87.892   3.599  0.00  0.00    +0.000 S 
ATOM      2  S   UNL     1     -17.223  88.767   5.282  0.00  0.00    +0.000 S 
ATOM      3  O   UNL     1     -20.457  89.586   6.701  0.00  0.00    +0.000 OA
ATOM      4  O   UNL     1     -18.695  90.968   1.944  0.00  0.00    +0.000 OA
ATOM      5  N   UNL     1     -20.316  89.149   4.448  0.00  0.00    +0.000 N 
ATOM      6  N   UNL     1     -18.392  91.060   4.274  0.00  0.00    +0.000 N 
ATOM      7  C   UNL     1     -19.403  89.056   3.267  0.00  0.00    +0.000 C 
ATOM      8  C   UNL     1     -21.586  88.654   4.150  0.00  0.00    +0.000 A 
ATOM      9  C   UNL     1     -20.317  88.568   2.237  0.00  0.00    +0.000 C 
ATOM     10  C   UNL     1     -18.376  90.218   5.516  0.00  0.00    +0.000 C 
ATOM     11  C   UNL     1     -21.632  88.360   2.675  0.00  0.00    +0.000 A 
ATOM     12  C   UNL     1     -19.821  89.641   5.650  0.00  0.00    +0.000 C 
ATOM     13  C   UNL     1     -18.827  90.458   3.058  0.00  0.00    +0.000 C 
ATOM     14  C   UNL     1     -22.604  88.071   5.056  0.00  0.00    +0.000 A 
ATOM     15  C   UNL     1     -22.450  87.396   2.364  0.00  0.00    +0.000 A 
ATOM     16  C   UNL     1     -23.424  87.107   4.375  0.00  0.00    +0.000 A 
ATOM     17  C   UNL     1     -17.796  92.393   4.356  0.00  0.00    +0.000 C 
ATOM     18  C   UNL     1     -23.484  86.684   3.251  0.00  0.00    +0.000 A 
ENDROOT
BRANCH  14  19
ATOM     19  O   UNL     1     -22.451  88.023   6.412  0.00  0.00    +0.000 OA
ATOM     20  H   UNL     1     -21.539  88.226   6.703  0.00  0.00    +0.000 HD
ENDBRANCH  14  19
BRANCH  10  21
ATOM     21  C   UNL     1     -17.982  90.940   6.755  0.00  0.00    +0.000 C 
BRANCH  21  22
ATOM     22  O   UNL     1     -17.647  91.590   7.872  0.00  0.00    +0.000 OA
ATOM     23  H   UNL     1     -16.879  91.174   8.307  0.00  0.00    +0.000 HD
ENDBRANCH  21  22
ENDBRANCH  10  21
TORSDOF 3
ENDMDL
MODEL 9
REMARK VINA RESULT:      -4.9     11.032     13.532
REMARK  Name = 6223_Gliotoxin.pdbqt.pdb
REMARK  3 active torsions:
REMARK  status: ('A' for Active; 'I' for Inactive)
REMARK    1  A    between atoms: C_10  and  C_21
REMARK    2  A    between atoms: C_14  and  O_19
REMARK    3  A    between atoms: C_21  and  O_22
REMARK                            x       y       z     vdW  Elec       q    Type
REMARK                         _______ _______ _______ _____ _____    ______ ____
ROOT
ATOM      1  S   UNL     1     -19.518  86.308   5.043  0.00  0.00    +0.000 S 
ATOM      2  S   UNL     1     -20.768  85.304   3.742  0.00  0.00    +0.000 S 
ATOM      3  O   UNL     1     -21.114  88.146   1.518  0.00  0.00    +0.000 OA
ATOM      4  O   UNL     1     -22.133  88.077   6.675  0.00  0.00    +0.000 OA
ATOM      5  N   UNL     1     -20.400  88.508   3.673  0.00  0.00    +0.000 N 
ATOM      6  N   UNL     1     -22.613  87.198   4.548  0.00  0.00    +0.000 N 
ATOM      7  C   UNL     1     -20.325  87.945   5.057  0.00  0.00    +0.000 C 
ATOM      8  C   UNL     1     -19.623  89.661   3.550  0.00  0.00    +0.000 A 
ATOM      9  C   UNL     1     -19.523  88.960   5.735  0.00  0.00    +0.000 C 
ATOM     10  C   UNL     1     -21.976  86.658   3.301  0.00  0.00    +0.000 C 
ATOM     11  C   UNL     1     -19.120  90.026   4.920  0.00  0.00    +0.000 A 
ATOM     12  C   UNL     1     -21.146  87.841   2.709  0.00  0.00    +0.000 C 
ATOM     13  C   UNL     1     -21.770  87.787   5.533  0.00  0.00    +0.000 C 
ATOM     14  C   UNL     1     -18.982  90.238   2.344  0.00  0.00    +0.000 A 
ATOM     15  C   UNL     1     -17.977  90.650   4.903  0.00  0.00    +0.000 A 
ATOM     16  C   UNL     1     -17.786  90.962   2.680  0.00  0.00    +0.000 A 
ATOM     17  C   UNL     1     -24.037  86.928   4.748  0.00  0.00    +0.000 C 
ATOM     18  C   UNL     1     -17.205  91.217   3.701  0.00  0.00    +0.000 A 
ENDROOT
BRANCH  14  19
ATOM     19  O   UNL     1     -19.158  89.724   1.092  0.00  0.00    +0.000 OA
ATOM     20  H   UNL     1     -18.675  88.885   0.949  0.00  0.00    +0.000 HD
ENDBRANCH  14  19
BRANCH  10  21
ATOM     21  C   UNL     1     -22.931  86.129   2.290  0.00  0.00    +0.000 C 
BRANCH  21  22
ATOM     22  O   UNL     1     -23.797  85.646   1.397  0.00  0.00    +0.000 OA
ATOM     23  H   UNL     1     -23.851  86.220   0.609  0.00  0.00    +0.000 HD
ENDBRANCH  21  22
ENDBRANCH  10  21
TORSDOF 3
ENDMDL
