MODEL 1
REMARK VINA RESULT:      -5.8      0.000      0.000
REMARK  Name = 6256_Trifluridine.pdbqt.pdb
REMARK  5 active torsions:
REMARK  status: ('A' for Active; 'I' for Inactive)
REMARK    1  A    between atoms: N_3  and  C1*_11
REMARK    2  A    between atoms: C_7  and  C_23
REMARK    3  A    between atoms: C3*_12  and  O3*_15
REMARK    4  A    between atoms: C4*_14  and  C5*_17
REMARK    5  A    between atoms: C5*_17  and  O5*_18
REMARK                            x       y       z     vdW  Elec       q    Type
REMARK                         _______ _______ _______ _____ _____    ______ ____
ROOT
ATOM      1  O   UNL     1     -34.182  98.017  17.538  0.00  0.00    +0.000 OA
ATOM      2  O   UNL     1     -37.577  99.260  14.712  0.00  0.00    +0.000 OA
ATOM      3  N   UNL     1     -33.614  99.213  15.573  0.00  0.00    +0.000 N 
ATOM      4  N   UNL     1     -35.837  98.673  16.088  0.00  0.00    +0.000 N 
ATOM      5  C   UNL     1     -34.181  99.774  14.487  0.00  0.00    +0.000 A 
ATOM      6  C   UNL     1     -34.483  98.586  16.495  0.00  0.00    +0.000 A 
ATOM      7  C   UNL     1     -35.385  99.900  14.034  0.00  0.00    +0.000 A 
ATOM      8  C   UNL     1     -36.376  99.268  14.941  0.00  0.00    +0.000 A 
ATOM      9  H   UNL     1     -36.500  98.238  16.714  0.00  0.00    +0.000 HD
ENDROOT
BRANCH   3  11
ATOM     10  O4* UNL     1     -31.635  99.057  16.955  0.00  0.00    +0.000 OA
ATOM     11  C1* UNL     1     -32.258  99.271  15.721  0.00  0.00    +0.000 A 
ATOM     12  C3* UNL     1     -30.022  99.528  15.361  0.00  0.00    +0.000 A 
ATOM     13  C2* UNL     1     -31.286  99.568  14.746  0.00  0.00    +0.000 A 
ATOM     14  C4* UNL     1     -30.258  99.214  16.748  0.00  0.00    +0.000 A 
BRANCH  12  15
ATOM     15  O3* UNL     1     -28.961 100.303  14.986  0.00  0.00    +0.000 OA
ATOM     16  H3* UNL     1     -28.181  99.755  14.790  0.00  0.00    +0.000 HD
ENDBRANCH  12  15
BRANCH  14  17
ATOM     17  C5* UNL     1     -29.335  99.270  17.811  0.00  0.00    +0.000 C 
BRANCH  17  18
ATOM     18  O5* UNL     1     -28.461  99.322  18.811  0.00  0.00    +0.000 OA
ATOM     19  H5* UNL     1     -28.073 100.212  18.872  0.00  0.00    +0.000 HD
ENDBRANCH  17  18
ENDBRANCH  14  17
ENDBRANCH   3  11
BRANCH   7  23
ATOM     20  F   UNL     1     -36.729 101.550  13.036  0.00  0.00    +0.000 F 
ATOM     21  F   UNL     1     -34.848 101.058  12.069  0.00  0.00    +0.000 F 
ATOM     22  F   UNL     1     -36.498  99.649  11.979  0.00  0.00    +0.000 F 
ATOM     23  C   UNL     1     -35.870 100.528  12.798  0.00  0.00    +0.000 C 
ENDBRANCH   7  23
TORSDOF 5
ENDMDL
MODEL 2
REMARK VINA RESULT:      -5.8      3.350      6.905
REMARK  Name = 6256_Trifluridine.pdbqt.pdb
REMARK  5 active torsions:
REMARK  status: ('A' for Active; 'I' for Inactive)
REMARK    1  A    between atoms: N_3  and  C1*_11
REMARK    2  A    between atoms: C_7  and  C_23
REMARK    3  A    between atoms: C3*_12  and  O3*_15
REMARK    4  A    between atoms: C4*_14  and  C5*_17
REMARK    5  A    between atoms: C5*_17  and  O5*_18
REMARK                            x       y       z     vdW  Elec       q    Type
REMARK                         _______ _______ _______ _____ _____    ______ ____
ROOT
ATOM      1  O   UNL     1     -34.489 102.300  12.350  0.00  0.00    +0.000 OA
ATOM      2  O   UNL     1     -31.072 100.103  14.485  0.00  0.00    +0.000 OA
ATOM      3  N   UNL     1     -35.055 100.641  13.943  0.00  0.00    +0.000 N 
ATOM      4  N   UNL     1     -32.824 101.171  13.457  0.00  0.00    +0.000 N 
ATOM      5  C   UNL     1     -34.484  99.763  14.792  0.00  0.00    +0.000 A 
ATOM      6  C   UNL     1     -34.184 101.447  13.176  0.00  0.00    +0.000 A 
ATOM      7  C   UNL     1     -33.274  99.441  15.110  0.00  0.00    +0.000 A 
ATOM      8  C   UNL     1     -32.280 100.241  14.350  0.00  0.00    +0.000 A 
ATOM      9  H   UNL     1     -32.159 101.721  12.931  0.00  0.00    +0.000 HD
ENDROOT
BRANCH   3  11
ATOM     10  O4* UNL     1     -37.198 101.233  14.898  0.00  0.00    +0.000 OA
ATOM     11  C1* UNL     1     -36.417 100.700  13.866  0.00  0.00    +0.000 A 
ATOM     12  C3* UNL     1     -38.586 100.502  13.195  0.00  0.00    +0.000 A 
ATOM     13  C2* UNL     1     -37.254 100.243  12.828  0.00  0.00    +0.000 A 
ATOM     14  C4* UNL     1     -38.535 101.115  14.498  0.00  0.00    +0.000 A 
BRANCH  12  15
ATOM     15  O3* UNL     1     -39.648  99.726  12.824  0.00  0.00    +0.000 OA
ATOM     16  H3* UNL     1     -40.490 100.187  12.985  0.00  0.00    +0.000 HD
ENDBRANCH  12  15
BRANCH  14  17
ATOM     17  C5* UNL     1     -39.611 101.364  15.373  0.00  0.00    +0.000 C 
BRANCH  17  18
ATOM     18  O5* UNL     1     -40.625 101.602  16.199  0.00  0.00    +0.000 OA
ATOM     19  H5* UNL     1     -40.924 102.524  16.107  0.00  0.00    +0.000 HD
ENDBRANCH  17  18
ENDBRANCH  14  17
ENDBRANCH   3  11
BRANCH   7  23
ATOM     20  F   UNL     1     -32.037  98.965  17.052  0.00  0.00    +0.000 F 
ATOM     21  F   UNL     1     -33.806  97.768  16.662  0.00  0.00    +0.000 F 
ATOM     22  F   UNL     1     -32.029  97.476  15.449  0.00  0.00    +0.000 F 
ATOM     23  C   UNL     1     -32.782  98.428  16.053  0.00  0.00    +0.000 C 
ENDBRANCH   7  23
TORSDOF 5
ENDMDL
MODEL 3
REMARK VINA RESULT:      -5.6     27.418     29.314
REMARK  Name = 6256_Trifluridine.pdbqt.pdb
REMARK  5 active torsions:
REMARK  status: ('A' for Active; 'I' for Inactive)
REMARK    1  A    between atoms: N_3  and  C1*_11
REMARK    2  A    between atoms: C_7  and  C_23
REMARK    3  A    between atoms: C3*_12  and  O3*_15
REMARK    4  A    between atoms: C4*_14  and  C5*_17
REMARK    5  A    between atoms: C5*_17  and  O5*_18
REMARK                            x       y       z     vdW  Elec       q    Type
REMARK                         _______ _______ _______ _____ _____    ______ ____
ROOT
ATOM      1  O   UNL     1     -34.320  94.850 -13.556  0.00  0.00    +0.000 OA
ATOM      2  O   UNL     1     -29.980  94.037 -14.809  0.00  0.00    +0.000 OA
ATOM      3  N   UNL     1     -32.811  96.675 -13.593  0.00  0.00    +0.000 N 
ATOM      4  N   UNL     1     -32.137  94.507 -14.182  0.00  0.00    +0.000 N 
ATOM      5  C   UNL     1     -31.523  96.965 -13.864  0.00  0.00    +0.000 A 
ATOM      6  C   UNL     1     -33.208  95.328 -13.750  0.00  0.00    +0.000 A 
ATOM      7  C   UNL     1     -30.487  96.297 -14.253  0.00  0.00    +0.000 A 
ATOM      8  C   UNL     1     -30.809  94.860 -14.447  0.00  0.00    +0.000 A 
ATOM      9  H   UNL     1     -32.370  93.533 -14.308  0.00  0.00    +0.000 HD
ENDROOT
BRANCH   3  11
ATOM     10  O4* UNL     1     -33.921  97.904 -11.830  0.00  0.00    +0.000 OA
ATOM     11  C1* UNL     1     -33.646  97.674 -13.183  0.00  0.00    +0.000 A 
ATOM     12  C3* UNL     1     -35.107  99.422 -13.116  0.00  0.00    +0.000 A 
ATOM     13  C2* UNL     1     -34.371  98.587 -13.974  0.00  0.00    +0.000 A 
ATOM     14  C4* UNL     1     -34.821  98.977 -11.775  0.00  0.00    +0.000 A 
BRANCH  12  15
ATOM     15  O3* UNL     1     -36.319  99.969 -13.431  0.00  0.00    +0.000 OA
ATOM     16  H3* UNL     1     -36.824 100.185 -12.628  0.00  0.00    +0.000 HD
ENDBRANCH  12  15
BRANCH  14  17
ATOM     17  C5* UNL     1     -35.475  99.355 -10.587  0.00  0.00    +0.000 C 
BRANCH  17  18
ATOM     18  O5* UNL     1     -36.095  99.714  -9.466  0.00  0.00    +0.000 OA
ATOM     19  H5* UNL     1     -35.818  99.142  -8.730  0.00  0.00    +0.000 HD
ENDBRANCH  17  18
ENDBRANCH  14  17
ENDBRANCH   3  11
BRANCH   7  23
ATOM     20  F   UNL     1     -28.204  96.065 -13.741  0.00  0.00    +0.000 F 
ATOM     21  F   UNL     1     -28.737  96.557 -15.789  0.00  0.00    +0.000 F 
ATOM     22  F   UNL     1     -28.939  98.065 -14.240  0.00  0.00    +0.000 F 
ATOM     23  C   UNL     1     -29.109  96.743 -14.492  0.00  0.00    +0.000 C 
ENDBRANCH   7  23
TORSDOF 5
ENDMDL
MODEL 4
REMARK VINA RESULT:      -5.2     22.053     23.151
REMARK  Name = 6256_Trifluridine.pdbqt.pdb
REMARK  5 active torsions:
REMARK  status: ('A' for Active; 'I' for Inactive)
REMARK    1  A    between atoms: N_3  and  C1*_11
REMARK    2  A    between atoms: C_7  and  C_23
REMARK    3  A    between atoms: C3*_12  and  O3*_15
REMARK    4  A    between atoms: C4*_14  and  C5*_17
REMARK    5  A    between atoms: C5*_17  and  O5*_18
REMARK                            x       y       z     vdW  Elec       q    Type
REMARK                         _______ _______ _______ _____ _____    ______ ____
ROOT
ATOM      1  O   UNL     1     -43.115  81.437   2.328  0.00  0.00    +0.000 OA
ATOM      2  O   UNL     1     -45.883  84.854   3.642  0.00  0.00    +0.000 OA
ATOM      3  N   UNL     1     -43.563  81.681   4.641  0.00  0.00    +0.000 N 
ATOM      4  N   UNL     1     -44.498  83.124   3.047  0.00  0.00    +0.000 N 
ATOM      5  C   UNL     1     -44.255  82.456   5.499  0.00  0.00    +0.000 A 
ATOM      6  C   UNL     1     -43.659  82.004   3.269  0.00  0.00    +0.000 A 
ATOM      7  C   UNL     1     -45.032  83.484   5.395  0.00  0.00    +0.000 A 
ATOM      8  C   UNL     1     -45.195  83.901   3.979  0.00  0.00    +0.000 A 
ATOM      9  H   UNL     1     -44.599  83.397   2.080  0.00  0.00    +0.000 HD
ENDROOT
BRANCH   3  11
ATOM     10  O4* UNL     1     -41.426  80.603   4.986  0.00  0.00    +0.000 OA
ATOM     11  C1* UNL     1     -42.817  80.648   5.132  0.00  0.00    +0.000 A 
ATOM     12  C3* UNL     1     -42.135  78.703   6.105  0.00  0.00    +0.000 A 
ATOM     13  C2* UNL     1     -43.260  79.492   5.803  0.00  0.00    +0.000 A 
ATOM     14  C4* UNL     1     -40.994  79.410   5.580  0.00  0.00    +0.000 A 
BRANCH  12  15
ATOM     15  O3* UNL     1     -42.150  77.339   6.169  0.00  0.00    +0.000 OA
ATOM     16  H3* UNL     1     -41.406  77.006   6.702  0.00  0.00    +0.000 HD
ENDBRANCH  12  15
BRANCH  14  17
ATOM     17  C5* UNL     1     -39.676  78.932   5.445  0.00  0.00    +0.000 C 
BRANCH  17  18
ATOM     18  O5* UNL     1     -38.430  78.484   5.316  0.00  0.00    +0.000 OA
ATOM     19  H5* UNL     1     -38.435  77.565   4.999  0.00  0.00    +0.000 HD
ENDBRANCH  17  18
ENDBRANCH  14  17
ENDBRANCH   3  11
BRANCH   7  23
ATOM     20  F   UNL     1     -47.067  84.175   6.349  0.00  0.00    +0.000 F 
ATOM     21  F   UNL     1     -45.390  83.826   7.685  0.00  0.00    +0.000 F 
ATOM     22  F   UNL     1     -45.388  85.578   6.402  0.00  0.00    +0.000 F 
ATOM     23  C   UNL     1     -45.715  84.262   6.436  0.00  0.00    +0.000 C 
ENDBRANCH   7  23
TORSDOF 5
ENDMDL
MODEL 5
REMARK VINA RESULT:      -5.2      0.903      1.913
REMARK  Name = 6256_Trifluridine.pdbqt.pdb
REMARK  5 active torsions:
REMARK  status: ('A' for Active; 'I' for Inactive)
REMARK    1  A    between atoms: N_3  and  C1*_11
REMARK    2  A    between atoms: C_7  and  C_23
REMARK    3  A    between atoms: C3*_12  and  O3*_15
REMARK    4  A    between atoms: C4*_14  and  C5*_17
REMARK    5  A    between atoms: C5*_17  and  O5*_18
REMARK                            x       y       z     vdW  Elec       q    Type
REMARK                         _______ _______ _______ _____ _____    ______ ____
ROOT
ATOM      1  O   UNL     1     -34.114  98.152  17.682  0.00  0.00    +0.000 OA
ATOM      2  O   UNL     1     -37.277  99.138  14.505  0.00  0.00    +0.000 OA
ATOM      3  N   UNL     1     -33.467  99.504  15.848  0.00  0.00    +0.000 N 
ATOM      4  N   UNL     1     -35.654  98.686  16.064  0.00  0.00    +0.000 N 
ATOM      5  C   UNL     1     -33.965 100.051  14.721  0.00  0.00    +0.000 A 
ATOM      6  C   UNL     1     -34.357  98.735  16.631  0.00  0.00    +0.000 A 
ATOM      7  C   UNL     1     -35.113 100.060  14.127  0.00  0.00    +0.000 A 
ATOM      8  C   UNL     1     -36.121  99.273  14.882  0.00  0.00    +0.000 A 
ATOM      9  H   UNL     1     -36.329  98.146  16.586  0.00  0.00    +0.000 HD
ENDROOT
BRANCH   3  11
ATOM     10  O4* UNL     1     -31.263 100.315  15.271  0.00  0.00    +0.000 OA
ATOM     11  C1* UNL     1     -32.155  99.711  16.163  0.00  0.00    +0.000 A 
ATOM     12  C3* UNL     1     -30.133  99.755  17.213  0.00  0.00    +0.000 A 
ATOM     13  C2* UNL     1     -31.475  99.357  17.345  0.00  0.00    +0.000 A 
ATOM     14  C4* UNL     1     -30.013 100.347  15.904  0.00  0.00    +0.000 A 
BRANCH  12  15
ATOM     15  O3* UNL     1     -29.079  99.102  17.788  0.00  0.00    +0.000 OA
ATOM     16  H3* UNL     1     -29.348  98.665  18.615  0.00  0.00    +0.000 HD
ENDBRANCH  12  15
BRANCH  14  17
ATOM     17  C5* UNL     1     -28.831 100.702  15.227  0.00  0.00    +0.000 C 
BRANCH  17  18
ATOM     18  O5* UNL     1     -27.713 101.040  14.590  0.00  0.00    +0.000 OA
ATOM     19  H5* UNL     1     -26.944 100.629  15.022  0.00  0.00    +0.000 HD
ENDBRANCH  17  18
ENDBRANCH  14  17
ENDBRANCH   3  11
BRANCH   7  23
ATOM     20  F   UNL     1     -36.081  99.808  11.999  0.00  0.00    +0.000 F 
ATOM     21  F   UNL     1     -36.452 101.663  13.066  0.00  0.00    +0.000 F 
ATOM     22  F   UNL     1     -34.486 101.289  12.225  0.00  0.00    +0.000 F 
ATOM     23  C   UNL     1     -35.521 100.690  12.865  0.00  0.00    +0.000 C 
ENDBRANCH   7  23
TORSDOF 5
ENDMDL
MODEL 6
REMARK VINA RESULT:      -4.9     21.593     22.654
REMARK  Name = 6256_Trifluridine.pdbqt.pdb
REMARK  5 active torsions:
REMARK  status: ('A' for Active; 'I' for Inactive)
REMARK    1  A    between atoms: N_3  and  C1*_11
REMARK    2  A    between atoms: C_7  and  C_23
REMARK    3  A    between atoms: C3*_12  and  O3*_15
REMARK    4  A    between atoms: C4*_14  and  C5*_17
REMARK    5  A    between atoms: C5*_17  and  O5*_18
REMARK                            x       y       z     vdW  Elec       q    Type
REMARK                         _______ _______ _______ _____ _____    ______ ____
ROOT
ATOM      1  O   UNL     1     -33.421  80.753   9.781  0.00  0.00    +0.000 OA
ATOM      2  O   UNL     1     -29.141  80.917   8.131  0.00  0.00    +0.000 OA
ATOM      3  N   UNL     1     -32.931  79.505   7.828  0.00  0.00    +0.000 N 
ATOM      4  N   UNL     1     -31.295  80.789   8.912  0.00  0.00    +0.000 N 
ATOM      5  C   UNL     1     -31.913  79.224   6.991  0.00  0.00    +0.000 A 
ATOM      6  C   UNL     1     -32.648  80.368   8.911  0.00  0.00    +0.000 A 
ATOM      7  C   UNL     1     -30.667  79.557   6.908  0.00  0.00    +0.000 A 
ATOM      8  C   UNL     1     -30.272  80.469   8.011  0.00  0.00    +0.000 A 
ATOM      9  H   UNL     1     -31.042  81.411   9.666  0.00  0.00    +0.000 HD
ENDROOT
BRANCH   3  11
ATOM     10  O4* UNL     1     -35.027  79.474   6.621  0.00  0.00    +0.000 OA
ATOM     11  C1* UNL     1     -34.159  78.958   7.589  0.00  0.00    +0.000 A 
ATOM     12  C3* UNL     1     -36.040  77.674   7.667  0.00  0.00    +0.000 A 
ATOM     13  C2* UNL     1     -34.771  77.867   8.239  0.00  0.00    +0.000 A 
ATOM     14  C4* UNL     1     -36.190  78.694   6.660  0.00  0.00    +0.000 A 
BRANCH  12  15
ATOM     15  O3* UNL     1     -37.124  77.195   8.348  0.00  0.00    +0.000 OA
ATOM     16  H3* UNL     1     -37.206  77.623   9.218  0.00  0.00    +0.000 HD
ENDBRANCH  12  15
BRANCH  14  17
ATOM     17  C5* UNL     1     -37.361  79.048   5.963  0.00  0.00    +0.000 C 
BRANCH  17  18
ATOM     18  O5* UNL     1     -38.468  79.385   5.307  0.00  0.00    +0.000 OA
ATOM     19  H5* UNL     1     -38.676  80.323   5.460  0.00  0.00    +0.000 HD
ENDBRANCH  17  18
ENDBRANCH  14  17
ENDBRANCH   3  11
BRANCH   7  23
ATOM     20  F   UNL     1     -29.231  80.254   5.182  0.00  0.00    +0.000 F 
ATOM     21  F   UNL     1     -28.541  78.664   6.491  0.00  0.00    +0.000 F 
ATOM     22  F   UNL     1     -30.100  78.251   5.038  0.00  0.00    +0.000 F 
ATOM     23  C   UNL     1     -29.655  79.190   5.909  0.00  0.00    +0.000 C 
ENDBRANCH   7  23
TORSDOF 5
ENDMDL
MODEL 7
REMARK VINA RESULT:      -4.9      3.050      4.493
REMARK  Name = 6256_Trifluridine.pdbqt.pdb
REMARK  5 active torsions:
REMARK  status: ('A' for Active; 'I' for Inactive)
REMARK    1  A    between atoms: N_3  and  C1*_11
REMARK    2  A    between atoms: C_7  and  C_23
REMARK    3  A    between atoms: C3*_12  and  O3*_15
REMARK    4  A    between atoms: C4*_14  and  C5*_17
REMARK    5  A    between atoms: C5*_17  and  O5*_18
REMARK                            x       y       z     vdW  Elec       q    Type
REMARK                         _______ _______ _______ _____ _____    ______ ____
ROOT
ATOM      1  O   UNL     1     -37.878  98.616  14.032  0.00  0.00    +0.000 OA
ATOM      2  O   UNL     1     -40.412 102.324  13.083  0.00  0.00    +0.000 OA
ATOM      3  N   UNL     1     -36.849 100.742  14.204  0.00  0.00    +0.000 N 
ATOM      4  N   UNL     1     -39.096 100.509  13.577  0.00  0.00    +0.000 N 
ATOM      5  C   UNL     1     -37.118 102.054  14.049  0.00  0.00    +0.000 A 
ATOM      6  C   UNL     1     -37.907  99.839  13.955  0.00  0.00    +0.000 A 
ATOM      7  C   UNL     1     -38.153 102.750  13.710  0.00  0.00    +0.000 A 
ATOM      8  C   UNL     1     -39.324 101.882  13.427  0.00  0.00    +0.000 A 
ATOM      9  H   UNL     1     -39.884  99.906  13.386  0.00  0.00    +0.000 HD
ENDROOT
BRANCH   3  11
ATOM     10  O4* UNL     1     -34.445 100.917  14.003  0.00  0.00    +0.000 OA
ATOM     11  C1* UNL     1     -35.592 100.362  14.579  0.00  0.00    +0.000 A 
ATOM     12  C3* UNL     1     -33.817  99.328  15.566  0.00  0.00    +0.000 A 
ATOM     13  C2* UNL     1     -35.221  99.386  15.525  0.00  0.00    +0.000 A 
ATOM     14  C4* UNL     1     -33.345 100.288  14.600  0.00  0.00    +0.000 A 
BRANCH  12  15
ATOM     15  O3* UNL     1     -33.104  98.194  15.837  0.00  0.00    +0.000 OA
ATOM     16  H3* UNL     1     -32.997  97.649  15.038  0.00  0.00    +0.000 HD
ENDBRANCH  12  15
BRANCH  14  17
ATOM     17  C5* UNL     1     -32.029 100.450  14.123  0.00  0.00    +0.000 C 
BRANCH  17  18
ATOM     18  O5* UNL     1     -30.789 100.602  13.668  0.00  0.00    +0.000 OA
ATOM     19  H5* UNL     1     -30.505  99.802  13.194  0.00  0.00    +0.000 HD
ENDBRANCH  17  18
ENDBRANCH  14  17
ENDBRANCH   3  11
BRANCH   7  23
ATOM     20  F   UNL     1     -37.170 104.881  13.854  0.00  0.00    +0.000 F 
ATOM     21  F   UNL     1     -38.619 104.541  12.273  0.00  0.00    +0.000 F 
ATOM     22  F   UNL     1     -39.299 104.707  14.329  0.00  0.00    +0.000 F 
ATOM     23  C   UNL     1     -38.306 104.203  13.555  0.00  0.00    +0.000 C 
ENDBRANCH   7  23
TORSDOF 5
ENDMDL
MODEL 8
REMARK VINA RESULT:      -4.9     27.485     29.388
REMARK  Name = 6256_Trifluridine.pdbqt.pdb
REMARK  5 active torsions:
REMARK  status: ('A' for Active; 'I' for Inactive)
REMARK    1  A    between atoms: N_3  and  C1*_11
REMARK    2  A    between atoms: C_7  and  C_23
REMARK    3  A    between atoms: C3*_12  and  O3*_15
REMARK    4  A    between atoms: C4*_14  and  C5*_17
REMARK    5  A    between atoms: C5*_17  and  O5*_18
REMARK                            x       y       z     vdW  Elec       q    Type
REMARK                         _______ _______ _______ _____ _____    ______ ____
ROOT
ATOM      1  O   UNL     1     -31.870  95.477 -13.838  0.00  0.00    +0.000 OA
ATOM      2  O   UNL     1     -27.454  96.523 -14.526  0.00  0.00    +0.000 OA
ATOM      3  N   UNL     1     -31.224  97.749 -13.667  0.00  0.00    +0.000 N 
ATOM      4  N   UNL     1     -29.676  96.064 -14.178  0.00  0.00    +0.000 N 
ATOM      5  C   UNL     1     -30.139  98.541 -13.768  0.00  0.00    +0.000 A 
ATOM      6  C   UNL     1     -31.028  96.366 -13.883  0.00  0.00    +0.000 A 
ATOM      7  C   UNL     1     -28.884  98.362 -14.025  0.00  0.00    +0.000 A 
ATOM      8  C   UNL     1     -28.579  96.929 -14.268  0.00  0.00    +0.000 A 
ATOM      9  H   UNL     1     -29.482  95.086 -14.340  0.00  0.00    +0.000 HD
ENDROOT
BRANCH   3  11
ATOM     10  O4* UNL     1     -32.865  98.466 -12.041  0.00  0.00    +0.000 OA
ATOM     11  C1* UNL     1     -32.431  98.311 -13.362  0.00  0.00    +0.000 A 
ATOM     12  C3* UNL     1     -34.500  99.259 -13.476  0.00  0.00    +0.000 A 
ATOM     13  C2* UNL     1     -33.423  98.782 -14.244  0.00  0.00    +0.000 A 
ATOM     14  C4* UNL     1     -34.138  99.048 -12.097  0.00  0.00    +0.000 A 
BRANCH  12  15
ATOM     15  O3* UNL     1     -35.806  99.215 -13.875  0.00  0.00    +0.000 OA
ATOM     16  H3* UNL     1     -36.404  99.197 -13.108  0.00  0.00    +0.000 HD
ENDBRANCH  12  15
BRANCH  14  17
ATOM     17  C5* UNL     1     -34.966  99.165 -10.964  0.00  0.00    +0.000 C 
BRANCH  17  18
ATOM     18  O5* UNL     1     -35.746  99.274  -9.892  0.00  0.00    +0.000 OA
ATOM     19  H5* UNL     1     -35.263  98.993  -9.096  0.00  0.00    +0.000 HD
ENDBRANCH  17  18
ENDBRANCH  14  17
ENDBRANCH   3  11
BRANCH   7  23
ATOM     20  F   UNL     1     -26.849  99.114 -13.120  0.00  0.00    +0.000 F 
ATOM     21  F   UNL     1     -27.120  99.271 -15.269  0.00  0.00    +0.000 F 
ATOM     22  F   UNL     1     -28.209 100.611 -13.954  0.00  0.00    +0.000 F 
ATOM     23  C   UNL     1     -27.782  99.331 -14.081  0.00  0.00    +0.000 C 
ENDBRANCH   7  23
TORSDOF 5
ENDMDL
MODEL 9
REMARK VINA RESULT:      -4.7     27.979     29.859
REMARK  Name = 6256_Trifluridine.pdbqt.pdb
REMARK  5 active torsions:
REMARK  status: ('A' for Active; 'I' for Inactive)
REMARK    1  A    between atoms: N_3  and  C1*_11
REMARK    2  A    between atoms: C_7  and  C_23
REMARK    3  A    between atoms: C3*_12  and  O3*_15
REMARK    4  A    between atoms: C4*_14  and  C5*_17
REMARK    5  A    between atoms: C5*_17  and  O5*_18
REMARK                            x       y       z     vdW  Elec       q    Type
REMARK                         _______ _______ _______ _____ _____    ______ ____
ROOT
ATOM      1  O   UNL     1     -29.770 100.095 -14.364  0.00  0.00    +0.000 OA
ATOM      2  O   UNL     1     -27.466  96.275 -15.447  0.00  0.00    +0.000 OA
ATOM      3  N   UNL     1     -30.875  98.016 -14.105  0.00  0.00    +0.000 N 
ATOM      4  N   UNL     1     -28.667  98.148 -14.883  0.00  0.00    +0.000 N 
ATOM      5  C   UNL     1     -30.673  96.693 -14.266  0.00  0.00    +0.000 A 
ATOM      6  C   UNL     1     -29.799  98.871 -14.432  0.00  0.00    +0.000 A 
ATOM      7  C   UNL     1     -29.694  95.951 -14.667  0.00  0.00    +0.000 A 
ATOM      8  C   UNL     1     -28.508  96.766 -15.035  0.00  0.00    +0.000 A 
ATOM      9  H   UNL     1     -27.869  98.715 -15.131  0.00  0.00    +0.000 HD
ENDROOT
BRANCH   3  11
ATOM     10  O4* UNL     1     -32.411  98.455 -12.289  0.00  0.00    +0.000 OA
ATOM     11  C1* UNL     1     -32.086  98.452 -13.650  0.00  0.00    +0.000 A 
ATOM     12  C3* UNL     1     -34.219  99.243 -13.503  0.00  0.00    +0.000 A 
ATOM     13  C2* UNL     1     -33.184  98.921 -14.399  0.00  0.00    +0.000 A 
ATOM     14  C4* UNL     1     -33.722  98.938 -12.185  0.00  0.00    +0.000 A 
BRANCH  12  15
ATOM     15  O3* UNL     1     -35.549  99.133 -13.797  0.00  0.00    +0.000 OA
ATOM     16  H3* UNL     1     -35.867  98.226 -13.640  0.00  0.00    +0.000 HD
ENDBRANCH  12  15
BRANCH  14  17
ATOM     17  C5* UNL     1     -34.453  98.890 -10.982  0.00  0.00    +0.000 C 
BRANCH  17  18
ATOM     18  O5* UNL     1     -35.146  98.841  -9.848  0.00  0.00    +0.000 OA
ATOM     19  H5* UNL     1     -35.266  99.738  -9.489  0.00  0.00    +0.000 HD
ENDBRANCH  17  18
ENDBRANCH  14  17
ENDBRANCH   3  11
BRANCH   7  23
ATOM     20  F   UNL     1     -30.763  93.867 -14.459  0.00  0.00    +0.000 F 
ATOM     21  F   UNL     1     -29.380  94.133 -16.112  0.00  0.00    +0.000 F 
ATOM     22  F   UNL     1     -28.608  93.948 -14.091  0.00  0.00    +0.000 F 
ATOM     23  C   UNL     1     -29.614  94.492 -14.819  0.00  0.00    +0.000 C 
ENDBRANCH   7  23
TORSDOF 5
ENDMDL
