MODEL 1
REMARK VINA RESULT:      -5.2      0.000      0.000
REMARK  Name = 6323266_Tipiracil.pdbqt.pdb
REMARK  2 active torsions:
REMARK  status: ('A' for Active; 'I' for Inactive)
REMARK    1  A    between atoms: C_6  and  C_12
REMARK    2  A    between atoms: C_12  and  N_13
REMARK                            x       y       z     vdW  Elec       q    Type
REMARK                         _______ _______ _______ _____ _____    ______ ____
ROOT
ATOM      1 CL   UNL     1     -36.139  98.239  16.175  0.00  0.00    +0.000 Cl
ATOM      2  O   UNL     1     -37.785  98.969  13.771  0.00  0.00    +0.000 OA
ATOM      3  O   UNL     1     -34.742 101.610  11.703  0.00  0.00    +0.000 OA
ATOM      4  N   UNL     1     -34.182 100.650  13.682  0.00  0.00    +0.000 N 
ATOM      5  N   UNL     1     -36.255 100.278  12.740  0.00  0.00    +0.000 N 
ATOM      6  C   UNL     1     -34.484  99.853  14.755  0.00  0.00    +0.000 A 
ATOM      7  C   UNL     1     -35.675  99.249  14.861  0.00  0.00    +0.000 A 
ATOM      8  C   UNL     1     -36.665  99.470  13.768  0.00  0.00    +0.000 A 
ATOM      9  C   UNL     1     -35.040 100.891  12.649  0.00  0.00    +0.000 A 
ATOM     10  H   UNL     1     -33.271 101.101  13.627  0.00  0.00    +0.000 HD
ATOM     11  H   UNL     1     -36.911 100.441  11.990  0.00  0.00    +0.000 HD
ENDROOT
BRANCH   6  12
ATOM     12  C   UNL     1     -33.456  99.722  15.729  0.00  0.00    +0.000 C 
BRANCH  12  13
ATOM     13  N   UNL     1     -32.495  99.531  16.797  0.00  0.00    +0.000 N 
ATOM     14  N   UNL     1     -32.804  97.099  17.093  0.00  0.00    +0.000 NA
ATOM     15  C   UNL     1     -31.169 100.128  16.636  0.00  0.00    +0.000 C 
ATOM     16  C   UNL     1     -29.868  99.376  16.891  0.00  0.00    +0.000 C 
ATOM     17  C   UNL     1     -30.724  98.144  17.187  0.00  0.00    +0.000 C 
ATOM     18  C   UNL     1     -32.163  98.207  17.051  0.00  0.00    +0.000 C 
ATOM     19  H   UNL     1     -32.167  96.317  17.283  0.00  0.00    +0.000 HD
ENDBRANCH  12  13
ENDBRANCH   6  12
TORSDOF 2
ENDMDL
MODEL 2
REMARK VINA RESULT:      -5.2     22.469     23.412
REMARK  Name = 6323266_Tipiracil.pdbqt.pdb
REMARK  2 active torsions:
REMARK  status: ('A' for Active; 'I' for Inactive)
REMARK    1  A    between atoms: C_6  and  C_12
REMARK    2  A    between atoms: C_12  and  N_13
REMARK                            x       y       z     vdW  Elec       q    Type
REMARK                         _______ _______ _______ _____ _____    ______ ____
ROOT
ATOM      1 CL   UNL     1     -40.035  87.480  -4.871  0.00  0.00    +0.000 Cl
ATOM      2  O   UNL     1     -41.980  85.923  -3.193  0.00  0.00    +0.000 OA
ATOM      3  O   UNL     1     -44.976  89.240  -2.460  0.00  0.00    +0.000 OA
ATOM      4  N   UNL     1     -43.140  89.691  -3.714  0.00  0.00    +0.000 N 
ATOM      5  N   UNL     1     -43.476  87.583  -2.841  0.00  0.00    +0.000 N 
ATOM      6  C   UNL     1     -41.963  89.302  -4.301  0.00  0.00    +0.000 A 
ATOM      7  C   UNL     1     -41.503  88.050  -4.175  0.00  0.00    +0.000 A 
ATOM      8  C   UNL     1     -42.314  87.089  -3.376  0.00  0.00    +0.000 A 
ATOM      9  C   UNL     1     -43.930  88.861  -2.974  0.00  0.00    +0.000 A 
ATOM     10  H   UNL     1     -43.465  90.649  -3.822  0.00  0.00    +0.000 HD
ATOM     11  H   UNL     1     -44.041  86.948  -2.295  0.00  0.00    +0.000 HD
ENDROOT
BRANCH   6  12
ATOM     12  C   UNL     1     -41.283  90.311  -5.036  0.00  0.00    +0.000 C 
BRANCH  12  13
ATOM     13  N   UNL     1     -40.525  91.245  -5.845  0.00  0.00    +0.000 N 
ATOM     14  N   UNL     1     -41.039  93.291  -4.561  0.00  0.00    +0.000 NA
ATOM     15  C   UNL     1     -39.153  90.881  -6.201  0.00  0.00    +0.000 C 
ATOM     16  C   UNL     1     -37.965  91.824  -6.058  0.00  0.00    +0.000 C 
ATOM     17  C   UNL     1     -38.938  92.842  -5.460  0.00  0.00    +0.000 C 
ATOM     18  C   UNL     1     -40.327  92.491  -5.263  0.00  0.00    +0.000 C 
ATOM     19  H   UNL     1     -40.496  94.118  -4.288  0.00  0.00    +0.000 HD
ENDBRANCH  12  13
ENDBRANCH   6  12
TORSDOF 2
ENDMDL
MODEL 3
REMARK VINA RESULT:      -5.1     13.692     14.798
REMARK  Name = 6323266_Tipiracil.pdbqt.pdb
REMARK  2 active torsions:
REMARK  status: ('A' for Active; 'I' for Inactive)
REMARK    1  A    between atoms: C_6  and  C_12
REMARK    2  A    between atoms: C_12  and  N_13
REMARK                            x       y       z     vdW  Elec       q    Type
REMARK                         _______ _______ _______ _____ _____    ______ ____
ROOT
ATOM      1 CL   UNL     1     -21.030 101.730   3.737  0.00  0.00    +0.000 Cl
ATOM      2  O   UNL     1     -23.179 101.497   1.651  0.00  0.00    +0.000 OA
ATOM      3  O   UNL     1     -26.499  99.984   4.334  0.00  0.00    +0.000 OA
ATOM      4  N   UNL     1     -24.468 100.409   5.253  0.00  0.00    +0.000 N 
ATOM      5  N   UNL     1     -24.834 100.752   3.001  0.00  0.00    +0.000 N 
ATOM      6  C   UNL     1     -23.165 100.822   5.143  0.00  0.00    +0.000 A 
ATOM      7  C   UNL     1     -22.654 101.206   3.965  0.00  0.00    +0.000 A 
ATOM      8  C   UNL     1     -23.550 101.173   2.775  0.00  0.00    +0.000 A 
ATOM      9  C   UNL     1     -25.340 100.359   4.204  0.00  0.00    +0.000 A 
ATOM     10  H   UNL     1     -24.831 100.119   6.158  0.00  0.00    +0.000 HD
ATOM     11  H   UNL     1     -25.458 100.722   2.207  0.00  0.00    +0.000 HD
ENDROOT
BRANCH   6  12
ATOM     12  C   UNL     1     -22.415 100.807   6.350  0.00  0.00    +0.000 C 
BRANCH  12  13
ATOM     13  N   UNL     1     -21.545 100.819   7.510  0.00  0.00    +0.000 N 
ATOM     14  N   UNL     1     -23.231 101.490   9.184  0.00  0.00    +0.000 NA
ATOM     15  C   UNL     1     -20.668  99.665   7.715  0.00  0.00    +0.000 C 
ATOM     16  C   UNL     1     -20.523  98.943   9.050  0.00  0.00    +0.000 C 
ATOM     17  C   UNL     1     -21.580  99.901   9.600  0.00  0.00    +0.000 C 
ATOM     18  C   UNL     1     -22.205 100.874   8.731  0.00  0.00    +0.000 C 
ATOM     19  H   UNL     1     -23.417 101.222  10.157  0.00  0.00    +0.000 HD
ENDBRANCH  12  13
ENDBRANCH   6  12
TORSDOF 2
ENDMDL
MODEL 4
REMARK VINA RESULT:      -5.0      2.789      5.685
REMARK  Name = 6323266_Tipiracil.pdbqt.pdb
REMARK  2 active torsions:
REMARK  status: ('A' for Active; 'I' for Inactive)
REMARK    1  A    between atoms: C_6  and  C_12
REMARK    2  A    between atoms: C_12  and  N_13
REMARK                            x       y       z     vdW  Elec       q    Type
REMARK                         _______ _______ _______ _____ _____    ______ ____
ROOT
ATOM      1 CL   UNL     1     -36.273  98.339  17.936  0.00  0.00    +0.000 Cl
ATOM      2  O   UNL     1     -33.873  96.763  18.821  0.00  0.00    +0.000 OA
ATOM      3  O   UNL     1     -31.124  97.817  15.380  0.00  0.00    +0.000 OA
ATOM      4  N   UNL     1     -33.221  98.684  15.401  0.00  0.00    +0.000 N 
ATOM      5  N   UNL     1     -32.504  97.303  17.104  0.00  0.00    +0.000 N 
ATOM      6  C   UNL     1     -34.453  98.830  15.985  0.00  0.00    +0.000 A 
ATOM      7  C   UNL     1     -34.752  98.218  17.139  0.00  0.00    +0.000 A 
ATOM      8  C   UNL     1     -33.700  97.372  17.770  0.00  0.00    +0.000 A 
ATOM      9  C   UNL     1     -32.214  97.929  15.927  0.00  0.00    +0.000 A 
ATOM     10  H   UNL     1     -33.020  99.157  14.522  0.00  0.00    +0.000 HD
ATOM     11  H   UNL     1     -31.777  96.735  17.514  0.00  0.00    +0.000 HD
ENDROOT
BRANCH   6  12
ATOM     12  C   UNL     1     -35.368  99.662  15.285  0.00  0.00    +0.000 C 
BRANCH  12  13
ATOM     13  N   UNL     1     -36.386 100.486  14.665  0.00  0.00    +0.000 N 
ATOM     14  N   UNL     1     -35.215 100.916  12.534  0.00  0.00    +0.000 NA
ATOM     15  C   UNL     1     -37.768 100.008  14.704  0.00  0.00    +0.000 C 
ATOM     16  C   UNL     1     -38.687  99.980  13.489  0.00  0.00    +0.000 C 
ATOM     17  C   UNL     1     -37.503 100.501  12.673  0.00  0.00    +0.000 C 
ATOM     18  C   UNL     1     -36.215 100.696  13.302  0.00  0.00    +0.000 C 
ATOM     19  H   UNL     1     -35.516 100.977  11.554  0.00  0.00    +0.000 HD
ENDBRANCH  12  13
ENDBRANCH   6  12
TORSDOF 2
ENDMDL
MODEL 5
REMARK VINA RESULT:      -4.8     19.875     21.452
REMARK  Name = 6323266_Tipiracil.pdbqt.pdb
REMARK  2 active torsions:
REMARK  status: ('A' for Active; 'I' for Inactive)
REMARK    1  A    between atoms: C_6  and  C_12
REMARK    2  A    between atoms: C_12  and  N_13
REMARK                            x       y       z     vdW  Elec       q    Type
REMARK                         _______ _______ _______ _____ _____    ______ ____
ROOT
ATOM      1 CL   UNL     1     -23.826 105.722  -5.313  0.00  0.00    +0.000 Cl
ATOM      2  O   UNL     1     -25.050 104.234  -7.618  0.00  0.00    +0.000 OA
ATOM      3  O   UNL     1     -26.232 100.475  -5.384  0.00  0.00    +0.000 OA
ATOM      4  N   UNL     1     -25.202 102.142  -4.239  0.00  0.00    +0.000 N 
ATOM      5  N   UNL     1     -25.646 102.365  -6.491  0.00  0.00    +0.000 N 
ATOM      6  C   UNL     1     -24.627 103.386  -4.190  0.00  0.00    +0.000 A 
ATOM      7  C   UNL     1     -24.538 104.155  -5.283  0.00  0.00    +0.000 A 
ATOM      8  C   UNL     1     -25.087 103.614  -6.559  0.00  0.00    +0.000 A 
ATOM      9  C   UNL     1     -25.726 101.591  -5.371  0.00  0.00    +0.000 A 
ATOM     10  H   UNL     1     -25.254 101.576  -3.394  0.00  0.00    +0.000 HD
ATOM     11  H   UNL     1     -26.024 101.980  -7.345  0.00  0.00    +0.000 HD
ENDROOT
BRANCH   6  12
ATOM     12  C   UNL     1     -24.141 103.786  -2.915  0.00  0.00    +0.000 C 
BRANCH  12  13
ATOM     13  N   UNL     1     -23.768 104.200  -1.577  0.00  0.00    +0.000 N 
ATOM     14  N   UNL     1     -25.695 105.681  -1.138  0.00  0.00    +0.000 NA
ATOM     15  C   UNL     1     -23.360 103.162  -0.631  0.00  0.00    +0.000 C 
ATOM     16  C   UNL     1     -23.893 103.061   0.794  0.00  0.00    +0.000 C 
ATOM     17  C   UNL     1     -24.783 104.262   0.468  0.00  0.00    +0.000 C 
ATOM     18  C   UNL     1     -24.777 104.832  -0.861  0.00  0.00    +0.000 C 
ATOM     19  H   UNL     1     -26.277 105.869  -0.314  0.00  0.00    +0.000 HD
ENDBRANCH  12  13
ENDBRANCH   6  12
TORSDOF 2
ENDMDL
MODEL 6
REMARK VINA RESULT:      -4.7      1.675      2.127
REMARK  Name = 6323266_Tipiracil.pdbqt.pdb
REMARK  2 active torsions:
REMARK  status: ('A' for Active; 'I' for Inactive)
REMARK    1  A    between atoms: C_6  and  C_12
REMARK    2  A    between atoms: C_12  and  N_13
REMARK                            x       y       z     vdW  Elec       q    Type
REMARK                         _______ _______ _______ _____ _____    ______ ____
ROOT
ATOM      1 CL   UNL     1     -35.044  98.237  17.492  0.00  0.00    +0.000 Cl
ATOM      2  O   UNL     1     -37.635  99.387  16.497  0.00  0.00    +0.000 OA
ATOM      3  O   UNL     1     -36.106 101.093  12.589  0.00  0.00    +0.000 OA
ATOM      4  N   UNL     1     -34.644 100.019  13.952  0.00  0.00    +0.000 N 
ATOM      5  N   UNL     1     -36.865 100.227  14.543  0.00  0.00    +0.000 N 
ATOM      6  C   UNL     1     -34.361  99.335  15.107  0.00  0.00    +0.000 A 
ATOM      7  C   UNL     1     -35.312  99.080  16.015  0.00  0.00    +0.000 A 
ATOM      8  C   UNL     1     -36.693  99.562  15.729  0.00  0.00    +0.000 A 
ATOM      9  C   UNL     1     -35.885 100.483  13.629  0.00  0.00    +0.000 A 
ATOM     10  H   UNL     1     -33.903 100.203  13.280  0.00  0.00    +0.000 HD
ATOM     11  H   UNL     1     -37.793 100.562  14.329  0.00  0.00    +0.000 HD
ENDROOT
BRANCH   6  12
ATOM     12  C   UNL     1     -33.008  98.930  15.263  0.00  0.00    +0.000 C 
BRANCH  12  13
ATOM     13  N   UNL     1     -31.595  98.641  15.407  0.00  0.00    +0.000 N 
ATOM     14  N   UNL     1     -30.738 100.409  13.911  0.00  0.00    +0.000 NA
ATOM     15  C   UNL     1     -31.073  98.454  16.761  0.00  0.00    +0.000 C 
ATOM     16  C   UNL     1     -29.808  99.129  17.279  0.00  0.00    +0.000 C 
ATOM     17  C   UNL     1     -29.717  99.833  15.924  0.00  0.00    +0.000 C 
ATOM     18  C   UNL     1     -30.746  99.631  14.928  0.00  0.00    +0.000 C 
ATOM     19  H   UNL     1     -29.930 101.041  13.943  0.00  0.00    +0.000 HD
ENDBRANCH  12  13
ENDBRANCH   6  12
TORSDOF 2
ENDMDL
MODEL 7
REMARK VINA RESULT:      -4.5     15.340     16.355
REMARK  Name = 6323266_Tipiracil.pdbqt.pdb
REMARK  2 active torsions:
REMARK  status: ('A' for Active; 'I' for Inactive)
REMARK    1  A    between atoms: C_6  and  C_12
REMARK    2  A    between atoms: C_12  and  N_13
REMARK                            x       y       z     vdW  Elec       q    Type
REMARK                         _______ _______ _______ _____ _____    ______ ____
ROOT
ATOM      1 CL   UNL     1     -20.971 102.370   2.902  0.00  0.00    +0.000 Cl
ATOM      2  O   UNL     1     -23.776 103.308   2.373  0.00  0.00    +0.000 OA
ATOM      3  O   UNL     1     -25.970  99.952   4.478  0.00  0.00    +0.000 OA
ATOM      4  N   UNL     1     -23.701  99.921   4.457  0.00  0.00    +0.000 N 
ATOM      5  N   UNL     1     -24.863 101.633   3.435  0.00  0.00    +0.000 N 
ATOM      6  C   UNL     1     -22.498 100.473   4.099  0.00  0.00    +0.000 A 
ATOM      7  C   UNL     1     -22.436 101.613   3.398  0.00  0.00    +0.000 A 
ATOM      8  C   UNL     1     -23.721 102.267   3.020  0.00  0.00    +0.000 A 
ATOM      9  C   UNL     1     -24.911 100.470   4.145  0.00  0.00    +0.000 A 
ATOM     10  H   UNL     1     -23.721  99.053   4.986  0.00  0.00    +0.000 HD
ATOM     11  H   UNL     1     -25.745 102.059   3.189  0.00  0.00    +0.000 HD
ENDROOT
BRANCH   6  12
ATOM     12  C   UNL     1     -21.346  99.754   4.519  0.00  0.00    +0.000 C 
BRANCH  12  13
ATOM     13  N   UNL     1     -20.137  99.014   4.823  0.00  0.00    +0.000 N 
ATOM     14  N   UNL     1     -20.799  98.200   7.058  0.00  0.00    +0.000 NA
ATOM     15  C   UNL     1     -19.613  98.113   3.796  0.00  0.00    +0.000 C 
ATOM     16  C   UNL     1     -19.184  96.677   4.073  0.00  0.00    +0.000 C 
ATOM     17  C   UNL     1     -19.636  96.897   5.517  0.00  0.00    +0.000 C 
ATOM     18  C   UNL     1     -20.241  98.152   5.908  0.00  0.00    +0.000 C 
ATOM     19  H   UNL     1     -20.670  97.315   7.563  0.00  0.00    +0.000 HD
ENDBRANCH  12  13
ENDBRANCH   6  12
TORSDOF 2
ENDMDL
MODEL 8
REMARK VINA RESULT:      -4.2     11.709     13.070
REMARK  Name = 6323266_Tipiracil.pdbqt.pdb
REMARK  2 active torsions:
REMARK  status: ('A' for Active; 'I' for Inactive)
REMARK    1  A    between atoms: C_6  and  C_12
REMARK    2  A    between atoms: C_12  and  N_13
REMARK                            x       y       z     vdW  Elec       q    Type
REMARK                         _______ _______ _______ _____ _____    ______ ____
ROOT
ATOM      1 CL   UNL     1     -37.895 106.749   5.431  0.00  0.00    +0.000 Cl
ATOM      2  O   UNL     1     -37.106 108.433   7.791  0.00  0.00    +0.000 OA
ATOM      3  O   UNL     1     -32.646 107.656   7.656  0.00  0.00    +0.000 OA
ATOM      4  N   UNL     1     -33.969 106.667   6.100  0.00  0.00    +0.000 N 
ATOM      5  N   UNL     1     -34.879 108.047   7.709  0.00  0.00    +0.000 N 
ATOM      6  C   UNL     1     -35.203 106.434   5.547  0.00  0.00    +0.000 A 
ATOM      7  C   UNL     1     -36.309 106.992   6.056  0.00  0.00    +0.000 A 
ATOM      8  C   UNL     1     -36.157 107.879   7.245  0.00  0.00    +0.000 A 
ATOM      9  C   UNL     1     -33.761 107.469   7.184  0.00  0.00    +0.000 A 
ATOM     10  H   UNL     1     -33.145 106.228   5.696  0.00  0.00    +0.000 HD
ATOM     11  H   UNL     1     -34.753 108.644   8.514  0.00  0.00    +0.000 HD
ENDROOT
BRANCH   6  12
ATOM     12  C   UNL     1     -35.215 105.571   4.419  0.00  0.00    +0.000 C 
BRANCH  12  13
ATOM     13  N   UNL     1     -35.179 104.788   3.199  0.00  0.00    +0.000 N 
ATOM     14  N   UNL     1     -36.276 102.757   4.074  0.00  0.00    +0.000 NA
ATOM     15  C   UNL     1     -35.620 105.433   1.962  0.00  0.00    +0.000 C 
ATOM     16  C   UNL     1     -36.592 104.794   0.977  0.00  0.00    +0.000 C 
ATOM     17  C   UNL     1     -36.691 103.619   1.950  0.00  0.00    +0.000 C 
ATOM     18  C   UNL     1     -35.982 103.655   3.211  0.00  0.00    +0.000 C 
ATOM     19  H   UNL     1     -36.957 102.092   3.690  0.00  0.00    +0.000 HD
ENDBRANCH  12  13
ENDBRANCH   6  12
TORSDOF 2
ENDMDL
MODEL 9
REMARK VINA RESULT:      -4.0     10.419     12.267
REMARK  Name = 6323266_Tipiracil.pdbqt.pdb
REMARK  2 active torsions:
REMARK  status: ('A' for Active; 'I' for Inactive)
REMARK    1  A    between atoms: C_6  and  C_12
REMARK    2  A    between atoms: C_12  and  N_13
REMARK                            x       y       z     vdW  Elec       q    Type
REMARK                         _______ _______ _______ _____ _____    ______ ____
ROOT
ATOM      1 CL   UNL     1     -33.173  89.518  20.095  0.00  0.00    +0.000 Cl
ATOM      2  O   UNL     1     -31.528  92.002  19.704  0.00  0.00    +0.000 OA
ATOM      3  O   UNL     1     -29.285  90.694  15.993  0.00  0.00    +0.000 OA
ATOM      4  N   UNL     1     -30.786  89.264  16.916  0.00  0.00    +0.000 N 
ATOM      5  N   UNL     1     -30.420  91.344  17.845  0.00  0.00    +0.000 N 
ATOM      6  C   UNL     1     -31.716  88.957  17.876  0.00  0.00    +0.000 A 
ATOM      7  C   UNL     1     -32.025  89.825  18.849  0.00  0.00    +0.000 A 
ATOM      8  C   UNL     1     -31.324  91.140  18.854  0.00  0.00    +0.000 A 
ATOM      9  C   UNL     1     -30.112  90.449  16.863  0.00  0.00    +0.000 A 
ATOM     10  H   UNL     1     -30.567  88.586  16.190  0.00  0.00    +0.000 HD
ATOM     11  H   UNL     1     -29.934  92.229  17.830  0.00  0.00    +0.000 HD
ENDROOT
BRANCH   6  12
ATOM     12  C   UNL     1     -32.312  87.672  17.761  0.00  0.00    +0.000 C 
BRANCH  12  13
ATOM     13  N   UNL     1     -33.007  86.399  17.732  0.00  0.00    +0.000 N 
ATOM     14  N   UNL     1     -35.313  87.276  17.823  0.00  0.00    +0.000 NA
ATOM     15  C   UNL     1     -32.591  85.419  16.728  0.00  0.00    +0.000 C 
ATOM     16  C   UNL     1     -33.566  84.662  15.834  0.00  0.00    +0.000 C 
ATOM     17  C   UNL     1     -34.685  85.469  16.494  0.00  0.00    +0.000 C 
ATOM     18  C   UNL     1     -34.369  86.486  17.474  0.00  0.00    +0.000 C 
ATOM     19  H   UNL     1     -36.196  87.010  17.372  0.00  0.00    +0.000 HD
ENDBRANCH  12  13
ENDBRANCH   6  12
TORSDOF 2
ENDMDL
