MODEL 1
REMARK VINA RESULT:      -7.1      0.000      0.000
REMARK  Name = 6325056_Deoxyelephantopin.pdbqt.pdb
REMARK  3 active torsions:
REMARK  status: ('A' for Active; 'I' for Inactive)
REMARK    1  A    between atoms: C_6  and  O_20
REMARK    2  A    between atoms: O_20  and  C_22
REMARK    3  A    between atoms: C_22  and  C_23
REMARK                            x       y       z     vdW  Elec       q    Type
REMARK                         _______ _______ _______ _____ _____    ______ ____
ROOT
ATOM      1  O   UNL     1     -41.307 102.640  -0.713  0.00  0.00    +0.000 OA
ATOM      2  O   UNL     1     -36.838 104.521   3.648  0.00  0.00    +0.000 OA
ATOM      3  O   UNL     1     -43.039 101.255  -1.310  0.00  0.00    +0.000 OA
ATOM      4  O   UNL     1     -38.161 103.921   5.459  0.00  0.00    +0.000 OA
ATOM      5  C   UNL     1     -40.983 101.930   1.515  0.00  0.00    +0.000 C 
ATOM      6  C   UNL     1     -40.505 101.852   2.896  0.00  0.00    +0.000 C 
ATOM      7  C   UNL     1     -40.553 102.823   0.453  0.00  0.00    +0.000 C 
ATOM      8  C   UNL     1     -39.147 102.034   3.265  0.00  0.00    +0.000 C 
ATOM      9  C   UNL     1     -42.057 101.166   0.916  0.00  0.00    +0.000 C 
ATOM     10  C   UNL     1     -37.805 102.391   3.611  0.00  0.00    +0.000 C 
ATOM     11  C   UNL     1     -39.477 103.741   0.429  0.00  0.00    +0.000 C 
ATOM     12  C   UNL     1     -36.610 103.854   2.425  0.00  0.00    +0.000 C 
ATOM     13  C   UNL     1     -37.290 104.423   1.308  0.00  0.00    +0.000 C 
ATOM     14  C   UNL     1     -38.342 104.603   0.381  0.00  0.00    +0.000 C 
ATOM     15  C   UNL     1     -36.825 102.474   2.611  0.00  0.00    +0.000 C 
ATOM     16  C   UNL     1     -42.237 101.647  -0.480  0.00  0.00    +0.000 C 
ATOM     17  C   UNL     1     -37.625 103.658   4.396  0.00  0.00    +0.000 C 
ATOM     18  C   UNL     1     -42.728 100.152   1.475  0.00  0.00    +0.000 C 
ATOM     19  C   UNL     1     -38.149 105.503  -0.797  0.00  0.00    +0.000 C 
ENDROOT
BRANCH   6  20
ATOM     20  O   UNL     1     -41.344 101.332   3.897  0.00  0.00    +0.000 OA
BRANCH  20  22
ATOM     21  O   UNL     1     -41.451 103.000   5.479  0.00  0.00    +0.000 OA
ATOM     22  C   UNL     1     -42.003 102.272   4.658  0.00  0.00    +0.000 C 
BRANCH  22  23
ATOM     23  C   UNL     1     -43.473 102.269   4.322  0.00  0.00    +0.000 C 
ATOM     24  C   UNL     1     -44.117 103.294   3.404  0.00  0.00    +0.000 C 
ATOM     25  C   UNL     1     -44.298 101.313   4.768  0.00  0.00    +0.000 C 
ENDBRANCH  22  23
ENDBRANCH  20  22
ENDBRANCH   6  20
TORSDOF 3
ENDMDL
MODEL 2
REMARK VINA RESULT:      -5.7     15.696     18.969
REMARK  Name = 6325056_Deoxyelephantopin.pdbqt.pdb
REMARK  3 active torsions:
REMARK  status: ('A' for Active; 'I' for Inactive)
REMARK    1  A    between atoms: C_6  and  O_20
REMARK    2  A    between atoms: O_20  and  C_22
REMARK    3  A    between atoms: C_22  and  C_23
REMARK                            x       y       z     vdW  Elec       q    Type
REMARK                         _______ _______ _______ _____ _____    ______ ____
ROOT
ATOM      1  O   UNL     1     -22.319 103.502   8.653  0.00  0.00    +0.000 OA
ATOM      2  O   UNL     1     -24.084 102.512   2.453  0.00  0.00    +0.000 OA
ATOM      3  O   UNL     1     -21.717 102.663  10.705  0.00  0.00    +0.000 OA
ATOM      4  O   UNL     1     -22.874 100.538   2.287  0.00  0.00    +0.000 OA
ATOM      5  C   UNL     1     -22.438 101.491   7.423  0.00  0.00    +0.000 C 
ATOM      6  C   UNL     1     -22.559 100.540   6.317  0.00  0.00    +0.000 C 
ATOM      7  C   UNL     1     -22.586 102.935   7.400  0.00  0.00    +0.000 C 
ATOM      8  C   UNL     1     -23.511 100.671   5.273  0.00  0.00    +0.000 C 
ATOM      9  C   UNL     1     -22.069 101.198   8.792  0.00  0.00    +0.000 C 
ATOM     10  C   UNL     1     -24.367 100.932   4.156  0.00  0.00    +0.000 C 
ATOM     11  C   UNL     1     -23.021 103.780   6.353  0.00  0.00    +0.000 C 
ATOM     12  C   UNL     1     -24.891 103.000   3.504  0.00  0.00    +0.000 C 
ATOM     13  C   UNL     1     -24.292 104.044   4.271  0.00  0.00    +0.000 C 
ATOM     14  C   UNL     1     -23.539 104.616   5.321  0.00  0.00    +0.000 C 
ATOM     15  C   UNL     1     -25.369 101.909   4.257  0.00  0.00    +0.000 C 
ATOM     16  C   UNL     1     -21.995 102.487   9.531  0.00  0.00    +0.000 C 
ATOM     17  C   UNL     1     -23.695 101.240   2.849  0.00  0.00    +0.000 C 
ATOM     18  C   UNL     1     -21.897  99.987   9.335  0.00  0.00    +0.000 C 
ATOM     19  C   UNL     1     -23.513 106.101   5.492  0.00  0.00    +0.000 C 
ENDROOT
BRANCH   6  20
ATOM     20  O   UNL     1     -21.896  99.302   6.384  0.00  0.00    +0.000 OA
BRANCH  20  22
ATOM     21  O   UNL     1     -21.317  98.056   4.537  0.00  0.00    +0.000 OA
ATOM     22  C   UNL     1     -21.106  98.999   5.296  0.00  0.00    +0.000 C 
BRANCH  22  23
ATOM     23  C   UNL     1     -19.977  99.991   5.187  0.00  0.00    +0.000 C 
ATOM     24  C   UNL     1     -18.967 100.226   6.299  0.00  0.00    +0.000 C 
ATOM     25  C   UNL     1     -19.755 100.689   4.066  0.00  0.00    +0.000 C 
ENDBRANCH  22  23
ENDBRANCH  20  22
ENDBRANCH   6  20
TORSDOF 3
ENDMDL
MODEL 3
REMARK VINA RESULT:      -5.7      1.615      6.504
REMARK  Name = 6325056_Deoxyelephantopin.pdbqt.pdb
REMARK  3 active torsions:
REMARK  status: ('A' for Active; 'I' for Inactive)
REMARK    1  A    between atoms: C_6  and  O_20
REMARK    2  A    between atoms: O_20  and  C_22
REMARK    3  A    between atoms: C_22  and  C_23
REMARK                            x       y       z     vdW  Elec       q    Type
REMARK                         _______ _______ _______ _____ _____    ______ ____
ROOT
ATOM      1  O   UNL     1     -41.965 104.012   5.598  0.00  0.00    +0.000 OA
ATOM      2  O   UNL     1     -43.650 101.602  -0.223  0.00  0.00    +0.000 OA
ATOM      3  O   UNL     1     -40.370 104.380   7.209  0.00  0.00    +0.000 OA
ATOM      4  O   UNL     1     -41.540 101.951  -1.125  0.00  0.00    +0.000 OA
ATOM      5  C   UNL     1     -40.615 103.052   3.917  0.00  0.00    +0.000 C 
ATOM      6  C   UNL     1     -40.164 102.505   2.636  0.00  0.00    +0.000 C 
ATOM      7  C   UNL     1     -41.950 103.467   4.308  0.00  0.00    +0.000 C 
ATOM      8  C   UNL     1     -40.937 101.610   1.852  0.00  0.00    +0.000 C 
ATOM      9  C   UNL     1     -39.798 103.370   5.068  0.00  0.00    +0.000 C 
ATOM     10  C   UNL     1     -41.814 100.848   1.017  0.00  0.00    +0.000 C 
ATOM     11  C   UNL     1     -43.177 103.320   3.620  0.00  0.00    +0.000 C 
ATOM     12  C   UNL     1     -44.029 101.114   1.046  0.00  0.00    +0.000 C 
ATOM     13  C   UNL     1     -44.505 102.114   1.945  0.00  0.00    +0.000 C 
ATOM     14  C   UNL     1     -44.421 103.096   2.958  0.00  0.00    +0.000 C 
ATOM     15  C   UNL     1     -42.992 100.305   1.553  0.00  0.00    +0.000 C 
ATOM     16  C   UNL     1     -40.680 103.979   6.100  0.00  0.00    +0.000 C 
ATOM     17  C   UNL     1     -42.267 101.500  -0.258  0.00  0.00    +0.000 C 
ATOM     18  C   UNL     1     -38.497 103.101   5.228  0.00  0.00    +0.000 C 
ATOM     19  C   UNL     1     -45.671 103.699   3.514  0.00  0.00    +0.000 C 
ENDROOT
BRANCH   6  20
ATOM     20  O   UNL     1     -38.820 102.647   2.250  0.00  0.00    +0.000 OA
BRANCH  20  22
ATOM     21  O   UNL     1     -39.364 104.591   1.144  0.00  0.00    +0.000 OA
ATOM     22  C   UNL     1     -38.519 103.817   1.587  0.00  0.00    +0.000 C 
BRANCH  22  23
ATOM     23  C   UNL     1     -37.024 103.991   1.503  0.00  0.00    +0.000 C 
ATOM     24  C   UNL     1     -36.336 104.713   0.355  0.00  0.00    +0.000 C 
ATOM     25  C   UNL     1     -36.207 103.571   2.477  0.00  0.00    +0.000 C 
ENDBRANCH  22  23
ENDBRANCH  20  22
ENDBRANCH   6  20
TORSDOF 3
ENDMDL
MODEL 4
REMARK VINA RESULT:      -5.6     17.264     20.142
REMARK  Name = 6325056_Deoxyelephantopin.pdbqt.pdb
REMARK  3 active torsions:
REMARK  status: ('A' for Active; 'I' for Inactive)
REMARK    1  A    between atoms: C_6  and  O_20
REMARK    2  A    between atoms: O_20  and  C_22
REMARK    3  A    between atoms: C_22  and  C_23
REMARK                            x       y       z     vdW  Elec       q    Type
REMARK                         _______ _______ _______ _____ _____    ______ ____
ROOT
ATOM      1  O   UNL     1     -19.046  97.454   6.930  0.00  0.00    +0.000 OA
ATOM      2  O   UNL     1     -22.398 102.734   8.776  0.00  0.00    +0.000 OA
ATOM      3  O   UNL     1     -18.647  95.790   5.397  0.00  0.00    +0.000 OA
ATOM      4  O   UNL     1     -22.754 103.434   6.591  0.00  0.00    +0.000 OA
ATOM      5  C   UNL     1     -20.664  98.701   5.747  0.00  0.00    +0.000 C 
ATOM      6  C   UNL     1     -21.597  99.760   5.362  0.00  0.00    +0.000 C 
ATOM      7  C   UNL     1     -19.884  98.575   6.965  0.00  0.00    +0.000 C 
ATOM      8  C   UNL     1     -22.468 100.407   6.277  0.00  0.00    +0.000 C 
ATOM      9  C   UNL     1     -20.256  97.562   4.952  0.00  0.00    +0.000 C 
ATOM     10  C   UNL     1     -23.203 101.146   7.257  0.00  0.00    +0.000 C 
ATOM     11  C   UNL     1     -19.925  99.354   8.146  0.00  0.00    +0.000 C 
ATOM     12  C   UNL     1     -22.461 101.442   9.340  0.00  0.00    +0.000 C 
ATOM     13  C   UNL     1     -21.190 100.856   9.616  0.00  0.00    +0.000 C 
ATOM     14  C   UNL     1     -20.030 100.090   9.363  0.00  0.00    +0.000 C 
ATOM     15  C   UNL     1     -23.325 100.645   8.562  0.00  0.00    +0.000 C 
ATOM     16  C   UNL     1     -19.233  96.808   5.724  0.00  0.00    +0.000 C 
ATOM     17  C   UNL     1     -22.805 102.580   7.459  0.00  0.00    +0.000 C 
ATOM     18  C   UNL     1     -20.755  97.192   3.767  0.00  0.00    +0.000 C 
ATOM     19  C   UNL     1     -19.050  99.839  10.463  0.00  0.00    +0.000 C 
ENDROOT
BRANCH   6  20
ATOM     20  O   UNL     1     -21.852 100.006   4.001  0.00  0.00    +0.000 OA
BRANCH  20  22
ATOM     21  O   UNL     1     -20.535 101.874   3.730  0.00  0.00    +0.000 OA
ATOM     22  C   UNL     1     -21.608 101.295   3.581  0.00  0.00    +0.000 C 
BRANCH  22  23
ATOM     23  C   UNL     1     -22.837 101.862   2.916  0.00  0.00    +0.000 C 
ATOM     24  C   UNL     1     -23.740 101.045   2.006  0.00  0.00    +0.000 C 
ATOM     25  C   UNL     1     -23.248 103.116   3.141  0.00  0.00    +0.000 C 
ENDBRANCH  22  23
ENDBRANCH  20  22
ENDBRANCH   6  20
TORSDOF 3
ENDMDL
MODEL 5
REMARK VINA RESULT:      -5.6     22.195     24.121
REMARK  Name = 6325056_Deoxyelephantopin.pdbqt.pdb
REMARK  3 active torsions:
REMARK  status: ('A' for Active; 'I' for Inactive)
REMARK    1  A    between atoms: C_6  and  O_20
REMARK    2  A    between atoms: O_20  and  C_22
REMARK    3  A    between atoms: C_22  and  C_23
REMARK                            x       y       z     vdW  Elec       q    Type
REMARK                         _______ _______ _______ _____ _____    ______ ____
ROOT
ATOM      1  O   UNL     1     -24.582  90.960  -4.903  0.00  0.00    +0.000 OA
ATOM      2  O   UNL     1     -19.710  87.185  -7.037  0.00  0.00    +0.000 OA
ATOM      3  O   UNL     1     -26.832  91.382  -4.717  0.00  0.00    +0.000 OA
ATOM      4  O   UNL     1     -20.969  85.241  -6.872  0.00  0.00    +0.000 OA
ATOM      5  C   UNL     1     -24.661  88.848  -5.955  0.00  0.00    +0.000 C 
ATOM      6  C   UNL     1     -24.264  87.557  -6.519  0.00  0.00    +0.000 C 
ATOM      7  C   UNL     1     -23.820  89.905  -5.424  0.00  0.00    +0.000 C 
ATOM      8  C   UNL     1     -23.109  87.377  -7.323  0.00  0.00    +0.000 C 
ATOM      9  C   UNL     1     -26.009  89.330  -5.737  0.00  0.00    +0.000 C 
ATOM     10  C   UNL     1     -21.851  87.208  -7.983  0.00  0.00    +0.000 C 
ATOM     11  C   UNL     1     -22.411  90.031  -5.441  0.00  0.00    +0.000 C 
ATOM     12  C   UNL     1     -20.069  88.465  -7.511  0.00  0.00    +0.000 C 
ATOM     13  C   UNL     1     -20.272  89.437  -6.486  0.00  0.00    +0.000 C 
ATOM     14  C   UNL     1     -20.998  90.191  -5.535  0.00  0.00    +0.000 C 
ATOM     15  C   UNL     1     -21.135  88.333  -8.423  0.00  0.00    +0.000 C 
ATOM     16  C   UNL     1     -25.918  90.655  -5.066  0.00  0.00    +0.000 C 
ATOM     17  C   UNL     1     -20.819  86.383  -7.269  0.00  0.00    +0.000 C 
ATOM     18  C   UNL     1     -27.144  88.741  -6.131  0.00  0.00    +0.000 C 
ATOM     19  C   UNL     1     -20.335  91.328  -4.828  0.00  0.00    +0.000 C 
ENDROOT
BRANCH   6  20
ATOM     20  O   UNL     1     -25.164  86.478  -6.497  0.00  0.00    +0.000 OA
BRANCH  20  22
ATOM     21  O   UNL     1     -24.252  84.374  -6.300  0.00  0.00    +0.000 OA
ATOM     22  C   UNL     1     -24.744  85.376  -5.786  0.00  0.00    +0.000 C 
BRANCH  22  23
ATOM     23  C   UNL     1     -24.972  85.596  -4.312  0.00  0.00    +0.000 C 
ATOM     24  C   UNL     1     -26.320  85.987  -3.730  0.00  0.00    +0.000 C 
ATOM     25  C   UNL     1     -24.003  85.398  -3.409  0.00  0.00    +0.000 C 
ENDBRANCH  22  23
ENDBRANCH  20  22
ENDBRANCH   6  20
TORSDOF 3
ENDMDL
MODEL 6
REMARK VINA RESULT:      -5.4      2.362      3.633
REMARK  Name = 6325056_Deoxyelephantopin.pdbqt.pdb
REMARK  3 active torsions:
REMARK  status: ('A' for Active; 'I' for Inactive)
REMARK    1  A    between atoms: C_6  and  O_20
REMARK    2  A    between atoms: O_20  and  C_22
REMARK    3  A    between atoms: C_22  and  C_23
REMARK                            x       y       z     vdW  Elec       q    Type
REMARK                         _______ _______ _______ _____ _____    ______ ____
ROOT
ATOM      1  O   UNL     1     -44.883 100.843   1.367  0.00  0.00    +0.000 OA
ATOM      2  O   UNL     1     -39.295 103.779   3.004  0.00  0.00    +0.000 OA
ATOM      3  O   UNL     1     -46.871  99.871   1.983  0.00  0.00    +0.000 OA
ATOM      4  O   UNL     1     -40.210 104.753   4.902  0.00  0.00    +0.000 OA
ATOM      5  C   UNL     1     -44.128 101.573   3.480  0.00  0.00    +0.000 C 
ATOM      6  C   UNL     1     -43.347 102.229   4.530  0.00  0.00    +0.000 C 
ATOM      7  C   UNL     1     -43.855 101.497   2.056  0.00  0.00    +0.000 C 
ATOM      8  C   UNL     1     -41.928 102.249   4.552  0.00  0.00    +0.000 C 
ATOM      9  C   UNL     1     -45.403 100.904   3.628  0.00  0.00    +0.000 C 
ATOM     10  C   UNL     1     -40.508 102.390   4.446  0.00  0.00    +0.000 C 
ATOM     11  C   UNL     1     -42.707 101.905   1.336  0.00  0.00    +0.000 C 
ATOM     12  C   UNL     1     -39.455 102.477   2.482  0.00  0.00    +0.000 C 
ATOM     13  C   UNL     1     -40.304 102.402   1.338  0.00  0.00    +0.000 C 
ATOM     14  C   UNL     1     -41.516 102.241   0.628  0.00  0.00    +0.000 C 
ATOM     15  C   UNL     1     -39.793 101.601   3.532  0.00  0.00    +0.000 C 
ATOM     16  C   UNL     1     -45.849 100.468   2.278  0.00  0.00    +0.000 C 
ATOM     17  C   UNL     1     -39.984 103.778   4.209  0.00  0.00    +0.000 C 
ATOM     18  C   UNL     1     -46.044 100.645   4.774  0.00  0.00    +0.000 C 
ATOM     19  C   UNL     1     -41.498 102.160  -0.864  0.00  0.00    +0.000 C 
ENDROOT
BRANCH   6  20
ATOM     20  O   UNL     1     -43.980 102.654   5.711  0.00  0.00    +0.000 OA
BRANCH  20  22
ATOM     21  O   UNL     1     -42.992 104.226   7.071  0.00  0.00    +0.000 OA
ATOM     22  C   UNL     1     -43.692 103.943   6.102  0.00  0.00    +0.000 C 
BRANCH  22  23
ATOM     23  C   UNL     1     -44.350 104.925   5.166  0.00  0.00    +0.000 C 
ATOM     24  C   UNL     1     -43.566 105.873   4.272  0.00  0.00    +0.000 C 
ATOM     25  C   UNL     1     -45.679 104.978   5.017  0.00  0.00    +0.000 C 
ENDBRANCH  22  23
ENDBRANCH  20  22
ENDBRANCH   6  20
TORSDOF 3
ENDMDL
MODEL 7
REMARK VINA RESULT:      -5.4     15.949     19.506
REMARK  Name = 6325056_Deoxyelephantopin.pdbqt.pdb
REMARK  3 active torsions:
REMARK  status: ('A' for Active; 'I' for Inactive)
REMARK    1  A    between atoms: C_6  and  O_20
REMARK    2  A    between atoms: O_20  and  C_22
REMARK    3  A    between atoms: C_22  and  C_23
REMARK                            x       y       z     vdW  Elec       q    Type
REMARK                         _______ _______ _______ _____ _____    ______ ____
ROOT
ATOM      1  O   UNL     1     -22.368 103.273   8.510  0.00  0.00    +0.000 OA
ATOM      2  O   UNL     1     -20.492  97.431   6.300  0.00  0.00    +0.000 OA
ATOM      3  O   UNL     1     -22.843 105.486   8.118  0.00  0.00    +0.000 OA
ATOM      4  O   UNL     1     -21.415  97.784   4.199  0.00  0.00    +0.000 OA
ATOM      5  C   UNL     1     -21.970 102.556   6.297  0.00  0.00    +0.000 C 
ATOM      6  C   UNL     1     -21.720 101.706   5.132  0.00  0.00    +0.000 C 
ATOM      7  C   UNL     1     -22.026 102.184   7.699  0.00  0.00    +0.000 C 
ATOM      8  C   UNL     1     -20.797 100.627   5.134  0.00  0.00    +0.000 C 
ATOM      9  C   UNL     1     -22.293 103.967   6.296  0.00  0.00    +0.000 C 
ATOM     10  C   UNL     1     -19.988  99.451   5.231  0.00  0.00    +0.000 C 
ATOM     11  C   UNL     1     -21.714 100.950   8.316  0.00  0.00    +0.000 C 
ATOM     12  C   UNL     1     -19.759  98.305   7.131  0.00  0.00    +0.000 C 
ATOM     13  C   UNL     1     -20.496  98.821   8.239  0.00  0.00    +0.000 C 
ATOM     14  C   UNL     1     -21.320  99.730   8.941  0.00  0.00    +0.000 C 
ATOM     15  C   UNL     1     -19.132  99.280   6.330  0.00  0.00    +0.000 C 
ATOM     16  C   UNL     1     -22.545 104.378   7.703  0.00  0.00    +0.000 C 
ATOM     17  C   UNL     1     -20.699  98.133   5.121  0.00  0.00    +0.000 C 
ATOM     18  C   UNL     1     -22.293 104.789   5.240  0.00  0.00    +0.000 C 
ATOM     19  C   UNL     1     -21.553  99.543  10.405  0.00  0.00    +0.000 C 
ENDROOT
BRANCH   6  20
ATOM     20  O   UNL     1     -22.204 102.089   3.869  0.00  0.00    +0.000 OA
BRANCH  20  22
ATOM     21  O   UNL     1     -24.065 100.758   4.115  0.00  0.00    +0.000 OA
ATOM     22  C   UNL     1     -23.504 101.722   3.601  0.00  0.00    +0.000 C 
BRANCH  22  23
ATOM     23  C   UNL     1     -24.115 102.678   2.608  0.00  0.00    +0.000 C 
ATOM     24  C   UNL     1     -24.992 103.851   3.015  0.00  0.00    +0.000 C 
ATOM     25  C   UNL     1     -23.867 102.588   1.295  0.00  0.00    +0.000 C 
ENDBRANCH  22  23
ENDBRANCH  20  22
ENDBRANCH   6  20
TORSDOF 3
ENDMDL
MODEL 8
REMARK VINA RESULT:      -5.3     21.429     23.384
REMARK  Name = 6325056_Deoxyelephantopin.pdbqt.pdb
REMARK  3 active torsions:
REMARK  status: ('A' for Active; 'I' for Inactive)
REMARK    1  A    between atoms: C_6  and  O_20
REMARK    2  A    between atoms: O_20  and  C_22
REMARK    3  A    between atoms: C_22  and  C_23
REMARK                            x       y       z     vdW  Elec       q    Type
REMARK                         _______ _______ _______ _____ _____    ______ ____
ROOT
ATOM      1  O   UNL     1     -23.218  88.294  -6.810  0.00  0.00    +0.000 OA
ATOM      2  O   UNL     1     -28.022  85.484 -10.209  0.00  0.00    +0.000 OA
ATOM      3  O   UNL     1     -22.534  89.725  -5.148  0.00  0.00    +0.000 OA
ATOM      4  O   UNL     1     -29.497  85.534  -8.416  0.00  0.00    +0.000 OA
ATOM      5  C   UNL     1     -25.553  88.398  -6.486  0.00  0.00    +0.000 C 
ATOM      6  C   UNL     1     -26.987  88.124  -6.589  0.00  0.00    +0.000 C 
ATOM      7  C   UNL     1     -24.462  87.836  -7.260  0.00  0.00    +0.000 C 
ATOM      8  C   UNL     1     -27.654  87.899  -7.821  0.00  0.00    +0.000 C 
ATOM      9  C   UNL     1     -24.894  89.254  -5.522  0.00  0.00    +0.000 C 
ATOM     10  C   UNL     1     -28.251  87.512  -9.063  0.00  0.00    +0.000 C 
ATOM     11  C   UNL     1     -24.504  86.997  -8.399  0.00  0.00    +0.000 C 
ATOM     12  C   UNL     1     -27.110  86.460 -10.665  0.00  0.00    +0.000 C 
ATOM     13  C   UNL     1     -25.746  86.184 -10.353  0.00  0.00    +0.000 C 
ATOM     14  C   UNL     1     -24.554  86.220  -9.593  0.00  0.00    +0.000 C 
ATOM     15  C   UNL     1     -27.565  87.733 -10.267  0.00  0.00    +0.000 C 
ATOM     16  C   UNL     1     -23.427  89.156  -5.753  0.00  0.00    +0.000 C 
ATOM     17  C   UNL     1     -28.718  86.088  -9.171  0.00  0.00    +0.000 C 
ATOM     18  C   UNL     1     -25.482  90.059  -4.630  0.00  0.00    +0.000 C 
ATOM     19  C   UNL     1     -23.289  85.673 -10.171  0.00  0.00    +0.000 C 
ENDROOT
BRANCH   6  20
ATOM     20  O   UNL     1     -27.820  88.328  -5.475  0.00  0.00    +0.000 OA
BRANCH  20  22
ATOM     21  O   UNL     1     -29.874  87.324  -5.213  0.00  0.00    +0.000 OA
ATOM     22  C   UNL     1     -28.648  87.274  -5.159  0.00  0.00    +0.000 C 
BRANCH  22  23
ATOM     23  C   UNL     1     -27.826  86.076  -4.755  0.00  0.00    +0.000 C 
ATOM     24  C   UNL     1     -26.754  86.130  -3.678  0.00  0.00    +0.000 C 
ATOM     25  C   UNL     1     -28.037  84.863  -5.282  0.00  0.00    +0.000 C 
ENDBRANCH  22  23
ENDBRANCH  20  22
ENDBRANCH   6  20
TORSDOF 3
ENDMDL
MODEL 9
REMARK VINA RESULT:      -5.3     16.198     18.765
REMARK  Name = 6325056_Deoxyelephantopin.pdbqt.pdb
REMARK  3 active torsions:
REMARK  status: ('A' for Active; 'I' for Inactive)
REMARK    1  A    between atoms: C_6  and  O_20
REMARK    2  A    between atoms: O_20  and  C_22
REMARK    3  A    between atoms: C_22  and  C_23
REMARK                            x       y       z     vdW  Elec       q    Type
REMARK                         _______ _______ _______ _____ _____    ______ ____
ROOT
ATOM      1  O   UNL     1     -23.522 105.617   7.193  0.00  0.00    +0.000 OA
ATOM      2  O   UNL     1     -23.460 100.745   2.859  0.00  0.00    +0.000 OA
ATOM      3  O   UNL     1     -23.099 106.395   9.313  0.00  0.00    +0.000 OA
ATOM      4  O   UNL     1     -21.604  99.737   3.822  0.00  0.00    +0.000 OA
ATOM      5  C   UNL     1     -22.635 103.439   7.388  0.00  0.00    +0.000 C 
ATOM      6  C   UNL     1     -22.164 102.092   7.060  0.00  0.00    +0.000 C 
ATOM      7  C   UNL     1     -23.294 104.406   6.529  0.00  0.00    +0.000 C 
ATOM      8  C   UNL     1     -22.856 101.212   6.188  0.00  0.00    +0.000 C 
ATOM      9  C   UNL     1     -22.480 104.137   8.646  0.00  0.00    +0.000 C 
ATOM     10  C   UNL     1     -23.494 100.426   5.177  0.00  0.00    +0.000 C 
ATOM     11  C   UNL     1     -23.779 104.255   5.209  0.00  0.00    +0.000 C 
ATOM     12  C   UNL     1     -24.590 101.337   3.462  0.00  0.00    +0.000 C 
ATOM     13  C   UNL     1     -24.592 102.764   3.437  0.00  0.00    +0.000 C 
ATOM     14  C   UNL     1     -24.339 104.072   3.910  0.00  0.00    +0.000 C 
ATOM     15  C   UNL     1     -24.782 100.765   4.736  0.00  0.00    +0.000 C 
ATOM     16  C   UNL     1     -23.041 105.505   8.482  0.00  0.00    +0.000 C 
ATOM     17  C   UNL     1     -22.724 100.209   3.906  0.00  0.00    +0.000 C 
ATOM     18  C   UNL     1     -21.994 103.635   9.787  0.00  0.00    +0.000 C 
ATOM     19  C   UNL     1     -24.897 105.248   3.175  0.00  0.00    +0.000 C 
ENDROOT
BRANCH   6  20
ATOM     20  O   UNL     1     -21.123 101.515   7.807  0.00  0.00    +0.000 OA
BRANCH  20  22
ATOM     21  O   UNL     1     -22.438 100.281   9.237  0.00  0.00    +0.000 OA
ATOM     22  C   UNL     1     -21.460 100.373   8.500  0.00  0.00    +0.000 C 
BRANCH  22  23
ATOM     23  C   UNL     1     -20.463  99.280   8.208  0.00  0.00    +0.000 C 
ATOM     24  C   UNL     1     -20.492  98.448   6.936  0.00  0.00    +0.000 C 
ATOM     25  C   UNL     1     -19.442  99.014   9.033  0.00  0.00    +0.000 C 
ENDBRANCH  22  23
ENDBRANCH  20  22
ENDBRANCH   6  20
TORSDOF 3
ENDMDL
