MODEL 1
REMARK VINA RESULT:      -6.0      0.000      0.000
REMARK  Name = 641785_Cardamonin.pdbqt.pdb
REMARK  6 active torsions:
REMARK  status: ('A' for Active; 'I' for Inactive)
REMARK    1  A    between atoms: C_1  and  C_14
REMARK    2  A    between atoms: C_2  and  O_7
REMARK    3  A    between atoms: C_3  and  O_9
REMARK    4  A    between atoms: C_6  and  O_11
REMARK    5  A    between atoms: C_14  and  C_15
REMARK    6  A    between atoms: C_16  and  C_17
REMARK                            x       y       z     vdW  Elec       q    Type
REMARK                         _______ _______ _______ _____ _____    ______ ____
ROOT
ATOM      1  C   UNL     1     -29.480  88.845  16.832  0.00  0.00    +0.000 A 
ATOM      2  C   UNL     1     -29.184  87.718  17.623  0.00  0.00    +0.000 A 
ATOM      3  C   UNL     1     -30.536  89.692  17.225  0.00  0.00    +0.000 A 
ATOM      4  C   UNL     1     -29.961  87.456  18.761  0.00  0.00    +0.000 A 
ATOM      5  C   UNL     1     -31.305  89.411  18.353  0.00  0.00    +0.000 A 
ATOM      6  C   UNL     1     -31.015  88.290  19.112  0.00  0.00    +0.000 A 
ENDROOT
BRANCH   2   7
ATOM      7  O   UNL     1     -28.092  86.946  17.303  0.00  0.00    +0.000 OA
ATOM      8  C   UNL     1     -28.310  85.564  17.252  0.00  0.00    +0.000 C 
ENDBRANCH   2   7
BRANCH   3   9
ATOM      9  O   UNL     1     -30.888  90.832  16.545  0.00  0.00    +0.000 OA
ATOM     10  H   UNL     1     -31.033  90.620  15.597  0.00  0.00    +0.000 HD
ENDBRANCH   3   9
BRANCH   6  11
ATOM     11  O   UNL     1     -31.775  88.027  20.211  0.00  0.00    +0.000 OA
ATOM     12  H   UNL     1     -31.740  87.072  20.397  0.00  0.00    +0.000 HD
ENDBRANCH   6  11
BRANCH   1  14
ATOM     13  O   UNL     1     -28.184  90.288  15.497  0.00  0.00    +0.000 OA
ATOM     14  C   UNL     1     -28.734  89.197  15.597  0.00  0.00    +0.000 C 
BRANCH  14  15
ATOM     15  C   UNL     1     -28.710  88.295  14.472  0.00  0.00    +0.000 C 
ATOM     16  C   UNL     1     -28.686  87.529  13.546  0.00  0.00    +0.000 C 
BRANCH  16  17
ATOM     17  C   UNL     1     -28.658  86.625  12.443  0.00  0.00    +0.000 A 
ATOM     18  C   UNL     1     -27.730  85.585  12.422  0.00  0.00    +0.000 A 
ATOM     19  C   UNL     1     -29.555  86.784  11.390  0.00  0.00    +0.000 A 
ATOM     20  C   UNL     1     -27.700  84.703  11.344  0.00  0.00    +0.000 A 
ATOM     21  C   UNL     1     -29.525  85.901  10.312  0.00  0.00    +0.000 A 
ATOM     22  C   UNL     1     -28.597  84.862  10.291  0.00  0.00    +0.000 A 
ENDBRANCH  16  17
ENDBRANCH  14  15
ENDBRANCH   1  14
TORSDOF 6
ENDMDL
MODEL 2
REMARK VINA RESULT:      -5.8     12.917     15.442
REMARK  Name = 641785_Cardamonin.pdbqt.pdb
REMARK  6 active torsions:
REMARK  status: ('A' for Active; 'I' for Inactive)
REMARK    1  A    between atoms: C_1  and  C_14
REMARK    2  A    between atoms: C_2  and  O_7
REMARK    3  A    between atoms: C_3  and  O_9
REMARK    4  A    between atoms: C_6  and  O_11
REMARK    5  A    between atoms: C_14  and  C_15
REMARK    6  A    between atoms: C_16  and  C_17
REMARK                            x       y       z     vdW  Elec       q    Type
REMARK                         _______ _______ _______ _____ _____    ______ ____
ROOT
ATOM      1  C   UNL     1     -36.071 101.221  13.289  0.00  0.00    +0.000 A 
ATOM      2  C   UNL     1     -36.547 102.360  13.966  0.00  0.00    +0.000 A 
ATOM      3  C   UNL     1     -36.850 100.046  13.303  0.00  0.00    +0.000 A 
ATOM      4  C   UNL     1     -37.766 102.288  14.655  0.00  0.00    +0.000 A 
ATOM      5  C   UNL     1     -38.055  99.989  14.002  0.00  0.00    +0.000 A 
ATOM      6  C   UNL     1     -38.503 101.111  14.680  0.00  0.00    +0.000 A 
ENDROOT
BRANCH   2   7
ATOM      7  O   UNL     1     -35.842 103.538  13.870  0.00  0.00    +0.000 OA
ATOM      8  C   UNL     1     -36.451 104.560  13.132  0.00  0.00    +0.000 C 
ENDBRANCH   2   7
BRANCH   3   9
ATOM      9  O   UNL     1     -36.496  98.892  12.651  0.00  0.00    +0.000 OA
ATOM     10  H   UNL     1     -35.521  98.868  12.528  0.00  0.00    +0.000 HD
ENDBRANCH   3   9
BRANCH   6  11
ATOM     11  O   UNL     1     -39.681 101.040  15.359  0.00  0.00    +0.000 OA
ATOM     12  H   UNL     1     -40.388 101.412  14.802  0.00  0.00    +0.000 HD
ENDBRANCH   6  11
BRANCH   1  14
ATOM     13  O   UNL     1     -34.773 101.166  11.324  0.00  0.00    +0.000 OA
ATOM     14  C   UNL     1     -34.782 101.186  12.550  0.00  0.00    +0.000 C 
BRANCH  14  15
ATOM     15  C   UNL     1     -33.531 101.100  13.261  0.00  0.00    +0.000 C 
ATOM     16  C   UNL     1     -32.493 101.012  13.862  0.00  0.00    +0.000 C 
BRANCH  16  17
ATOM     17  C   UNL     1     -31.261 100.915  14.573  0.00  0.00    +0.000 A 
ATOM     18  C   UNL     1     -30.843  99.682  15.072  0.00  0.00    +0.000 A 
ATOM     19  C   UNL     1     -30.480 102.051  14.770  0.00  0.00    +0.000 A 
ATOM     20  C   UNL     1     -29.641  99.587  15.768  0.00  0.00    +0.000 A 
ATOM     21  C   UNL     1     -29.277 101.954  15.467  0.00  0.00    +0.000 A 
ATOM     22  C   UNL     1     -28.859 100.722  15.965  0.00  0.00    +0.000 A 
ENDBRANCH  16  17
ENDBRANCH  14  15
ENDBRANCH   1  14
TORSDOF 6
ENDMDL
MODEL 3
REMARK VINA RESULT:      -5.7     11.594     13.682
REMARK  Name = 641785_Cardamonin.pdbqt.pdb
REMARK  6 active torsions:
REMARK  status: ('A' for Active; 'I' for Inactive)
REMARK    1  A    between atoms: C_1  and  C_14
REMARK    2  A    between atoms: C_2  and  O_7
REMARK    3  A    between atoms: C_3  and  O_9
REMARK    4  A    between atoms: C_6  and  O_11
REMARK    5  A    between atoms: C_14  and  C_15
REMARK    6  A    between atoms: C_16  and  C_17
REMARK                            x       y       z     vdW  Elec       q    Type
REMARK                         _______ _______ _______ _____ _____    ______ ____
ROOT
ATOM      1  C   UNL     1     -31.030  99.751  15.944  0.00  0.00    +0.000 A 
ATOM      2  C   UNL     1     -30.595 100.043  17.251  0.00  0.00    +0.000 A 
ATOM      3  C   UNL     1     -30.560 100.545  14.878  0.00  0.00    +0.000 A 
ATOM      4  C   UNL     1     -29.729 101.127  17.459  0.00  0.00    +0.000 A 
ATOM      5  C   UNL     1     -29.708 101.625  15.104  0.00  0.00    +0.000 A 
ATOM      6  C   UNL     1     -29.303 101.913  16.397  0.00  0.00    +0.000 A 
ENDROOT
BRANCH   2   7
ATOM      7  O   UNL     1     -30.967  99.211  18.281  0.00  0.00    +0.000 OA
ATOM      8  C   UNL     1     -29.923  98.627  19.008  0.00  0.00    +0.000 C 
ENDBRANCH   2   7
BRANCH   3   9
ATOM      9  O   UNL     1     -30.896 100.328  13.566  0.00  0.00    +0.000 OA
ATOM     10  H   UNL     1     -30.222  99.752  13.142  0.00  0.00    +0.000 HD
ENDBRANCH   3   9
BRANCH   6  11
ATOM     11  O   UNL     1     -28.471 102.972  16.603  0.00  0.00    +0.000 OA
ATOM     12  H   UNL     1     -27.974 103.146  15.783  0.00  0.00    +0.000 HD
ENDBRANCH   6  11
BRANCH   1  14
ATOM     13  O   UNL     1     -31.582  97.477  15.676  0.00  0.00    +0.000 OA
ATOM     14  C   UNL     1     -31.963  98.641  15.621  0.00  0.00    +0.000 C 
BRANCH  14  15
ATOM     15  C   UNL     1     -33.303  98.918  15.166  0.00  0.00    +0.000 C 
ATOM     16  C   UNL     1     -34.427  99.144  14.804  0.00  0.00    +0.000 C 
BRANCH  16  17
ATOM     17  C   UNL     1     -35.758  99.412  14.367  0.00  0.00    +0.000 A 
ATOM     18  C   UNL     1     -36.837  99.086  15.188  0.00  0.00    +0.000 A 
ATOM     19  C   UNL     1     -35.978  99.996  13.122  0.00  0.00    +0.000 A 
ATOM     20  C   UNL     1     -38.137  99.346  14.761  0.00  0.00    +0.000 A 
ATOM     21  C   UNL     1     -37.279 100.255  12.696  0.00  0.00    +0.000 A 
ATOM     22  C   UNL     1     -38.357  99.930  13.516  0.00  0.00    +0.000 A 
ENDBRANCH  16  17
ENDBRANCH  14  15
ENDBRANCH   1  14
TORSDOF 6
ENDMDL
MODEL 4
REMARK VINA RESULT:      -5.5     17.519     19.169
REMARK  Name = 641785_Cardamonin.pdbqt.pdb
REMARK  6 active torsions:
REMARK  status: ('A' for Active; 'I' for Inactive)
REMARK    1  A    between atoms: C_1  and  C_14
REMARK    2  A    between atoms: C_2  and  O_7
REMARK    3  A    between atoms: C_3  and  O_9
REMARK    4  A    between atoms: C_6  and  O_11
REMARK    5  A    between atoms: C_14  and  C_15
REMARK    6  A    between atoms: C_16  and  C_17
REMARK                            x       y       z     vdW  Elec       q    Type
REMARK                         _______ _______ _______ _____ _____    ______ ____
ROOT
ATOM      1  C   UNL     1     -22.855 100.286   5.787  0.00  0.00    +0.000 A 
ATOM      2  C   UNL     1     -21.668  99.619   5.428  0.00  0.00    +0.000 A 
ATOM      3  C   UNL     1     -22.913 100.947   7.031  0.00  0.00    +0.000 A 
ATOM      4  C   UNL     1     -20.590  99.607   6.325  0.00  0.00    +0.000 A 
ATOM      5  C   UNL     1     -21.835 100.916   7.915  0.00  0.00    +0.000 A 
ATOM      6  C   UNL     1     -20.681 100.240   7.558  0.00  0.00    +0.000 A 
ENDROOT
BRANCH   2   7
ATOM      7  O   UNL     1     -21.569  99.061   4.175  0.00  0.00    +0.000 OA
ATOM      8  C   UNL     1     -20.688  97.979   4.052  0.00  0.00    +0.000 C 
ENDBRANCH   2   7
BRANCH   3   9
ATOM      9  O   UNL     1     -24.007 101.653   7.465  0.00  0.00    +0.000 OA
ATOM     10  H   UNL     1     -24.427 101.182   8.218  0.00  0.00    +0.000 HD
ENDBRANCH   3   9
BRANCH   6  11
ATOM     11  O   UNL     1     -19.637 100.217   8.432  0.00  0.00    +0.000 OA
ATOM     12  H   UNL     1     -18.881  99.775   8.007  0.00  0.00    +0.000 HD
ENDBRANCH   6  11
BRANCH   1  14
ATOM     13  O   UNL     1     -24.989  99.560   5.104  0.00  0.00    +0.000 OA
ATOM     14  C   UNL     1     -24.060 100.339   4.920  0.00  0.00    +0.000 C 
BRANCH  14  15
ATOM     15  C   UNL     1     -24.122 101.252   3.806  0.00  0.00    +0.000 C 
ATOM     16  C   UNL     1     -24.180 102.000   2.865  0.00  0.00    +0.000 C 
BRANCH  16  17
ATOM     17  C   UNL     1     -24.246 102.891   1.754  0.00  0.00    +0.000 A 
ATOM     18  C   UNL     1     -24.860 104.134   1.897  0.00  0.00    +0.000 A 
ATOM     19  C   UNL     1     -23.698 102.517   0.529  0.00  0.00    +0.000 A 
ATOM     20  C   UNL     1     -24.926 105.004   0.811  0.00  0.00    +0.000 A 
ATOM     21  C   UNL     1     -23.764 103.389  -0.556  0.00  0.00    +0.000 A 
ATOM     22  C   UNL     1     -24.378 104.631  -0.414  0.00  0.00    +0.000 A 
ENDBRANCH  16  17
ENDBRANCH  14  15
ENDBRANCH   1  14
TORSDOF 6
ENDMDL
MODEL 5
REMARK VINA RESULT:      -5.4     12.653     14.926
REMARK  Name = 641785_Cardamonin.pdbqt.pdb
REMARK  6 active torsions:
REMARK  status: ('A' for Active; 'I' for Inactive)
REMARK    1  A    between atoms: C_1  and  C_14
REMARK    2  A    between atoms: C_2  and  O_7
REMARK    3  A    between atoms: C_3  and  O_9
REMARK    4  A    between atoms: C_6  and  O_11
REMARK    5  A    between atoms: C_14  and  C_15
REMARK    6  A    between atoms: C_16  and  C_17
REMARK                            x       y       z     vdW  Elec       q    Type
REMARK                         _______ _______ _______ _____ _____    ______ ____
ROOT
ATOM      1  C   UNL     1     -36.996 100.738  13.821  0.00  0.00    +0.000 A 
ATOM      2  C   UNL     1     -37.311  99.779  14.802  0.00  0.00    +0.000 A 
ATOM      3  C   UNL     1     -37.815 101.880  13.699  0.00  0.00    +0.000 A 
ATOM      4  C   UNL     1     -38.440  99.971  15.611  0.00  0.00    +0.000 A 
ATOM      5  C   UNL     1     -38.940 102.050  14.505  0.00  0.00    +0.000 A 
ATOM      6  C   UNL     1     -39.249 101.089  15.453  0.00  0.00    +0.000 A 
ENDROOT
BRANCH   2   7
ATOM      7  O   UNL     1     -36.459  98.716  14.994  0.00  0.00    +0.000 OA
ATOM      8  C   UNL     1     -35.871  98.621  16.262  0.00  0.00    +0.000 C 
ENDBRANCH   2   7
BRANCH   3   9
ATOM      9  O   UNL     1     -37.580 102.889  12.800  0.00  0.00    +0.000 OA
ATOM     10  H   UNL     1     -37.574 103.754  13.267  0.00  0.00    +0.000 HD
ENDBRANCH   3   9
BRANCH   6  11
ATOM     11  O   UNL     1     -40.351 101.268  16.233  0.00  0.00    +0.000 OA
ATOM     12  H   UNL     1     -40.126 101.041  17.153  0.00  0.00    +0.000 HD
ENDBRANCH   6  11
BRANCH   1  14
ATOM     13  O   UNL     1     -36.017 100.470  11.695  0.00  0.00    +0.000 OA
ATOM     14  C   UNL     1     -35.837 100.618  12.899  0.00  0.00    +0.000 C 
BRANCH  14  15
ATOM     15  C   UNL     1     -34.490 100.598  13.414  0.00  0.00    +0.000 C 
ATOM     16  C   UNL     1     -33.372 100.592  13.857  0.00  0.00    +0.000 C 
BRANCH  16  17
ATOM     17  C   UNL     1     -32.045 100.583  14.376  0.00  0.00    +0.000 A 
ATOM     18  C   UNL     1     -31.549  99.436  14.994  0.00  0.00    +0.000 A 
ATOM     19  C   UNL     1     -31.247 101.719  14.268  0.00  0.00    +0.000 A 
ATOM     20  C   UNL     1     -30.252  99.427  15.504  0.00  0.00    +0.000 A 
ATOM     21  C   UNL     1     -29.950 101.709  14.777  0.00  0.00    +0.000 A 
ATOM     22  C   UNL     1     -29.454 100.563  15.395  0.00  0.00    +0.000 A 
ENDBRANCH  16  17
ENDBRANCH  14  15
ENDBRANCH   1  14
TORSDOF 6
ENDMDL
MODEL 6
REMARK VINA RESULT:      -5.3     23.529     26.261
REMARK  Name = 641785_Cardamonin.pdbqt.pdb
REMARK  6 active torsions:
REMARK  status: ('A' for Active; 'I' for Inactive)
REMARK    1  A    between atoms: C_1  and  C_14
REMARK    2  A    between atoms: C_2  and  O_7
REMARK    3  A    between atoms: C_3  and  O_9
REMARK    4  A    between atoms: C_6  and  O_11
REMARK    5  A    between atoms: C_14  and  C_15
REMARK    6  A    between atoms: C_16  and  C_17
REMARK                            x       y       z     vdW  Elec       q    Type
REMARK                         _______ _______ _______ _____ _____    ______ ____
ROOT
ATOM      1  C   UNL     1     -23.541 102.549  -5.878  0.00  0.00    +0.000 A 
ATOM      2  C   UNL     1     -22.270 103.082  -6.164  0.00  0.00    +0.000 A 
ATOM      3  C   UNL     1     -23.829 101.226  -6.274  0.00  0.00    +0.000 A 
ATOM      4  C   UNL     1     -21.336 102.295  -6.855  0.00  0.00    +0.000 A 
ATOM      5  C   UNL     1     -22.892 100.462  -6.970  0.00  0.00    +0.000 A 
ATOM      6  C   UNL     1     -21.652 101.005  -7.261  0.00  0.00    +0.000 A 
ENDROOT
BRANCH   2   7
ATOM      7  O   UNL     1     -21.948 104.333  -5.690  0.00  0.00    +0.000 OA
ATOM      8  C   UNL     1     -20.795 104.412  -4.900  0.00  0.00    +0.000 C 
ENDBRANCH   2   7
BRANCH   3   9
ATOM      9  O   UNL     1     -25.022 100.600  -6.018  0.00  0.00    +0.000 OA
ATOM     10  H   UNL     1     -24.940 100.048  -5.210  0.00  0.00    +0.000 HD
ENDBRANCH   3   9
BRANCH   6  11
ATOM     11  O   UNL     1     -20.748 100.248  -7.942  0.00  0.00    +0.000 OA
ATOM     12  H   UNL     1     -19.861 100.410  -7.573  0.00  0.00    +0.000 HD
ENDBRANCH   6  11
BRANCH   1  14
ATOM     13  O   UNL     1     -25.510 103.839  -5.807  0.00  0.00    +0.000 OA
ATOM     14  C   UNL     1     -24.607 103.306  -5.173  0.00  0.00    +0.000 C 
BRANCH  14  15
ATOM     15  C   UNL     1     -24.555 103.487  -3.743  0.00  0.00    +0.000 C 
ATOM     16  C   UNL     1     -24.497 103.625  -2.550  0.00  0.00    +0.000 C 
BRANCH  16  17
ATOM     17  C   UNL     1     -24.435 103.792  -1.135  0.00  0.00    +0.000 A 
ATOM     18  C   UNL     1     -23.676 102.912  -0.365  0.00  0.00    +0.000 A 
ATOM     19  C   UNL     1     -25.133 104.831  -0.526  0.00  0.00    +0.000 A 
ATOM     20  C   UNL     1     -23.616 103.073   1.017  0.00  0.00    +0.000 A 
ATOM     21  C   UNL     1     -25.073 104.992   0.857  0.00  0.00    +0.000 A 
ATOM     22  C   UNL     1     -24.315 104.113   1.627  0.00  0.00    +0.000 A 
ENDBRANCH  16  17
ENDBRANCH  14  15
ENDBRANCH   1  14
TORSDOF 6
ENDMDL
MODEL 7
REMARK VINA RESULT:      -5.3     13.210     15.766
REMARK  Name = 641785_Cardamonin.pdbqt.pdb
REMARK  6 active torsions:
REMARK  status: ('A' for Active; 'I' for Inactive)
REMARK    1  A    between atoms: C_1  and  C_14
REMARK    2  A    between atoms: C_2  and  O_7
REMARK    3  A    between atoms: C_3  and  O_9
REMARK    4  A    between atoms: C_6  and  O_11
REMARK    5  A    between atoms: C_14  and  C_15
REMARK    6  A    between atoms: C_16  and  C_17
REMARK                            x       y       z     vdW  Elec       q    Type
REMARK                         _______ _______ _______ _____ _____    ______ ____
ROOT
ATOM      1  C   UNL     1     -38.368 101.126  14.417  0.00  0.00    +0.000 A 
ATOM      2  C   UNL     1     -38.708 101.481  15.737  0.00  0.00    +0.000 A 
ATOM      3  C   UNL     1     -38.788 101.959  13.361  0.00  0.00    +0.000 A 
ATOM      4  C   UNL     1     -39.474 102.634  15.962  0.00  0.00    +0.000 A 
ATOM      5  C   UNL     1     -39.558 103.097  13.601  0.00  0.00    +0.000 A 
ATOM      6  C   UNL     1     -39.902 103.423  14.902  0.00  0.00    +0.000 A 
ENDROOT
BRANCH   2   7
ATOM      7  O   UNL     1     -38.215 100.729  16.779  0.00  0.00    +0.000 OA
ATOM      8  C   UNL     1     -39.122  99.856  17.390  0.00  0.00    +0.000 C 
ENDBRANCH   2   7
BRANCH   3   9
ATOM      9  O   UNL     1     -38.485 101.725  12.043  0.00  0.00    +0.000 OA
ATOM     10  H   UNL     1     -37.873 102.420  11.715  0.00  0.00    +0.000 HD
ENDBRANCH   3   9
BRANCH   6  11
ATOM     11  O   UNL     1     -40.656 104.536  15.122  0.00  0.00    +0.000 OA
ATOM     12  H   UNL     1     -40.738 104.676  16.082  0.00  0.00    +0.000 HD
ENDBRANCH   6  11
BRANCH   1  14
ATOM     13  O   UNL     1     -38.148  98.897  13.689  0.00  0.00    +0.000 OA
ATOM     14  C   UNL     1     -37.581  99.915  14.071  0.00  0.00    +0.000 C 
BRANCH  14  15
ATOM     15  C   UNL     1     -36.150  99.894  14.251  0.00  0.00    +0.000 C 
ATOM     16  C   UNL     1     -34.957  99.859  14.393  0.00  0.00    +0.000 C 
BRANCH  16  17
ATOM     17  C   UNL     1     -33.542  99.824  14.566  0.00  0.00    +0.000 A 
ATOM     18  C   UNL     1     -32.969  98.874  15.409  0.00  0.00    +0.000 A 
ATOM     19  C   UNL     1     -32.735 100.739  13.893  0.00  0.00    +0.000 A 
ATOM     20  C   UNL     1     -31.587  98.839  15.580  0.00  0.00    +0.000 A 
ATOM     21  C   UNL     1     -31.353 100.704  14.064  0.00  0.00    +0.000 A 
ATOM     22  C   UNL     1     -30.780  99.755  14.908  0.00  0.00    +0.000 A 
ENDBRANCH  16  17
ENDBRANCH  14  15
ENDBRANCH   1  14
TORSDOF 6
ENDMDL
MODEL 8
REMARK VINA RESULT:      -5.0     24.426     27.348
REMARK  Name = 641785_Cardamonin.pdbqt.pdb
REMARK  6 active torsions:
REMARK  status: ('A' for Active; 'I' for Inactive)
REMARK    1  A    between atoms: C_1  and  C_14
REMARK    2  A    between atoms: C_2  and  O_7
REMARK    3  A    between atoms: C_3  and  O_9
REMARK    4  A    between atoms: C_6  and  O_11
REMARK    5  A    between atoms: C_14  and  C_15
REMARK    6  A    between atoms: C_16  and  C_17
REMARK                            x       y       z     vdW  Elec       q    Type
REMARK                         _______ _______ _______ _____ _____    ______ ____
ROOT
ATOM      1  C   UNL     1     -25.084 102.020  -7.053  0.00  0.00    +0.000 A 
ATOM      2  C   UNL     1     -25.551 103.163  -7.730  0.00  0.00    +0.000 A 
ATOM      3  C   UNL     1     -24.103 101.218  -7.671  0.00  0.00    +0.000 A 
ATOM      4  C   UNL     1     -25.048 103.457  -9.006  0.00  0.00    +0.000 A 
ATOM      5  C   UNL     1     -23.622 101.519  -8.944  0.00  0.00    +0.000 A 
ATOM      6  C   UNL     1     -24.103 102.636  -9.607  0.00  0.00    +0.000 A 
ENDROOT
BRANCH   2   7
ATOM      7  O   UNL     1     -26.431 104.005  -7.091  0.00  0.00    +0.000 OA
ATOM      8  C   UNL     1     -27.054 104.968  -7.894  0.00  0.00    +0.000 C 
ENDBRANCH   2   7
BRANCH   3   9
ATOM      9  O   UNL     1     -23.558 100.103  -7.087  0.00  0.00    +0.000 OA
ATOM     10  H   UNL     1     -22.685 100.328  -6.694  0.00  0.00    +0.000 HD
ENDBRANCH   3   9
BRANCH   6  11
ATOM     11  O   UNL     1     -23.625 102.917 -10.851  0.00  0.00    +0.000 OA
ATOM     12  H   UNL     1     -24.363 102.885 -11.486  0.00  0.00    +0.000 HD
ENDBRANCH   6  11
BRANCH   1  14
ATOM     13  O   UNL     1     -26.228 100.584  -5.578  0.00  0.00    +0.000 OA
ATOM     14  C   UNL     1     -25.568 101.609  -5.710  0.00  0.00    +0.000 C 
BRANCH  14  15
ATOM     15  C   UNL     1     -25.334 102.444  -4.558  0.00  0.00    +0.000 C 
ATOM     16  C   UNL     1     -25.121 103.134  -3.597  0.00  0.00    +0.000 C 
BRANCH  16  17
ATOM     17  C   UNL     1     -24.876 103.954  -2.456  0.00  0.00    +0.000 A 
ATOM     18  C   UNL     1     -25.504 105.193  -2.343  0.00  0.00    +0.000 A 
ATOM     19  C   UNL     1     -24.007 103.517  -1.459  0.00  0.00    +0.000 A 
ATOM     20  C   UNL     1     -25.263 105.995  -1.230  0.00  0.00    +0.000 A 
ATOM     21  C   UNL     1     -23.767 104.319  -0.346  0.00  0.00    +0.000 A 
ATOM     22  C   UNL     1     -24.395 105.557  -0.233  0.00  0.00    +0.000 A 
ENDBRANCH  16  17
ENDBRANCH  14  15
ENDBRANCH   1  14
TORSDOF 6
ENDMDL
MODEL 9
REMARK VINA RESULT:      -4.9     22.785     24.528
REMARK  Name = 641785_Cardamonin.pdbqt.pdb
REMARK  6 active torsions:
REMARK  status: ('A' for Active; 'I' for Inactive)
REMARK    1  A    between atoms: C_1  and  C_14
REMARK    2  A    between atoms: C_2  and  O_7
REMARK    3  A    between atoms: C_3  and  O_9
REMARK    4  A    between atoms: C_6  and  O_11
REMARK    5  A    between atoms: C_14  and  C_15
REMARK    6  A    between atoms: C_16  and  C_17
REMARK                            x       y       z     vdW  Elec       q    Type
REMARK                         _______ _______ _______ _____ _____    ______ ____
ROOT
ATOM      1  C   UNL     1     -47.599  99.257   2.247  0.00  0.00    +0.000 A 
ATOM      2  C   UNL     1     -48.019  99.650   3.533  0.00  0.00    +0.000 A 
ATOM      3  C   UNL     1     -48.031  98.014   1.741  0.00  0.00    +0.000 A 
ATOM      4  C   UNL     1     -48.832  98.786   4.282  0.00  0.00    +0.000 A 
ATOM      5  C   UNL     1     -48.830  97.163   2.504  0.00  0.00    +0.000 A 
ATOM      6  C   UNL     1     -49.220  97.553   3.774  0.00  0.00    +0.000 A 
ENDROOT
BRANCH   2   7
ATOM      7  O   UNL     1     -47.687 100.904   3.991  0.00  0.00    +0.000 OA
ATOM      8  C   UNL     1     -46.815 100.947   5.086  0.00  0.00    +0.000 C 
ENDBRANCH   2   7
BRANCH   3   9
ATOM      9  O   UNL     1     -47.707  97.550   0.492  0.00  0.00    +0.000 OA
ATOM     10  H   UNL     1     -48.467  97.054   0.116  0.00  0.00    +0.000 HD
ENDBRANCH   3   9
BRANCH   6  11
ATOM     11  O   UNL     1     -49.999  96.711   4.508  0.00  0.00    +0.000 OA
ATOM     12  H   UNL     1     -50.140  95.891   4.002  0.00  0.00    +0.000 HD
ENDBRANCH   6  11
BRANCH   1  14
ATOM     13  O   UNL     1     -47.105 100.449   0.277  0.00  0.00    +0.000 OA
ATOM     14  C   UNL     1     -46.721 100.088   1.384  0.00  0.00    +0.000 C 
BRANCH  14  15
ATOM     15  C   UNL     1     -45.381 100.417   1.801  0.00  0.00    +0.000 C 
ATOM     16  C   UNL     1     -44.256 100.678   2.137  0.00  0.00    +0.000 C 
BRANCH  16  17
ATOM     17  C   UNL     1     -42.925 100.992   2.540  0.00  0.00    +0.000 A 
ATOM     18  C   UNL     1     -42.581 100.952   3.890  0.00  0.00    +0.000 A 
ATOM     19  C   UNL     1     -41.972 101.340   1.586  0.00  0.00    +0.000 A 
ATOM     20  C   UNL     1     -41.281 101.260   4.285  0.00  0.00    +0.000 A 
ATOM     21  C   UNL     1     -40.672 101.647   1.982  0.00  0.00    +0.000 A 
ATOM     22  C   UNL     1     -40.328 101.608   3.331  0.00  0.00    +0.000 A 
ENDBRANCH  16  17
ENDBRANCH  14  15
ENDBRANCH   1  14
TORSDOF 6
ENDMDL
