MODEL 1
REMARK VINA RESULT:      -5.6      0.000      0.000
REMARK  Name = 6440856_Goniothalamin.pdbqt.pdb
REMARK  2 active torsions:
REMARK  status: ('A' for Active; 'I' for Inactive)
REMARK    1  A    between atoms: C_1  and  C_5
REMARK    2  A    between atoms: C_2  and  C_10
REMARK                            x       y       z     vdW  Elec       q    Type
REMARK                         _______ _______ _______ _____ _____    ______ ____
ROOT
ATOM      1  C   UNL     1     -32.429 100.755  14.624  0.00  0.00    +0.000 C 
ATOM      2  C   UNL     1     -33.567 100.466  14.374  0.00  0.00    +0.000 C 
ENDROOT
BRANCH   1   5
ATOM      3  O   UNL     1     -30.455 100.484  16.057  0.00  0.00    +0.000 OA
ATOM      4  O   UNL     1     -28.483 100.380  17.271  0.00  0.00    +0.000 OA
ATOM      5  C   UNL     1     -31.087 101.092  14.914  0.00  0.00    +0.000 A 
ATOM      6  C   UNL     1     -30.272 101.994  14.177  0.00  0.00    +0.000 A 
ATOM      7  C   UNL     1     -28.838 102.406  14.418  0.00  0.00    +0.000 A 
ATOM      8  C   UNL     1     -28.558 101.777  15.398  0.00  0.00    +0.000 A 
ATOM      9  C   UNL     1     -29.126 100.826  16.334  0.00  0.00    +0.000 A 
ENDBRANCH   1   5
BRANCH   2  10
ATOM     10  C   UNL     1     -34.919 100.123  14.078  0.00  0.00    +0.000 A 
ATOM     11  C   UNL     1     -35.522 100.608  12.919  0.00  0.00    +0.000 A 
ATOM     12  C   UNL     1     -35.635  99.303  14.948  0.00  0.00    +0.000 A 
ATOM     13  C   UNL     1     -36.843 100.274  12.631  0.00  0.00    +0.000 A 
ATOM     14  C   UNL     1     -36.956  98.969  14.658  0.00  0.00    +0.000 A 
ATOM     15  C   UNL     1     -37.559  99.454  13.500  0.00  0.00    +0.000 A 
ENDBRANCH   2  10
TORSDOF 2
ENDMDL
MODEL 2
REMARK VINA RESULT:      -5.6      2.198      2.890
REMARK  Name = 6440856_Goniothalamin.pdbqt.pdb
REMARK  2 active torsions:
REMARK  status: ('A' for Active; 'I' for Inactive)
REMARK    1  A    between atoms: C_1  and  C_5
REMARK    2  A    between atoms: C_2  and  C_10
REMARK                            x       y       z     vdW  Elec       q    Type
REMARK                         _______ _______ _______ _____ _____    ______ ____
ROOT
ATOM      1  C   UNL     1     -33.926  99.215  15.047  0.00  0.00    +0.000 C 
ATOM      2  C   UNL     1     -35.037  99.430  14.645  0.00  0.00    +0.000 C 
ENDROOT
BRANCH   1   5
ATOM      3  O   UNL     1     -32.450  98.133  16.681  0.00  0.00    +0.000 OA
ATOM      4  O   UNL     1     -30.876  97.206  18.110  0.00  0.00    +0.000 OA
ATOM      5  C   UNL     1     -32.616  98.963  15.516  0.00  0.00    +0.000 A 
ATOM      6  C   UNL     1     -31.412  99.455  14.942  0.00  0.00    +0.000 A 
ATOM      7  C   UNL     1     -29.983  99.233  15.378  0.00  0.00    +0.000 A 
ATOM      8  C   UNL     1     -30.120  98.532  16.339  0.00  0.00    +0.000 A 
ATOM      9  C   UNL     1     -31.148  97.891  17.136  0.00  0.00    +0.000 A 
ENDBRANCH   1   5
BRANCH   2  10
ATOM     10  C   UNL     1     -36.356  99.687  14.168  0.00  0.00    +0.000 A 
ATOM     11  C   UNL     1     -37.458  99.328  14.942  0.00  0.00    +0.000 A 
ATOM     12  C   UNL     1     -36.542 100.296  12.929  0.00  0.00    +0.000 A 
ATOM     13  C   UNL     1     -38.746  99.577  14.475  0.00  0.00    +0.000 A 
ATOM     14  C   UNL     1     -37.831 100.546  12.464  0.00  0.00    +0.000 A 
ATOM     15  C   UNL     1     -38.932 100.187  13.237  0.00  0.00    +0.000 A 
ENDBRANCH   2  10
TORSDOF 2
ENDMDL
MODEL 3
REMARK VINA RESULT:      -5.3      3.878      6.906
REMARK  Name = 6440856_Goniothalamin.pdbqt.pdb
REMARK  2 active torsions:
REMARK  status: ('A' for Active; 'I' for Inactive)
REMARK    1  A    between atoms: C_1  and  C_5
REMARK    2  A    between atoms: C_2  and  C_10
REMARK                            x       y       z     vdW  Elec       q    Type
REMARK                         _______ _______ _______ _____ _____    ______ ____
ROOT
ATOM      1  C   UNL     1     -33.590  99.001  15.715  0.00  0.00    +0.000 C 
ATOM      2  C   UNL     1     -32.774  98.604  16.501  0.00  0.00    +0.000 C 
ENDROOT
BRANCH   1   5
ATOM      3  O   UNL     1     -35.869  98.880  14.813  0.00  0.00    +0.000 OA
ATOM      4  O   UNL     1     -37.960  98.933  13.811  0.00  0.00    +0.000 OA
ATOM      5  C   UNL     1     -34.553  99.465  14.790  0.00  0.00    +0.000 A 
ATOM      6  C   UNL     1     -34.355 100.479  13.813  0.00  0.00    +0.000 A 
ATOM      7  C   UNL     1     -35.325 101.030  12.794  0.00  0.00    +0.000 A 
ATOM      8  C   UNL     1     -36.313 100.392  13.018  0.00  0.00    +0.000 A 
ATOM      9  C   UNL     1     -36.814  99.348  13.892  0.00  0.00    +0.000 A 
ENDBRANCH   1   5
BRANCH   2  10
ATOM     10  C   UNL     1     -31.805  98.132  17.436  0.00  0.00    +0.000 A 
ATOM     11  C   UNL     1     -30.499  98.614  17.387  0.00  0.00    +0.000 A 
ATOM     12  C   UNL     1     -32.167  97.190  18.397  0.00  0.00    +0.000 A 
ATOM     13  C   UNL     1     -29.553  98.153  18.299  0.00  0.00    +0.000 A 
ATOM     14  C   UNL     1     -31.220  96.730  19.309  0.00  0.00    +0.000 A 
ATOM     15  C   UNL     1     -29.914  97.212  19.260  0.00  0.00    +0.000 A 
ENDBRANCH   2  10
TORSDOF 2
ENDMDL
MODEL 4
REMARK VINA RESULT:      -5.3     13.783     15.895
REMARK  Name = 6440856_Goniothalamin.pdbqt.pdb
REMARK  2 active torsions:
REMARK  status: ('A' for Active; 'I' for Inactive)
REMARK    1  A    between atoms: C_1  and  C_5
REMARK    2  A    between atoms: C_2  and  C_10
REMARK                            x       y       z     vdW  Elec       q    Type
REMARK                         _______ _______ _______ _____ _____    ______ ____
ROOT
ATOM      1  C   UNL     1     -23.637 102.208   2.759  0.00  0.00    +0.000 C 
ATOM      2  C   UNL     1     -23.885 102.778   1.732  0.00  0.00    +0.000 C 
ENDROOT
BRANCH   1   5
ATOM      3  O   UNL     1     -22.529 100.355   3.925  0.00  0.00    +0.000 OA
ATOM      4  O   UNL     1     -21.568  98.692   5.225  0.00  0.00    +0.000 OA
ATOM      5  C   UNL     1     -23.345 101.540   3.971  0.00  0.00    +0.000 A 
ATOM      6  C   UNL     1     -23.784 101.928   5.266  0.00  0.00    +0.000 A 
ATOM      7  C   UNL     1     -23.519 101.275   6.602  0.00  0.00    +0.000 A 
ATOM      8  C   UNL     1     -22.838 100.339   6.293  0.00  0.00    +0.000 A 
ATOM      9  C   UNL     1     -22.247  99.703   5.131  0.00  0.00    +0.000 A 
ENDBRANCH   1   5
BRANCH   2  10
ATOM     10  C   UNL     1     -24.180 103.455   0.511  0.00  0.00    +0.000 A 
ATOM     11  C   UNL     1     -24.941 104.622   0.529  0.00  0.00    +0.000 A 
ATOM     12  C   UNL     1     -23.707 102.947  -0.697  0.00  0.00    +0.000 A 
ATOM     13  C   UNL     1     -25.229 105.282  -0.663  0.00  0.00    +0.000 A 
ATOM     14  C   UNL     1     -23.995 103.608  -1.889  0.00  0.00    +0.000 A 
ATOM     15  C   UNL     1     -24.756 104.776  -1.871  0.00  0.00    +0.000 A 
ENDBRANCH   2  10
TORSDOF 2
ENDMDL
MODEL 5
REMARK VINA RESULT:      -5.3     12.935     15.839
REMARK  Name = 6440856_Goniothalamin.pdbqt.pdb
REMARK  2 active torsions:
REMARK  status: ('A' for Active; 'I' for Inactive)
REMARK    1  A    between atoms: C_1  and  C_5
REMARK    2  A    between atoms: C_2  and  C_10
REMARK                            x       y       z     vdW  Elec       q    Type
REMARK                         _______ _______ _______ _____ _____    ______ ____
ROOT
ATOM      1  C   UNL     1     -41.510 101.827   3.575  0.00  0.00    +0.000 C 
ATOM      2  C   UNL     1     -40.355 102.154   3.604  0.00  0.00    +0.000 C 
ENDROOT
BRANCH   1   5
ATOM      3  O   UNL     1     -43.460 101.101   2.275  0.00  0.00    +0.000 OA
ATOM      4  O   UNL     1     -45.421 100.412   1.247  0.00  0.00    +0.000 OA
ATOM      5  C   UNL     1     -42.871 101.445   3.543  0.00  0.00    +0.000 A 
ATOM      6  C   UNL     1     -43.743 101.362   4.662  0.00  0.00    +0.000 A 
ATOM      7  C   UNL     1     -45.200 100.964   4.714  0.00  0.00    +0.000 A 
ATOM      8  C   UNL     1     -45.438 100.736   3.563  0.00  0.00    +0.000 A 
ATOM      9  C   UNL     1     -44.809 100.725   2.256  0.00  0.00    +0.000 A 
ENDBRANCH   1   5
BRANCH   2  10
ATOM     10  C   UNL     1     -38.983 102.543   3.638  0.00  0.00    +0.000 A 
ATOM     11  C   UNL     1     -38.118 102.132   2.626  0.00  0.00    +0.000 A 
ATOM     12  C   UNL     1     -38.510 103.334   4.682  0.00  0.00    +0.000 A 
ATOM     13  C   UNL     1     -36.778 102.511   2.660  0.00  0.00    +0.000 A 
ATOM     14  C   UNL     1     -37.171 103.714   4.716  0.00  0.00    +0.000 A 
ATOM     15  C   UNL     1     -36.306 103.303   3.704  0.00  0.00    +0.000 A 
ENDBRANCH   2  10
TORSDOF 2
ENDMDL
MODEL 6
REMARK VINA RESULT:      -5.1     14.281     15.237
REMARK  Name = 6440856_Goniothalamin.pdbqt.pdb
REMARK  2 active torsions:
REMARK  status: ('A' for Active; 'I' for Inactive)
REMARK    1  A    between atoms: C_1  and  C_5
REMARK    2  A    between atoms: C_2  and  C_10
REMARK                            x       y       z     vdW  Elec       q    Type
REMARK                         _______ _______ _______ _____ _____    ______ ____
ROOT
ATOM      1  C   UNL     1     -22.238 100.511   4.094  0.00  0.00    +0.000 C 
ATOM      2  C   UNL     1     -22.824 101.330   3.441  0.00  0.00    +0.000 C 
ENDROOT
BRANCH   1   5
ATOM      3  O   UNL     1     -21.537  99.679   6.294  0.00  0.00    +0.000 OA
ATOM      4  O   UNL     1     -20.767  98.719   8.259  0.00  0.00    +0.000 OA
ATOM      5  C   UNL     1     -21.546  99.545   4.860  0.00  0.00    +0.000 A 
ATOM      6  C   UNL     1     -20.838  98.422   4.349  0.00  0.00    +0.000 A 
ATOM      7  C   UNL     1     -20.077  97.350   5.094  0.00  0.00    +0.000 A 
ATOM      8  C   UNL     1     -20.221  97.686   6.234  0.00  0.00    +0.000 A 
ATOM      9  C   UNL     1     -20.848  98.716   7.041  0.00  0.00    +0.000 A 
ENDBRANCH   1   5
BRANCH   2  10
ATOM     10  C   UNL     1     -23.520 102.304   2.666  0.00  0.00    +0.000 A 
ATOM     11  C   UNL     1     -23.381 102.318   1.280  0.00  0.00    +0.000 A 
ATOM     12  C   UNL     1     -24.338 103.239   3.295  0.00  0.00    +0.000 A 
ATOM     13  C   UNL     1     -24.060 103.270   0.523  0.00  0.00    +0.000 A 
ATOM     14  C   UNL     1     -25.018 104.190   2.538  0.00  0.00    +0.000 A 
ATOM     15  C   UNL     1     -24.879 104.205   1.152  0.00  0.00    +0.000 A 
ENDBRANCH   2  10
TORSDOF 2
ENDMDL
MODEL 7
REMARK VINA RESULT:      -5.1     17.011     18.989
REMARK  Name = 6440856_Goniothalamin.pdbqt.pdb
REMARK  2 active torsions:
REMARK  status: ('A' for Active; 'I' for Inactive)
REMARK    1  A    between atoms: C_1  and  C_5
REMARK    2  A    between atoms: C_2  and  C_10
REMARK                            x       y       z     vdW  Elec       q    Type
REMARK                         _______ _______ _______ _____ _____    ______ ____
ROOT
ATOM      1  C   UNL     1     -23.633 103.107  -1.284  0.00  0.00    +0.000 C 
ATOM      2  C   UNL     1     -23.803 102.909  -0.112  0.00  0.00    +0.000 C 
ENDROOT
BRANCH   1   5
ATOM      3  O   UNL     1     -24.569 103.671  -3.481  0.00  0.00    +0.000 OA
ATOM      4  O   UNL     1     -25.237 104.185  -5.641  0.00  0.00    +0.000 OA
ATOM      5  C   UNL     1     -23.431 103.337  -2.664  0.00  0.00    +0.000 A 
ATOM      6  C   UNL     1     -22.187 103.273  -3.350  0.00  0.00    +0.000 A 
ATOM      7  C   UNL     1     -21.887 103.503  -4.813  0.00  0.00    +0.000 A 
ATOM      8  C   UNL     1     -22.971 103.756  -5.254  0.00  0.00    +0.000 A 
ATOM      9  C   UNL     1     -24.356 103.896  -4.846  0.00  0.00    +0.000 A 
ENDBRANCH   1   5
BRANCH   2  10
ATOM     10  C   UNL     1     -24.006 102.673   1.280  0.00  0.00    +0.000 A 
ATOM     11  C   UNL     1     -24.520 103.683   2.089  0.00  0.00    +0.000 A 
ATOM     12  C   UNL     1     -23.689 101.432   1.828  0.00  0.00    +0.000 A 
ATOM     13  C   UNL     1     -24.717 103.453   3.449  0.00  0.00    +0.000 A 
ATOM     14  C   UNL     1     -23.887 101.202   3.188  0.00  0.00    +0.000 A 
ATOM     15  C   UNL     1     -24.402 102.212   3.997  0.00  0.00    +0.000 A 
ENDBRANCH   2  10
TORSDOF 2
ENDMDL
MODEL 8
REMARK VINA RESULT:      -5.1     12.075     13.665
REMARK  Name = 6440856_Goniothalamin.pdbqt.pdb
REMARK  2 active torsions:
REMARK  status: ('A' for Active; 'I' for Inactive)
REMARK    1  A    between atoms: C_1  and  C_5
REMARK    2  A    between atoms: C_2  and  C_10
REMARK                            x       y       z     vdW  Elec       q    Type
REMARK                         _______ _______ _______ _____ _____    ______ ____
ROOT
ATOM      1  C   UNL     1     -40.140 102.307   3.549  0.00  0.00    +0.000 C 
ATOM      2  C   UNL     1     -41.285 101.949   3.506  0.00  0.00    +0.000 C 
ENDROOT
BRANCH   1   5
ATOM      3  O   UNL     1     -38.437 103.790   4.510  0.00  0.00    +0.000 OA
ATOM      4  O   UNL     1     -36.674 105.084   5.280  0.00  0.00    +0.000 OA
ATOM      5  C   UNL     1     -38.791 102.728   3.603  0.00  0.00    +0.000 A 
ATOM      6  C   UNL     1     -37.717 102.199   2.837  0.00  0.00    +0.000 A 
ATOM      7  C   UNL     1     -36.258 102.590   2.835  0.00  0.00    +0.000 A 
ATOM      8  C   UNL     1     -36.232 103.467   3.651  0.00  0.00    +0.000 A 
ATOM      9  C   UNL     1     -37.099 104.198   4.555  0.00  0.00    +0.000 A 
ENDBRANCH   1   5
BRANCH   2  10
ATOM     10  C   UNL     1     -42.645 101.523   3.454  0.00  0.00    +0.000 A 
ATOM     11  C   UNL     1     -43.228 101.201   2.231  0.00  0.00    +0.000 A 
ATOM     12  C   UNL     1     -43.389 101.429   4.629  0.00  0.00    +0.000 A 
ATOM     13  C   UNL     1     -44.557 100.786   2.181  0.00  0.00    +0.000 A 
ATOM     14  C   UNL     1     -44.717 101.013   4.579  0.00  0.00    +0.000 A 
ATOM     15  C   UNL     1     -45.300 100.691   3.355  0.00  0.00    +0.000 A 
ENDBRANCH   2  10
TORSDOF 2
ENDMDL
MODEL 9
REMARK VINA RESULT:      -4.9     20.043     22.390
REMARK  Name = 6440856_Goniothalamin.pdbqt.pdb
REMARK  2 active torsions:
REMARK  status: ('A' for Active; 'I' for Inactive)
REMARK    1  A    between atoms: C_1  and  C_5
REMARK    2  A    between atoms: C_2  and  C_10
REMARK                            x       y       z     vdW  Elec       q    Type
REMARK                         _______ _______ _______ _____ _____    ______ ____
ROOT
ATOM      1  C   UNL     1     -50.859  94.668   4.316  0.00  0.00    +0.000 C 
ATOM      2  C   UNL     1     -50.222  95.612   3.937  0.00  0.00    +0.000 C 
ENDROOT
BRANCH   1   5
ATOM      3  O   UNL     1     -51.982  93.488   6.152  0.00  0.00    +0.000 OA
ATOM      4  O   UNL     1     -53.098  92.209   7.731  0.00  0.00    +0.000 OA
ATOM      5  C   UNL     1     -51.606  93.554   4.763  0.00  0.00    +0.000 A 
ATOM      6  C   UNL     1     -52.039  92.461   3.963  0.00  0.00    +0.000 A 
ATOM      7  C   UNL     1     -52.836  91.240   4.360  0.00  0.00    +0.000 A 
ATOM      8  C   UNL     1     -53.013  91.426   5.530  0.00  0.00    +0.000 A 
ATOM      9  C   UNL     1     -52.721  92.380   6.582  0.00  0.00    +0.000 A 
ENDBRANCH   1   5
BRANCH   2  10
ATOM     10  C   UNL     1     -49.465  96.734   3.487  0.00  0.00    +0.000 A 
ATOM     11  C   UNL     1     -48.914  96.734   2.208  0.00  0.00    +0.000 A 
ATOM     12  C   UNL     1     -49.278  97.829   4.328  0.00  0.00    +0.000 A 
ATOM     13  C   UNL     1     -48.173  97.829   1.769  0.00  0.00    +0.000 A 
ATOM     14  C   UNL     1     -48.538  98.924   3.889  0.00  0.00    +0.000 A 
ATOM     15  C   UNL     1     -47.987  98.924   2.610  0.00  0.00    +0.000 A 
ENDBRANCH   2  10
TORSDOF 2
ENDMDL
