MODEL 1
REMARK VINA RESULT:      -3.6      0.000      0.000
REMARK  Name = 649_Dihydrouracil.pdb
REMARK  0 active torsions:
REMARK  status: ('A' for Active; 'I' for Inactive)
REMARK                            x       y       z     vdW  Elec       q    Type
REMARK                         _______ _______ _______ _____ _____    ______ ____
ROOT
ATOM      1  O   UNL     1     -45.095  85.468   4.428  0.00  0.00    +0.000 OA
ATOM      2  O   UNL     1     -43.879  81.251   5.852  0.00  0.00    +0.000 OA
ATOM      3  N   UNL     1     -45.203  82.502   7.245  0.00  0.00    +0.000 N 
ATOM      4  N   UNL     1     -44.496  83.354   5.162  0.00  0.00    +0.000 N 
ATOM      5  C   UNL     1     -45.868  83.638   7.496  0.00  0.00    +0.000 A 
ATOM      6  C   UNL     1     -45.863  84.754   6.502  0.00  0.00    +0.000 A 
ATOM      7  C   UNL     1     -45.135  84.589   5.276  0.00  0.00    +0.000 A 
ATOM      8  C   UNL     1     -44.484  82.293   6.074  0.00  0.00    +0.000 A 
ATOM      9  H   UNL     1     -45.214  81.752   7.924  0.00  0.00    +0.000 HD
ATOM     10  H   UNL     1     -43.976  83.207   4.312  0.00  0.00    +0.000 HD
ENDROOT
TORSDOF 0
ENDMDL
MODEL 2
REMARK VINA RESULT:      -3.4     21.643     22.194
REMARK  Name = 649_Dihydrouracil.pdb
REMARK  0 active torsions:
REMARK  status: ('A' for Active; 'I' for Inactive)
REMARK                            x       y       z     vdW  Elec       q    Type
REMARK                         _______ _______ _______ _____ _____    ______ ____
ROOT
ATOM      1  O   UNL     1     -24.292  85.666   6.864  0.00  0.00    +0.000 OA
ATOM      2  O   UNL     1     -23.536  86.809   2.458  0.00  0.00    +0.000 OA
ATOM      3  N   UNL     1     -22.496  88.060   4.074  0.00  0.00    +0.000 N 
ATOM      4  N   UNL     1     -23.899  86.257   4.659  0.00  0.00    +0.000 N 
ATOM      5  C   UNL     1     -22.258  88.308   5.369  0.00  0.00    +0.000 A 
ATOM      6  C   UNL     1     -22.887  87.465   6.430  0.00  0.00    +0.000 A 
ATOM      7  C   UNL     1     -23.750  86.387   6.040  0.00  0.00    +0.000 A 
ATOM      8  C   UNL     1     -23.323  87.029   3.644  0.00  0.00    +0.000 A 
ATOM      9  H   UNL     1     -22.065  88.637   3.363  0.00  0.00    +0.000 HD
ATOM     10  H   UNL     1     -24.500  85.508   4.352  0.00  0.00    +0.000 HD
ENDROOT
TORSDOF 0
ENDMDL
MODEL 3
REMARK VINA RESULT:      -3.4     25.115     26.200
REMARK  Name = 649_Dihydrouracil.pdb
REMARK  0 active torsions:
REMARK  status: ('A' for Active; 'I' for Inactive)
REMARK                            x       y       z     vdW  Elec       q    Type
REMARK                         _______ _______ _______ _____ _____    ______ ____
ROOT
ATOM      1  O   UNL     1     -33.110  99.088 -13.919  0.00  0.00    +0.000 OA
ATOM      2  O   UNL     1     -37.073 100.405 -11.955  0.00  0.00    +0.000 OA
ATOM      3  N   UNL     1     -35.618  99.167 -10.687  0.00  0.00    +0.000 N 
ATOM      4  N   UNL     1     -35.094  99.739 -12.914  0.00  0.00    +0.000 N 
ATOM      5  C   UNL     1     -34.454  98.515 -10.569  0.00  0.00    +0.000 A 
ATOM      6  C   UNL     1     -33.499  98.455 -11.717  0.00  0.00    +0.000 A 
ATOM      7  C   UNL     1     -33.851  99.105 -12.948  0.00  0.00    +0.000 A 
ATOM      8  C   UNL     1     -36.005  99.812 -11.855  0.00  0.00    +0.000 A 
ATOM      9  H   UNL     1     -36.257  99.202  -9.903  0.00  0.00    +0.000 HD
ATOM     10  H   UNL     1     -35.371 100.205 -13.764  0.00  0.00    +0.000 HD
ENDROOT
TORSDOF 0
ENDMDL
MODEL 4
REMARK VINA RESULT:      -3.1     23.623     23.982
REMARK  Name = 649_Dihydrouracil.pdb
REMARK  0 active torsions:
REMARK  status: ('A' for Active; 'I' for Inactive)
REMARK                            x       y       z     vdW  Elec       q    Type
REMARK                         _______ _______ _______ _____ _____    ______ ____
ROOT
ATOM      1  O   UNL     1     -32.341  97.167  16.793  0.00  0.00    +0.000 OA
ATOM      2  O   UNL     1     -28.615  99.150  18.658  0.00  0.00    +0.000 OA
ATOM      3  N   UNL     1     -29.337  99.940  16.630  0.00  0.00    +0.000 N 
ATOM      4  N   UNL     1     -30.469  98.176  17.712  0.00  0.00    +0.000 N 
ATOM      5  C   UNL     1     -30.206  99.887  15.612  0.00  0.00    +0.000 A 
ATOM      6  C   UNL     1     -31.323  98.895  15.619  0.00  0.00    +0.000 A 
ATOM      7  C   UNL     1     -31.449  97.999  16.734  0.00  0.00    +0.000 A 
ATOM      8  C   UNL     1     -29.415  99.096  17.731  0.00  0.00    +0.000 A 
ATOM      9  H   UNL     1     -28.584 100.616  16.615  0.00  0.00    +0.000 HD
ATOM     10  H   UNL     1     -30.529  97.562  18.509  0.00  0.00    +0.000 HD
ENDROOT
TORSDOF 0
ENDMDL
MODEL 5
REMARK VINA RESULT:      -3.0      1.948      3.527
REMARK  Name = 649_Dihydrouracil.pdb
REMARK  0 active torsions:
REMARK  status: ('A' for Active; 'I' for Inactive)
REMARK                            x       y       z     vdW  Elec       q    Type
REMARK                         _______ _______ _______ _____ _____    ______ ____
ROOT
ATOM      1  O   UNL     1     -44.824  83.244   7.177  0.00  0.00    +0.000 OA
ATOM      2  O   UNL     1     -46.002  84.548   2.910  0.00  0.00    +0.000 OA
ATOM      3  N   UNL     1     -44.440  82.883   3.120  0.00  0.00    +0.000 N 
ATOM      4  N   UNL     1     -45.401  83.883   5.027  0.00  0.00    +0.000 N 
ATOM      5  C   UNL     1     -43.698  82.085   3.900  0.00  0.00    +0.000 A 
ATOM      6  C   UNL     1     -43.799  82.173   5.388  0.00  0.00    +0.000 A 
ATOM      7  C   UNL     1     -44.702  83.127   5.968  0.00  0.00    +0.000 A 
ATOM      8  C   UNL     1     -45.328  83.822   3.631  0.00  0.00    +0.000 A 
ATOM      9  H   UNL     1     -44.364  82.814   2.113  0.00  0.00    +0.000 HD
ATOM     10  H   UNL     1     -46.044  84.563   5.401  0.00  0.00    +0.000 HD
ENDROOT
TORSDOF 0
ENDMDL
MODEL 6
REMARK VINA RESULT:      -3.0     15.171     16.036
REMARK  Name = 649_Dihydrouracil.pdb
REMARK  0 active torsions:
REMARK  status: ('A' for Active; 'I' for Inactive)
REMARK                            x       y       z     vdW  Elec       q    Type
REMARK                         _______ _______ _______ _____ _____    ______ ____
ROOT
ATOM      1  O   UNL     1     -40.478  89.579  -7.572  0.00  0.00    +0.000 OA
ATOM      2  O   UNL     1     -40.555  92.899  -4.368  0.00  0.00    +0.000 OA
ATOM      3  N   UNL     1     -38.826  92.915  -5.875  0.00  0.00    +0.000 N 
ATOM      4  N   UNL     1     -40.498  91.255  -5.972  0.00  0.00    +0.000 N 
ATOM      5  C   UNL     1     -38.209  92.371  -6.932  0.00  0.00    +0.000 A 
ATOM      6  C   UNL     1     -38.768  91.153  -7.591  0.00  0.00    +0.000 A 
ATOM      7  C   UNL     1     -39.977  90.575  -7.074  0.00  0.00    +0.000 A 
ATOM      8  C   UNL     1     -39.997  92.395  -5.336  0.00  0.00    +0.000 A 
ATOM      9  H   UNL     1     -38.439  93.741  -5.436  0.00  0.00    +0.000 HD
ATOM     10  H   UNL     1     -41.347  90.874  -5.585  0.00  0.00    +0.000 HD
ENDROOT
TORSDOF 0
ENDMDL
MODEL 7
REMARK VINA RESULT:      -3.0     31.139     31.312
REMARK  Name = 649_Dihydrouracil.pdb
REMARK  0 active torsions:
REMARK  status: ('A' for Active; 'I' for Inactive)
REMARK                            x       y       z     vdW  Elec       q    Type
REMARK                         _______ _______ _______ _____ _____    ______ ____
ROOT
ATOM      1  O   UNL     1     -19.346  91.030  22.790  0.00  0.00    +0.000 OA
ATOM      2  O   UNL     1     -19.967  92.956  18.643  0.00  0.00    +0.000 OA
ATOM      3  N   UNL     1     -19.295  94.321  20.359  0.00  0.00    +0.000 N 
ATOM      4  N   UNL     1     -19.652  92.017  20.716  0.00  0.00    +0.000 N 
ATOM      5  C   UNL     1     -18.957  94.479  21.645  0.00  0.00    +0.000 A 
ATOM      6  C   UNL     1     -18.958  93.312  22.578  0.00  0.00    +0.000 A 
ATOM      7  C   UNL     1     -19.327  92.019  22.073  0.00  0.00    +0.000 A 
ATOM      8  C   UNL     1     -19.659  93.092  19.821  0.00  0.00    +0.000 A 
ATOM      9  H   UNL     1     -19.290  95.118  19.735  0.00  0.00    +0.000 HD
ATOM     10  H   UNL     1     -19.916  91.124  20.330  0.00  0.00    +0.000 HD
ENDROOT
TORSDOF 0
ENDMDL
MODEL 8
REMARK VINA RESULT:      -2.9     19.362     20.094
REMARK  Name = 649_Dihydrouracil.pdb
REMARK  0 active torsions:
REMARK  status: ('A' for Active; 'I' for Inactive)
REMARK                            x       y       z     vdW  Elec       q    Type
REMARK                         _______ _______ _______ _____ _____    ______ ____
ROOT
ATOM      1  O   UNL     1     -41.194 101.542   2.729  0.00  0.00    +0.000 OA
ATOM      2  O   UNL     1     -36.650 102.340   2.639  0.00  0.00    +0.000 OA
ATOM      3  N   UNL     1     -37.815 103.038   4.487  0.00  0.00    +0.000 N 
ATOM      4  N   UNL     1     -38.914 101.952   2.704  0.00  0.00    +0.000 N 
ATOM      5  C   UNL     1     -38.975 103.150   5.147  0.00  0.00    +0.000 A 
ATOM      6  C   UNL     1     -40.240 102.621   4.553  0.00  0.00    +0.000 A 
ATOM      7  C   UNL     1     -40.191 101.992   3.263  0.00  0.00    +0.000 A 
ATOM      8  C   UNL     1     -37.715 102.438   3.237  0.00  0.00    +0.000 A 
ATOM      9  H   UNL     1     -36.964 103.399   4.899  0.00  0.00    +0.000 HD
ATOM     10  H   UNL     1     -38.845 101.516   1.798  0.00  0.00    +0.000 HD
ENDROOT
TORSDOF 0
ENDMDL
MODEL 9
REMARK VINA RESULT:      -2.9      2.112      2.557
REMARK  Name = 649_Dihydrouracil.pdb
REMARK  0 active torsions:
REMARK  status: ('A' for Active; 'I' for Inactive)
REMARK                            x       y       z     vdW  Elec       q    Type
REMARK                         _______ _______ _______ _____ _____    ______ ____
ROOT
ATOM      1  O   UNL     1     -45.195  84.358   3.829  0.00  0.00    +0.000 OA
ATOM      2  O   UNL     1     -48.396  83.394   7.010  0.00  0.00    +0.000 OA
ATOM      3  N   UNL     1     -46.288  82.551   7.333  0.00  0.00    +0.000 N 
ATOM      4  N   UNL     1     -46.787  83.863   5.437  0.00  0.00    +0.000 N 
ATOM      5  C   UNL     1     -45.021  82.416   6.920  0.00  0.00    +0.000 A 
ATOM      6  C   UNL     1     -44.567  83.055   5.648  0.00  0.00    +0.000 A 
ATOM      7  C   UNL     1     -45.510  83.815   4.876  0.00  0.00    +0.000 A 
ATOM      8  C   UNL     1     -47.239  83.276   6.624  0.00  0.00    +0.000 A 
ATOM      9  H   UNL     1     -46.585  82.115   8.197  0.00  0.00    +0.000 HD
ATOM     10  H   UNL     1     -47.473  84.389   4.920  0.00  0.00    +0.000 HD
ENDROOT
TORSDOF 0
ENDMDL
