MODEL 1
REMARK VINA RESULT:      -7.6      0.000      0.000
REMARK  Name = 6509753_ManzamineA.pdbqt.pdb
REMARK  2 active torsions:
REMARK  status: ('A' for Active; 'I' for Inactive)
REMARK    1  A    between atoms: C_7  and  O_42
REMARK    2  A    between atoms: C_11  and  C_30
REMARK                            x       y       z     vdW  Elec       q    Type
REMARK                         _______ _______ _______ _____ _____    ______ ____
ROOT
ATOM      1  N   UNL     1     -31.391  98.687  21.416  0.00  0.00    +0.000 N 
ATOM      2  N   UNL     1     -32.398 103.117  19.365  0.00  0.00    +0.000 N 
ATOM      3  C   UNL     1     -32.867 100.471  20.390  0.00  0.00    +0.000 C 
ATOM      4  C   UNL     1     -32.046  99.159  20.169  0.00  0.00    +0.000 C 
ATOM      5  C   UNL     1     -34.378 100.522  19.919  0.00  0.00    +0.000 C 
ATOM      6  C   UNL     1     -32.776 100.478  21.847  0.00  0.00    +0.000 C 
ATOM      7  C   UNL     1     -32.587  98.100  19.205  0.00  0.00    +0.000 C 
ATOM      8  C   UNL     1     -32.208 101.707  19.841  0.00  0.00    +0.000 C 
ATOM      9  C   UNL     1     -31.814  99.650  22.457  0.00  0.00    +0.000 C 
ATOM     10  C   UNL     1     -34.801 101.838  19.512  0.00  0.00    +0.000 C 
ATOM     11  C   UNL     1     -34.900  99.357  19.217  0.00  0.00    +0.000 C 
ATOM     12  C   UNL     1     -33.970  98.481  19.003  0.00  0.00    +0.000 C 
ATOM     13  C   UNL     1     -33.858 103.010  19.222  0.00  0.00    +0.000 C 
ATOM     14  C   UNL     1     -29.936  98.598  21.274  0.00  0.00    +0.000 C 
ATOM     15  C   UNL     1     -31.785  98.063  17.985  0.00  0.00    +0.000 C 
ATOM     16  C   UNL     1     -30.941 100.036  23.518  0.00  0.00    +0.000 C 
ATOM     17  C   UNL     1     -31.816 103.221  18.038  0.00  0.00    +0.000 C 
ATOM     18  C   UNL     1     -28.450  98.731  21.657  0.00  0.00    +0.000 C 
ATOM     19  C   UNL     1     -30.994  98.200  16.682  0.00  0.00    +0.000 C 
ATOM     20  C   UNL     1     -29.898 100.204  24.089  0.00  0.00    +0.000 C 
ATOM     21  C   UNL     1     -27.688  99.318  22.844  0.00  0.00    +0.000 C 
ATOM     22  C   UNL     1     -31.145 103.152  16.663  0.00  0.00    +0.000 C 
ATOM     23  C   UNL     1     -28.382 100.007  24.013  0.00  0.00    +0.000 C 
ATOM     24  C   UNL     1     -30.319  98.828  15.466  0.00  0.00    +0.000 C 
ATOM     25  C   UNL     1     -30.475 102.562  15.426  0.00  0.00    +0.000 C 
ATOM     26  C   UNL     1     -30.014 101.316  14.688  0.00  0.00    +0.000 C 
ATOM     27  C   UNL     1     -30.018  99.804  14.842  0.00  0.00    +0.000 C 
ENDROOT
BRANCH  11  30
ATOM     28  N   UNL     1     -37.267  98.868  19.427  0.00  0.00    +0.000 NA
ATOM     29  N   UNL     1     -35.583  99.813  16.271  0.00  0.00    +0.000 N 
ATOM     30  C   UNL     1     -36.229  99.222  18.637  0.00  0.00    +0.000 A 
ATOM     31  C   UNL     1     -36.443  99.438  17.278  0.00  0.00    +0.000 A 
ATOM     32  C   UNL     1     -37.708  99.297  16.704  0.00  0.00    +0.000 A 
ATOM     33  C   UNL     1     -38.487  98.733  18.865  0.00  0.00    +0.000 A 
ATOM     34  C   UNL     1     -38.785  98.926  17.523  0.00  0.00    +0.000 A 
ATOM     35  C   UNL     1     -37.582  99.590  15.311  0.00  0.00    +0.000 A 
ATOM     36  C   UNL     1     -36.247  99.908  15.071  0.00  0.00    +0.000 A 
ATOM     37  C   UNL     1     -38.487  99.615  14.234  0.00  0.00    +0.000 A 
ATOM     38  C   UNL     1     -35.762 100.254  13.806  0.00  0.00    +0.000 A 
ATOM     39  C   UNL     1     -38.022  99.958  12.962  0.00  0.00    +0.000 A 
ATOM     40  C   UNL     1     -36.683 100.271  12.756  0.00  0.00    +0.000 A 
ATOM     41  H   UNL     1     -34.598 100.003  16.394  0.00  0.00    +0.000 HD
ENDBRANCH  11  30
BRANCH   7  42
ATOM     42  O   UNL     1     -32.574  96.814  19.807  0.00  0.00    +0.000 OA
ATOM     43  H   UNL     1     -32.624  96.174  19.076  0.00  0.00    +0.000 HD
ENDBRANCH   7  42
TORSDOF 2
ENDMDL
MODEL 2
REMARK VINA RESULT:      -7.4     15.819     20.145
REMARK  Name = 6509753_ManzamineA.pdbqt.pdb
REMARK  2 active torsions:
REMARK  status: ('A' for Active; 'I' for Inactive)
REMARK    1  A    between atoms: C_7  and  O_42
REMARK    2  A    between atoms: C_11  and  C_30
REMARK                            x       y       z     vdW  Elec       q    Type
REMARK                         _______ _______ _______ _____ _____    ______ ____
ROOT
ATOM      1  N   UNL     1     -44.128 103.120   4.428  0.00  0.00    +0.000 N 
ATOM      2  N   UNL     1     -42.573 101.057   0.165  0.00  0.00    +0.000 N 
ATOM      3  C   UNL     1     -42.421 102.203   2.799  0.00  0.00    +0.000 C 
ATOM      4  C   UNL     1     -43.137 103.467   3.377  0.00  0.00    +0.000 C 
ATOM      5  C   UNL     1     -40.837 102.168   2.756  0.00  0.00    +0.000 C 
ATOM      6  C   UNL     1     -42.935 101.257   3.784  0.00  0.00    +0.000 C 
ATOM      7  C   UNL     1     -42.335 104.759   3.553  0.00  0.00    +0.000 C 
ATOM      8  C   UNL     1     -42.891 101.804   1.426  0.00  0.00    +0.000 C 
ATOM      9  C   UNL     1     -44.031 101.650   4.574  0.00  0.00    +0.000 C 
ATOM     10  C   UNL     1     -40.316 101.397   1.656  0.00  0.00    +0.000 C 
ATOM     11  C   UNL     1     -40.130 103.368   3.184  0.00  0.00    +0.000 C 
ATOM     12  C   UNL     1     -40.954 104.333   3.443  0.00  0.00    +0.000 C 
ATOM     13  C   UNL     1     -41.135 100.931   0.448  0.00  0.00    +0.000 C 
ATOM     14  C   UNL     1     -45.478 103.575   4.083  0.00  0.00    +0.000 C 
ATOM     15  C   UNL     1     -42.743 105.752   2.565  0.00  0.00    +0.000 C 
ATOM     16  C   UNL     1     -45.179 100.851   4.858  0.00  0.00    +0.000 C 
ATOM     17  C   UNL     1     -42.740 101.976  -0.949  0.00  0.00    +0.000 C 
ATOM     18  C   UNL     1     -47.011 103.530   3.942  0.00  0.00    +0.000 C 
ATOM     19  C   UNL     1     -43.117 106.672   1.400  0.00  0.00    +0.000 C 
ATOM     20  C   UNL     1     -46.344 100.565   4.917  0.00  0.00    +0.000 C 
ATOM     21  C   UNL     1     -48.089 102.478   4.200  0.00  0.00    +0.000 C 
ATOM     22  C   UNL     1     -42.978 103.068  -1.996  0.00  0.00    +0.000 C 
ATOM     23  C   UNL     1     -47.770 101.067   4.680  0.00  0.00    +0.000 C 
ATOM     24  C   UNL     1     -43.406 107.156  -0.018  0.00  0.00    +0.000 C 
ATOM     25  C   UNL     1     -43.253 104.447  -2.587  0.00  0.00    +0.000 C 
ATOM     26  C   UNL     1     -43.475 105.929  -2.336  0.00  0.00    +0.000 C 
ATOM     27  C   UNL     1     -43.513 106.922  -1.187  0.00  0.00    +0.000 C 
ENDROOT
BRANCH  11  30
ATOM     28  N   UNL     1     -37.950 103.259   4.242  0.00  0.00    +0.000 NA
ATOM     29  N   UNL     1     -38.567 104.504   0.812  0.00  0.00    +0.000 N 
ATOM     30  C   UNL     1     -38.689 103.577   3.156  0.00  0.00    +0.000 A 
ATOM     31  C   UNL     1     -38.064 104.113   2.032  0.00  0.00    +0.000 A 
ATOM     32  C   UNL     1     -36.686 104.334   1.996  0.00  0.00    +0.000 A 
ATOM     33  C   UNL     1     -36.617 103.476   4.199  0.00  0.00    +0.000 A 
ATOM     34  C   UNL     1     -35.918 104.008   3.124  0.00  0.00    +0.000 A 
ATOM     35  C   UNL     1     -36.373 104.882   0.714  0.00  0.00    +0.000 A 
ATOM     36  C   UNL     1     -37.565 104.976  -0.001  0.00  0.00    +0.000 A 
ATOM     37  C   UNL     1     -35.180 105.304   0.098  0.00  0.00    +0.000 A 
ATOM     38  C   UNL     1     -37.632 105.470  -1.308  0.00  0.00    +0.000 A 
ATOM     39  C   UNL     1     -35.226 105.802  -1.206  0.00  0.00    +0.000 A 
ATOM     40  C   UNL     1     -36.432 105.881  -1.893  0.00  0.00    +0.000 A 
ATOM     41  H   UNL     1     -39.539 104.445   0.543  0.00  0.00    +0.000 HD
ENDBRANCH  11  30
BRANCH   7  42
ATOM     42  O   UNL     1     -42.521 105.296   4.855  0.00  0.00    +0.000 OA
ATOM     43  H   UNL     1     -41.894 106.036   4.932  0.00  0.00    +0.000 HD
ENDBRANCH   7  42
TORSDOF 2
ENDMDL
MODEL 3
REMARK VINA RESULT:      -7.4      2.137      5.338
REMARK  Name = 6509753_ManzamineA.pdbqt.pdb
REMARK  2 active torsions:
REMARK  status: ('A' for Active; 'I' for Inactive)
REMARK    1  A    between atoms: C_7  and  O_42
REMARK    2  A    between atoms: C_11  and  C_30
REMARK                            x       y       z     vdW  Elec       q    Type
REMARK                         _______ _______ _______ _____ _____    ______ ____
ROOT
ATOM      1  N   UNL     1     -30.105 100.082  21.523  0.00  0.00    +0.000 N 
ATOM      2  N   UNL     1     -32.879  96.233  19.994  0.00  0.00    +0.000 N 
ATOM      3  C   UNL     1     -31.239  98.589  19.820  0.00  0.00    +0.000 C 
ATOM      4  C   UNL     1     -31.300  99.908  20.657  0.00  0.00    +0.000 C 
ATOM      5  C   UNL     1     -31.455  98.662  18.252  0.00  0.00    +0.000 C 
ATOM      6  C   UNL     1     -29.853  98.256  20.139  0.00  0.00    +0.000 C 
ATOM      7  C   UNL     1     -31.907 101.162  20.023  0.00  0.00    +0.000 C 
ATOM      8  C   UNL     1     -32.146  97.499  20.324  0.00  0.00    +0.000 C 
ATOM      9  C   UNL     1     -29.244  98.915  21.223  0.00  0.00    +0.000 C 
ATOM     10  C   UNL     1     -32.064  97.475  17.708  0.00  0.00    +0.000 C 
ATOM     11  C   UNL     1     -31.789  99.960  17.683  0.00  0.00    +0.000 C 
ATOM     12  C   UNL     1     -31.957 100.851  18.609  0.00  0.00    +0.000 C 
ATOM     13  C   UNL     1     -32.753  96.386  18.537  0.00  0.00    +0.000 C 
ATOM     14  C   UNL     1     -30.461 100.183  22.940  0.00  0.00    +0.000 C 
ATOM     15  C   UNL     1     -33.204 101.461  20.623  0.00  0.00    +0.000 C 
ATOM     16  C   UNL     1     -28.452  98.293  22.233  0.00  0.00    +0.000 C 
ATOM     17  C   UNL     1     -34.274  96.422  20.354  0.00  0.00    +0.000 C 
ATOM     18  C   UNL     1     -30.367  99.951  24.460  0.00  0.00    +0.000 C 
ATOM     19  C   UNL     1     -34.617 101.609  21.191  0.00  0.00    +0.000 C 
ATOM     20  C   UNL     1     -28.110  97.989  23.345  0.00  0.00    +0.000 C 
ATOM     21  C   UNL     1     -29.478  99.105  25.370  0.00  0.00    +0.000 C 
ATOM     22  C   UNL     1     -35.692  96.788  20.802  0.00  0.00    +0.000 C 
ATOM     23  C   UNL     1     -28.390  98.180  24.837  0.00  0.00    +0.000 C 
ATOM     24  C   UNL     1     -36.035 101.260  21.635  0.00  0.00    +0.000 C 
ATOM     25  C   UNL     1     -36.864  97.632  21.296  0.00  0.00    +0.000 C 
ATOM     26  C   UNL     1     -37.377  99.006  21.694  0.00  0.00    +0.000 C 
ATOM     27  C   UNL     1     -36.899 100.445  21.787  0.00  0.00    +0.000 C 
ENDROOT
BRANCH  11  30
ATOM     28  N   UNL     1     -31.133 100.717  15.474  0.00  0.00    +0.000 NA
ATOM     29  N   UNL     1     -34.524  99.546  16.377  0.00  0.00    +0.000 N 
ATOM     30  C   UNL     1     -32.100 100.237  16.288  0.00  0.00    +0.000 A 
ATOM     31  C   UNL     1     -33.381 100.029  15.782  0.00  0.00    +0.000 A 
ATOM     32  C   UNL     1     -33.698 100.304  14.451  0.00  0.00    +0.000 A 
ATOM     33  C   UNL     1     -31.447 100.981  14.187  0.00  0.00    +0.000 A 
ATOM     34  C   UNL     1     -32.695 100.805  13.606  0.00  0.00    +0.000 A 
ATOM     35  C   UNL     1     -35.077  99.981  14.262  0.00  0.00    +0.000 A 
ATOM     36  C   UNL     1     -35.565  99.510  15.479  0.00  0.00    +0.000 A 
ATOM     37  C   UNL     1     -35.951 100.043  13.161  0.00  0.00    +0.000 A 
ATOM     38  C   UNL     1     -36.888  99.095  15.660  0.00  0.00    +0.000 A 
ATOM     39  C   UNL     1     -37.277  99.634  13.322  0.00  0.00    +0.000 A 
ATOM     40  C   UNL     1     -37.732  99.168  14.551  0.00  0.00    +0.000 A 
ATOM     41  H   UNL     1     -34.592  99.247  17.340  0.00  0.00    +0.000 HD
ENDBRANCH  11  30
BRANCH   7  42
ATOM     42  O   UNL     1     -31.049 102.281  20.191  0.00  0.00    +0.000 OA
ATOM     43  H   UNL     1     -30.336 101.986  20.783  0.00  0.00    +0.000 HD
ENDBRANCH   7  42
TORSDOF 2
ENDMDL
MODEL 4
REMARK VINA RESULT:      -7.4     15.527     18.272
REMARK  Name = 6509753_ManzamineA.pdbqt.pdb
REMARK  2 active torsions:
REMARK  status: ('A' for Active; 'I' for Inactive)
REMARK    1  A    between atoms: C_7  and  O_42
REMARK    2  A    between atoms: C_11  and  C_30
REMARK                            x       y       z     vdW  Elec       q    Type
REMARK                         _______ _______ _______ _____ _____    ______ ____
ROOT
ATOM      1  N   UNL     1     -21.262  99.641   6.140  0.00  0.00    +0.000 N 
ATOM      2  N   UNL     1     -18.754 103.533   4.296  0.00  0.00    +0.000 N 
ATOM      3  C   UNL     1     -20.540 102.064   6.006  0.00  0.00    +0.000 C 
ATOM      4  C   UNL     1     -21.616 100.992   5.634  0.00  0.00    +0.000 C 
ATOM      5  C   UNL     1     -21.000 103.398   6.725  0.00  0.00    +0.000 C 
ATOM      6  C   UNL     1     -19.774 101.219   6.917  0.00  0.00    +0.000 C 
ATOM      7  C   UNL     1     -23.094 101.391   5.643  0.00  0.00    +0.000 C 
ATOM      8  C   UNL     1     -19.666 102.481   4.854  0.00  0.00    +0.000 C 
ATOM      9  C   UNL     1     -19.993  99.829   6.877  0.00  0.00    +0.000 C 
ATOM     10  C   UNL     1     -20.172 104.532   6.399  0.00  0.00    +0.000 C 
ATOM     11  C   UNL     1     -22.429 103.593   6.925  0.00  0.00    +0.000 C 
ATOM     12  C   UNL     1     -23.116 102.645   6.367  0.00  0.00    +0.000 C 
ATOM     13  C   UNL     1     -19.170 104.580   5.241  0.00  0.00    +0.000 C 
ATOM     14  C   UNL     1     -21.158  98.658   5.059  0.00  0.00    +0.000 C 
ATOM     15  C   UNL     1     -23.609 101.470   4.279  0.00  0.00    +0.000 C 
ATOM     16  C   UNL     1     -18.975  98.829   6.880  0.00  0.00    +0.000 C 
ATOM     17  C   UNL     1     -19.244 103.890   2.975  0.00  0.00    +0.000 C 
ATOM     18  C   UNL     1     -20.593  97.476   4.249  0.00  0.00    +0.000 C 
ATOM     19  C   UNL     1     -24.022 101.683   2.821  0.00  0.00    +0.000 C 
ATOM     20  C   UNL     1     -18.360  97.871   6.494  0.00  0.00    +0.000 C 
ATOM     21  C   UNL     1     -19.361  96.580   4.361  0.00  0.00    +0.000 C 
ATOM     22  C   UNL     1     -19.888 104.129   1.606  0.00  0.00    +0.000 C 
ATOM     23  C   UNL     1     -18.303  96.760   5.444  0.00  0.00    +0.000 C 
ATOM     24  C   UNL     1     -23.998 102.162   1.372  0.00  0.00    +0.000 C 
ATOM     25  C   UNL     1     -20.902 104.049   0.468  0.00  0.00    +0.000 C 
ATOM     26  C   UNL     1     -22.248 103.538  -0.017  0.00  0.00    +0.000 C 
ATOM     27  C   UNL     1     -23.443 102.747   0.487  0.00  0.00    +0.000 C 
ENDROOT
BRANCH  11  30
ATOM     28  N   UNL     1     -22.875 105.069   8.797  0.00  0.00    +0.000 NA
ATOM     29  N   UNL     1     -24.242 105.519   5.388  0.00  0.00    +0.000 N 
ATOM     30  C   UNL     1     -23.070 104.770   7.493  0.00  0.00    +0.000 A 
ATOM     31  C   UNL     1     -23.891 105.585   6.717  0.00  0.00    +0.000 A 
ATOM     32  C   UNL     1     -24.525 106.708   7.252  0.00  0.00    +0.000 A 
ATOM     33  C   UNL     1     -23.491 106.157   9.307  0.00  0.00    +0.000 A 
ATOM     34  C   UNL     1     -24.326 107.017   8.606  0.00  0.00    +0.000 A 
ATOM     35  C   UNL     1     -25.280 107.316   6.202  0.00  0.00    +0.000 A 
ATOM     36  C   UNL     1     -25.084 106.552   5.053  0.00  0.00    +0.000 A 
ATOM     37  C   UNL     1     -26.110 108.449   6.127  0.00  0.00    +0.000 A 
ATOM     38  C   UNL     1     -25.675 106.861   3.824  0.00  0.00    +0.000 A 
ATOM     39  C   UNL     1     -26.710 108.774   4.908  0.00  0.00    +0.000 A 
ATOM     40  C   UNL     1     -26.493 107.992   3.779  0.00  0.00    +0.000 A 
ATOM     41  H   UNL     1     -23.919 104.814   4.740  0.00  0.00    +0.000 HD
ENDBRANCH  11  30
BRANCH   7  42
ATOM     42  O   UNL     1     -23.867 100.453   6.377  0.00  0.00    +0.000 OA
ATOM     43  H   UNL     1     -23.776 100.703   7.312  0.00  0.00    +0.000 HD
ENDBRANCH   7  42
TORSDOF 2
ENDMDL
MODEL 5
REMARK VINA RESULT:      -7.4     14.764     17.523
REMARK  Name = 6509753_ManzamineA.pdbqt.pdb
REMARK  2 active torsions:
REMARK  status: ('A' for Active; 'I' for Inactive)
REMARK    1  A    between atoms: C_7  and  O_42
REMARK    2  A    between atoms: C_11  and  C_30
REMARK                            x       y       z     vdW  Elec       q    Type
REMARK                         _______ _______ _______ _____ _____    ______ ____
ROOT
ATOM      1  N   UNL     1     -36.593 105.228   4.922  0.00  0.00    +0.000 N 
ATOM      2  N   UNL     1     -39.879 107.961   2.357  0.00  0.00    +0.000 N 
ATOM      3  C   UNL     1     -38.807 105.711   3.793  0.00  0.00    +0.000 C 
ATOM      4  C   UNL     1     -37.398 105.043   3.687  0.00  0.00    +0.000 C 
ATOM      5  C   UNL     1     -40.095 104.848   3.465  0.00  0.00    +0.000 C 
ATOM      6  C   UNL     1     -38.737 106.018   5.219  0.00  0.00    +0.000 C 
ATOM      7  C   UNL     1     -37.262 103.713   2.942  0.00  0.00    +0.000 C 
ATOM      8  C   UNL     1     -38.941 106.990   3.011  0.00  0.00    +0.000 C 
ATOM      9  C   UNL     1     -37.479 105.968   5.848  0.00  0.00    +0.000 C 
ATOM     10  C   UNL     1     -41.174 105.628   2.914  0.00  0.00    +0.000 C 
ATOM     11  C   UNL     1     -39.885 103.487   2.992  0.00  0.00    +0.000 C 
ATOM     12  C   UNL     1     -38.625 103.237   2.819  0.00  0.00    +0.000 C 
ATOM     13  C   UNL     1     -41.036 107.053   2.370  0.00  0.00    +0.000 C 
ATOM     14  C   UNL     1     -35.331 105.923   4.657  0.00  0.00    +0.000 C 
ATOM     15  C   UNL     1     -36.572 103.908   1.670  0.00  0.00    +0.000 C 
ATOM     16  C   UNL     1     -36.965 106.943   6.754  0.00  0.00    +0.000 C 
ATOM     17  C   UNL     1     -39.449 108.134   0.980  0.00  0.00    +0.000 C 
ATOM     18  C   UNL     1     -34.166 106.908   4.874  0.00  0.00    +0.000 C 
ATOM     19  C   UNL     1     -35.988 104.227   0.292  0.00  0.00    +0.000 C 
ATOM     20  C   UNL     1     -36.189 107.748   7.194  0.00  0.00    +0.000 C 
ATOM     21  C   UNL     1     -33.857 108.009   5.886  0.00  0.00    +0.000 C 
ATOM     22  C   UNL     1     -38.851 108.206  -0.428  0.00  0.00    +0.000 C 
ATOM     23  C   UNL     1     -34.818 108.399   7.004  0.00  0.00    +0.000 C 
ATOM     24  C   UNL     1     -35.772 104.899  -1.061  0.00  0.00    +0.000 C 
ATOM     25  C   UNL     1     -37.966 107.872  -1.625  0.00  0.00    +0.000 C 
ATOM     26  C   UNL     1     -36.892 106.973  -2.215  0.00  0.00    +0.000 C 
ATOM     27  C   UNL     1     -36.060 105.757  -1.845  0.00  0.00    +0.000 C 
ENDROOT
BRANCH  11  30
ATOM     28  N   UNL     1     -40.752 101.860   1.416  0.00  0.00    +0.000 NA
ATOM     29  N   UNL     1     -42.482 102.926   4.508  0.00  0.00    +0.000 N 
ATOM     30  C   UNL     1     -40.916 102.552   2.565  0.00  0.00    +0.000 A 
ATOM     31  C   UNL     1     -42.075 102.370   3.317  0.00  0.00    +0.000 A 
ATOM     32  C   UNL     1     -43.080 101.489   2.913  0.00  0.00    +0.000 A 
ATOM     33  C   UNL     1     -41.729 101.009   1.032  0.00  0.00    +0.000 A 
ATOM     34  C   UNL     1     -42.912 100.772   1.718  0.00  0.00    +0.000 A 
ATOM     35  C   UNL     1     -44.114 101.537   3.897  0.00  0.00    +0.000 A 
ATOM     36  C   UNL     1     -43.713 102.441   4.879  0.00  0.00    +0.000 A 
ATOM     37  C   UNL     1     -45.355 100.889   4.041  0.00  0.00    +0.000 A 
ATOM     38  C   UNL     1     -44.488 102.735   6.005  0.00  0.00    +0.000 A 
ATOM     39  C   UNL     1     -46.144 101.171   5.159  0.00  0.00    +0.000 A 
ATOM     40  C   UNL     1     -45.714 102.077   6.121  0.00  0.00    +0.000 A 
ATOM     41  H   UNL     1     -41.946 103.593   5.046  0.00  0.00    +0.000 HD
ENDBRANCH  11  30
BRANCH   7  42
ATOM     42  O   UNL     1     -36.541 102.768   3.719  0.00  0.00    +0.000 OA
ATOM     43  H   UNL     1     -35.687 103.185   3.925  0.00  0.00    +0.000 HD
ENDBRANCH   7  42
TORSDOF 2
ENDMDL
MODEL 6
REMARK VINA RESULT:      -7.3     22.414     27.029
REMARK  Name = 6509753_ManzamineA.pdbqt.pdb
REMARK  2 active torsions:
REMARK  status: ('A' for Active; 'I' for Inactive)
REMARK    1  A    between atoms: C_7  and  O_42
REMARK    2  A    between atoms: C_11  and  C_30
REMARK                            x       y       z     vdW  Elec       q    Type
REMARK                         _______ _______ _______ _____ _____    ______ ____
ROOT
ATOM      1  N   UNL     1     -23.667 101.203  -7.809  0.00  0.00    +0.000 N 
ATOM      2  N   UNL     1     -20.700 105.092  -6.853  0.00  0.00    +0.000 N 
ATOM      3  C   UNL     1     -22.462 102.877  -6.341  0.00  0.00    +0.000 C 
ATOM      4  C   UNL     1     -23.793 102.479  -7.058  0.00  0.00    +0.000 C 
ATOM      5  C   UNL     1     -22.493 103.219  -4.794  0.00  0.00    +0.000 C 
ATOM      6  C   UNL     1     -21.762 101.619  -6.582  0.00  0.00    +0.000 C 
ATOM      7  C   UNL     1     -25.126 102.766  -6.361  0.00  0.00    +0.000 C 
ATOM      8  C   UNL     1     -21.717 104.001  -7.010  0.00  0.00    +0.000 C 
ATOM      9  C   UNL     1     -22.285 100.743  -7.552  0.00  0.00    +0.000 C 
ATOM     10  C   UNL     1     -21.501 104.190  -4.408  0.00  0.00    +0.000 C 
ATOM     11  C   UNL     1     -23.793 103.227  -4.137  0.00  0.00    +0.000 C 
ATOM     12  C   UNL     1     -24.752 103.042  -4.989  0.00  0.00    +0.000 C 
ATOM     13  C   UNL     1     -20.716 105.074  -5.382  0.00  0.00    +0.000 C 
ATOM     14  C   UNL     1     -23.959 101.373  -9.235  0.00  0.00    +0.000 C 
ATOM     15  C   UNL     1     -25.826 103.858  -7.029  0.00  0.00    +0.000 C 
ATOM     16  C   UNL     1     -21.526 100.063  -8.550  0.00  0.00    +0.000 C 
ATOM     17  C   UNL     1     -21.309 106.334  -7.301  0.00  0.00    +0.000 C 
ATOM     18  C   UNL     1     -23.808 101.198 -10.758  0.00  0.00    +0.000 C 
ATOM     19  C   UNL     1     -26.414 105.108  -7.688  0.00  0.00    +0.000 C 
ATOM     20  C   UNL     1     -21.208  99.713  -9.655  0.00  0.00    +0.000 C 
ATOM     21  C   UNL     1     -22.802 100.499 -11.670  0.00  0.00    +0.000 C 
ATOM     22  C   UNL     1     -22.098 107.538  -7.821  0.00  0.00    +0.000 C 
ATOM     23  C   UNL     1     -21.568  99.776 -11.141  0.00  0.00    +0.000 C 
ATOM     24  C   UNL     1     -26.522 106.515  -8.269  0.00  0.00    +0.000 C 
ATOM     25  C   UNL     1     -23.276 108.367  -8.325  0.00  0.00    +0.000 C 
ATOM     26  C   UNL     1     -24.763 108.428  -8.635  0.00  0.00    +0.000 C 
ATOM     27  C   UNL     1     -26.004 107.555  -8.560  0.00  0.00    +0.000 C 
ENDROOT
BRANCH  11  30
ATOM     28  N   UNL     1     -23.499 102.855  -1.758  0.00  0.00    +0.000 NA
ATOM     29  N   UNL     1     -25.561 105.552  -3.229  0.00  0.00    +0.000 N 
ATOM     30  C   UNL     1     -24.057 103.583  -2.750  0.00  0.00    +0.000 A 
ATOM     31  C   UNL     1     -24.888 104.655  -2.431  0.00  0.00    +0.000 A 
ATOM     32  C   UNL     1     -25.164 105.000  -1.107  0.00  0.00    +0.000 A 
ATOM     33  C   UNL     1     -23.770 103.194  -0.479  0.00  0.00    +0.000 A 
ATOM     34  C   UNL     1     -24.587 104.241  -0.076  0.00  0.00    +0.000 A 
ATOM     35  C   UNL     1     -26.035 106.131  -1.130  0.00  0.00    +0.000 A 
ATOM     36  C   UNL     1     -26.265 106.453  -2.466  0.00  0.00    +0.000 A 
ATOM     37  C   UNL     1     -26.646 106.913  -0.132  0.00  0.00    +0.000 A 
ATOM     38  C   UNL     1     -27.076 107.520  -2.864  0.00  0.00    +0.000 A 
ATOM     39  C   UNL     1     -27.461 107.983  -0.509  0.00  0.00    +0.000 A 
ATOM     40  C   UNL     1     -27.669 108.278  -1.852  0.00  0.00    +0.000 A 
ATOM     41  H   UNL     1     -25.535 105.558  -4.239  0.00  0.00    +0.000 HD
ENDBRANCH  11  30
BRANCH   7  42
ATOM     42  O   UNL     1     -25.956 101.614  -6.361  0.00  0.00    +0.000 OA
ATOM     43  H   UNL     1     -25.979 101.300  -7.281  0.00  0.00    +0.000 HD
ENDBRANCH   7  42
TORSDOF 2
ENDMDL
MODEL 7
REMARK VINA RESULT:      -7.2     20.086     24.830
REMARK  Name = 6509753_ManzamineA.pdbqt.pdb
REMARK  2 active torsions:
REMARK  status: ('A' for Active; 'I' for Inactive)
REMARK    1  A    between atoms: C_7  and  O_42
REMARK    2  A    between atoms: C_11  and  C_30
REMARK                            x       y       z     vdW  Elec       q    Type
REMARK                         _______ _______ _______ _____ _____    ______ ____
ROOT
ATOM      1  N   UNL     1     -22.930 102.438  -5.576  0.00  0.00    +0.000 N 
ATOM      2  N   UNL     1     -19.845 105.608  -3.280  0.00  0.00    +0.000 N 
ATOM      3  C   UNL     1     -21.802 103.522  -3.586  0.00  0.00    +0.000 C 
ATOM      4  C   UNL     1     -23.060 103.467  -4.513  0.00  0.00    +0.000 C 
ATOM      5  C   UNL     1     -21.997 103.432  -2.016  0.00  0.00    +0.000 C 
ATOM      6  C   UNL     1     -21.165 102.314  -4.101  0.00  0.00    +0.000 C 
ATOM      7  C   UNL     1     -24.445 103.684  -3.897  0.00  0.00    +0.000 C 
ATOM      8  C   UNL     1     -20.907 104.706  -3.836  0.00  0.00    +0.000 C 
ATOM      9  C   UNL     1     -21.624 101.790  -5.324  0.00  0.00    +0.000 C 
ATOM     10  C   UNL     1     -20.996 104.160  -1.278  0.00  0.00    +0.000 C 
ATOM     11  C   UNL     1     -23.363 103.390  -1.514  0.00  0.00    +0.000 C 
ATOM     12  C   UNL     1     -24.223 103.539  -2.473  0.00  0.00    +0.000 C 
ATOM     13  C   UNL     1     -20.040 105.193  -1.882  0.00  0.00    +0.000 C 
ATOM     14  C   UNL     1     -23.035 103.016  -6.918  0.00  0.00    +0.000 C 
ATOM     15  C   UNL     1     -24.983 104.980  -4.297  0.00  0.00    +0.000 C 
ATOM     16  C   UNL     1     -20.797 101.335  -6.394  0.00  0.00    +0.000 C 
ATOM     17  C   UNL     1     -20.309 106.978  -3.418  0.00  0.00    +0.000 C 
ATOM     18  C   UNL     1     -22.712 103.247  -8.406  0.00  0.00    +0.000 C 
ATOM     19  C   UNL     1     -25.401 106.414  -4.632  0.00  0.00    +0.000 C 
ATOM     20  C   UNL     1     -20.371 101.269  -7.516  0.00  0.00    +0.000 C 
ATOM     21  C   UNL     1     -21.652 102.726  -9.375  0.00  0.00    +0.000 C 
ATOM     22  C   UNL     1     -20.947 108.350  -3.654  0.00  0.00    +0.000 C 
ATOM     23  C   UNL     1     -20.544 101.769  -8.952  0.00  0.00    +0.000 C 
ATOM     24  C   UNL     1     -25.342 107.929  -4.802  0.00  0.00    +0.000 C 
ATOM     25  C   UNL     1     -21.996 109.397  -4.017  0.00  0.00    +0.000 C 
ATOM     26  C   UNL     1     -23.427 109.686  -4.442  0.00  0.00    +0.000 C 
ATOM     27  C   UNL     1     -24.724 108.952  -4.737  0.00  0.00    +0.000 C 
ENDROOT
BRANCH  11  30
ATOM     28  N   UNL     1     -23.351 102.381   0.692  0.00  0.00    +0.000 NA
ATOM     29  N   UNL     1     -25.143 105.495  -0.189  0.00  0.00    +0.000 N 
ATOM     30  C   UNL     1     -23.770 103.380  -0.116  0.00  0.00    +0.000 A 
ATOM     31  C   UNL     1     -24.595 104.378   0.399  0.00  0.00    +0.000 A 
ATOM     32  C   UNL     1     -25.005 104.375   1.733  0.00  0.00    +0.000 A 
ATOM     33  C   UNL     1     -23.752 102.384   1.982  0.00  0.00    +0.000 A 
ATOM     34  C   UNL     1     -24.573 103.335   2.571  0.00  0.00    +0.000 A 
ATOM     35  C   UNL     1     -25.831 105.524   1.931  0.00  0.00    +0.000 A 
ATOM     36  C   UNL     1     -25.898 106.203   0.716  0.00  0.00    +0.000 A 
ATOM     37  C   UNL     1     -26.523 106.049   3.038  0.00  0.00    +0.000 A 
ATOM     38  C   UNL     1     -26.623 107.386   0.544  0.00  0.00    +0.000 A 
ATOM     39  C   UNL     1     -27.255 107.229   2.886  0.00  0.00    +0.000 A 
ATOM     40  C   UNL     1     -27.300 107.883   1.660  0.00  0.00    +0.000 A 
ATOM     41  H   UNL     1     -25.005 105.768  -1.152  0.00  0.00    +0.000 HD
ENDBRANCH  11  30
BRANCH   7  42
ATOM     42  O   UNL     1     -25.345 102.663  -4.302  0.00  0.00    +0.000 OA
ATOM     43  H   UNL     1     -24.830 102.058  -4.863  0.00  0.00    +0.000 HD
ENDBRANCH   7  42
TORSDOF 2
ENDMDL
MODEL 8
REMARK VINA RESULT:      -7.1     15.994     19.718
REMARK  Name = 6509753_ManzamineA.pdbqt.pdb
REMARK  2 active torsions:
REMARK  status: ('A' for Active; 'I' for Inactive)
REMARK    1  A    between atoms: C_7  and  O_42
REMARK    2  A    between atoms: C_11  and  C_30
REMARK                            x       y       z     vdW  Elec       q    Type
REMARK                         _______ _______ _______ _____ _____    ______ ____
ROOT
ATOM      1  N   UNL     1     -33.216 105.704  -0.706  0.00  0.00    +0.000 N 
ATOM      2  N   UNL     1     -35.543 108.798   2.433  0.00  0.00    +0.000 N 
ATOM      3  C   UNL     1     -34.675 106.314   1.271  0.00  0.00    +0.000 C 
ATOM      4  C   UNL     1     -34.612 105.887  -0.231  0.00  0.00    +0.000 C 
ATOM      5  C   UNL     1     -35.592 105.492   2.267  0.00  0.00    +0.000 C 
ATOM      6  C   UNL     1     -33.262 106.095   1.564  0.00  0.00    +0.000 C 
ATOM      7  C   UNL     1     -35.680 104.937  -0.778  0.00  0.00    +0.000 C 
ATOM      8  C   UNL     1     -35.012 107.766   1.484  0.00  0.00    +0.000 C 
ATOM      9  C   UNL     1     -32.372 105.960   0.482  0.00  0.00    +0.000 C 
ATOM     10  C   UNL     1     -36.129 106.294   3.337  0.00  0.00    +0.000 C 
ATOM     11  C   UNL     1     -36.403 104.423   1.702  0.00  0.00    +0.000 C 
ATOM     12  C   UNL     1     -36.306 104.391   0.410  0.00  0.00    +0.000 C 
ATOM     13  C   UNL     1     -36.130 107.826   3.368  0.00  0.00    +0.000 C 
ATOM     14  C   UNL     1     -32.899 106.581  -1.836  0.00  0.00    +0.000 C 
ATOM     15  C   UNL     1     -36.591 105.650  -1.668  0.00  0.00    +0.000 C 
ATOM     16  C   UNL     1     -31.099 106.595   0.371  0.00  0.00    +0.000 C 
ATOM     17  C   UNL     1     -36.626 109.500   1.765  0.00  0.00    +0.000 C 
ATOM     18  C   UNL     1     -32.077 107.543  -2.714  0.00  0.00    +0.000 C 
ATOM     19  C   UNL     1     -37.587 106.504  -2.456  0.00  0.00    +0.000 C 
ATOM     20  C   UNL     1     -30.235 107.268  -0.123  0.00  0.00    +0.000 C 
ATOM     21  C   UNL     1     -30.721 108.234  -2.582  0.00  0.00    +0.000 C 
ATOM     22  C   UNL     1     -37.725 110.137   0.909  0.00  0.00    +0.000 C 
ATOM     23  C   UNL     1     -29.835 108.090  -1.350  0.00  0.00    +0.000 C 
ATOM     24  C   UNL     1     -38.544 107.637  -2.818  0.00  0.00    +0.000 C 
ATOM     25  C   UNL     1     -38.685 110.354  -0.257  0.00  0.00    +0.000 C 
ATOM     26  C   UNL     1     -39.225 109.850  -1.585  0.00  0.00    +0.000 C 
ATOM     27  C   UNL     1     -39.058 108.681  -2.541  0.00  0.00    +0.000 C 
ENDROOT
BRANCH  11  30
ATOM     28  N   UNL     1     -37.037 103.093   3.629  0.00  0.00    +0.000 NA
ATOM     29  N   UNL     1     -39.193 103.692   0.682  0.00  0.00    +0.000 N 
ATOM     30  C   UNL     1     -37.365 103.596   2.418  0.00  0.00    +0.000 A 
ATOM     31  C   UNL     1     -38.611 103.306   1.868  0.00  0.00    +0.000 A 
ATOM     32  C   UNL     1     -39.537 102.502   2.535  0.00  0.00    +0.000 A 
ATOM     33  C   UNL     1     -37.939 102.316   4.269  0.00  0.00    +0.000 A 
ATOM     34  C   UNL     1     -39.197 101.976   3.791  0.00  0.00    +0.000 A 
ATOM     35  C   UNL     1     -40.698 102.407   1.707  0.00  0.00    +0.000 A 
ATOM     36  C   UNL     1     -40.454 103.158   0.560  0.00  0.00    +0.000 A 
ATOM     37  C   UNL     1     -41.936 101.750   1.835  0.00  0.00    +0.000 A 
ATOM     38  C   UNL     1     -41.385 103.292  -0.475  0.00  0.00    +0.000 A 
ATOM     39  C   UNL     1     -42.879 101.871   0.812  0.00  0.00    +0.000 A 
ATOM     40  C   UNL     1     -42.605 102.630  -0.320  0.00  0.00    +0.000 A 
ATOM     41  H   UNL     1     -38.760 104.294  -0.004  0.00  0.00    +0.000 HD
ENDBRANCH  11  30
BRANCH   7  42
ATOM     42  O   UNL     1     -35.085 103.861  -1.488  0.00  0.00    +0.000 OA
ATOM     43  H   UNL     1     -35.465 103.048  -1.112  0.00  0.00    +0.000 HD
ENDBRANCH   7  42
TORSDOF 2
ENDMDL
MODEL 9
REMARK VINA RESULT:      -7.0     15.496     20.496
REMARK  Name = 6509753_ManzamineA.pdbqt.pdb
REMARK  2 active torsions:
REMARK  status: ('A' for Active; 'I' for Inactive)
REMARK    1  A    between atoms: C_7  and  O_42
REMARK    2  A    between atoms: C_11  and  C_30
REMARK                            x       y       z     vdW  Elec       q    Type
REMARK                         _______ _______ _______ _____ _____    ______ ____
ROOT
ATOM      1  N   UNL     1     -22.738 105.188  -0.371  0.00  0.00    +0.000 N 
ATOM      2  N   UNL     1     -23.835 101.332   2.592  0.00  0.00    +0.000 N 
ATOM      3  C   UNL     1     -23.799 104.040   1.621  0.00  0.00    +0.000 C 
ATOM      4  C   UNL     1     -22.602 104.886   1.078  0.00  0.00    +0.000 C 
ATOM      5  C   UNL     1     -24.577 104.544   2.906  0.00  0.00    +0.000 C 
ATOM      6  C   UNL     1     -24.634 104.153   0.429  0.00  0.00    +0.000 C 
ATOM      7  C   UNL     1     -21.987 105.963   1.975  0.00  0.00    +0.000 C 
ATOM      8  C   UNL     1     -23.467 102.592   1.866  0.00  0.00    +0.000 C 
ATOM      9  C   UNL     1     -24.032 104.589  -0.765  0.00  0.00    +0.000 C 
ATOM     10  C   UNL     1     -25.113 103.468   3.702  0.00  0.00    +0.000 C 
ATOM     11  C   UNL     1     -24.072 105.738   3.569  0.00  0.00    +0.000 C 
ATOM     12  C   UNL     1     -22.966 106.144   3.028  0.00  0.00    +0.000 C 
ATOM     13  C   UNL     1     -24.719 101.995   3.562  0.00  0.00    +0.000 C 
ATOM     14  C   UNL     1     -21.607 104.676  -1.148  0.00  0.00    +0.000 C 
ATOM     15  C   UNL     1     -20.667 105.548   2.440  0.00  0.00    +0.000 C 
ATOM     16  C   UNL     1     -24.223 104.004  -2.053  0.00  0.00    +0.000 C 
ATOM     17  C   UNL     1     -22.653 100.865   3.297  0.00  0.00    +0.000 C 
ATOM     18  C   UNL     1     -20.861 104.004  -2.317  0.00  0.00    +0.000 C 
ATOM     19  C   UNL     1     -19.369 104.970   3.007  0.00  0.00    +0.000 C 
ATOM     20  C   UNL     1     -23.913 103.496  -3.097  0.00  0.00    +0.000 C 
ATOM     21  C   UNL     1     -21.283 103.294  -3.602  0.00  0.00    +0.000 C 
ATOM     22  C   UNL     1     -21.316 100.514   3.957  0.00  0.00    +0.000 C 
ATOM     23  C   UNL     1     -22.741 103.066  -3.981  0.00  0.00    +0.000 C 
ATOM     24  C   UNL     1     -18.387 104.000   3.659  0.00  0.00    +0.000 C 
ATOM     25  C   UNL     1     -19.869 100.655   4.421  0.00  0.00    +0.000 C 
ATOM     26  C   UNL     1     -18.629 101.529   4.508  0.00  0.00    +0.000 C 
ATOM     27  C   UNL     1     -18.160 102.924   4.132  0.00  0.00    +0.000 C 
ENDROOT
BRANCH  11  30
ATOM     28  N   UNL     1     -25.612 107.205   4.734  0.00  0.00    +0.000 NA
ATOM     29  N   UNL     1     -23.003 105.158   6.376  0.00  0.00    +0.000 N 
ATOM     30  C   UNL     1     -24.585 106.328   4.797  0.00  0.00    +0.000 A 
ATOM     31  C   UNL     1     -24.027 106.012   6.033  0.00  0.00    +0.000 A 
ATOM     32  C   UNL     1     -24.498 106.581   7.217  0.00  0.00    +0.000 A 
ATOM     33  C   UNL     1     -26.063 107.751   5.884  0.00  0.00    +0.000 A 
ATOM     34  C   UNL     1     -25.562 107.494   7.153  0.00  0.00    +0.000 A 
ATOM     35  C   UNL     1     -23.718 106.048   8.290  0.00  0.00    +0.000 A 
ATOM     36  C   UNL     1     -22.795 105.164   7.734  0.00  0.00    +0.000 A 
ATOM     37  C   UNL     1     -23.719 106.238   9.684  0.00  0.00    +0.000 A 
ATOM     38  C   UNL     1     -21.866 104.453   8.500  0.00  0.00    +0.000 A 
ATOM     39  C   UNL     1     -22.797 105.537  10.466  0.00  0.00    +0.000 A 
ATOM     40  C   UNL     1     -21.890 104.661   9.881  0.00  0.00    +0.000 A 
ATOM     41  H   UNL     1     -22.480 104.592   5.721  0.00  0.00    +0.000 HD
ENDBRANCH  11  30
BRANCH   7  42
ATOM     42  O   UNL     1     -21.867 107.195   1.278  0.00  0.00    +0.000 OA
ATOM     43  H   UNL     1     -21.834 107.887   1.960  0.00  0.00    +0.000 HD
ENDBRANCH   7  42
TORSDOF 2
ENDMDL
