MODEL 1
REMARK VINA RESULT:      -3.6      0.000      0.000
REMARK  Name = 67499_Pyrazolo.pdbqt.pdb
REMARK  0 active torsions:
REMARK  status: ('A' for Active; 'I' for Inactive)
REMARK                            x       y       z     vdW  Elec       q    Type
REMARK                         _______ _______ _______ _____ _____    ______ ____
ROOT
ATOM      1  N   UNL     1     -28.636 100.166  18.153  0.00  0.00    +0.000 N 
ATOM      2  N   UNL     1     -28.691  99.064  18.932  0.00  0.00    +0.000 NA
ATOM      3  N   UNL     1     -29.479 100.976  16.032  0.00  0.00    +0.000 NA
ATOM      4  N   UNL     1     -30.860  99.324  14.924  0.00  0.00    +0.000 NA
ATOM      5  C   UNL     1     -29.907  98.792  17.017  0.00  0.00    +0.000 A 
ATOM      6  C   UNL     1     -29.348 100.053  16.995  0.00  0.00    +0.000 A 
ATOM      7  C   UNL     1     -29.470  98.230  18.229  0.00  0.00    +0.000 A 
ATOM      8  C   UNL     1     -30.690  98.431  15.930  0.00  0.00    +0.000 A 
ATOM      9  C   UNL     1     -30.256 100.526  15.028  0.00  0.00    +0.000 A 
ATOM     10  H   UNL     1     -28.096 100.966  18.465  0.00  0.00    +0.000 HD
ENDROOT
TORSDOF 0
ENDMDL
MODEL 2
REMARK VINA RESULT:      -3.6     15.180     15.859
REMARK  Name = 67499_Pyrazolo.pdbqt.pdb
REMARK  0 active torsions:
REMARK  status: ('A' for Active; 'I' for Inactive)
REMARK                            x       y       z     vdW  Elec       q    Type
REMARK                         _______ _______ _______ _____ _____    ______ ____
ROOT
ATOM      1  N   UNL     1     -39.222 103.681   6.087  0.00  0.00    +0.000 N 
ATOM      2  N   UNL     1     -40.525 103.328   6.125  0.00  0.00    +0.000 NA
ATOM      3  N   UNL     1     -37.286 103.453   4.649  0.00  0.00    +0.000 NA
ATOM      4  N   UNL     1     -37.802 102.209   2.636  0.00  0.00    +0.000 NA
ATOM      5  C   UNL     1     -39.516 102.579   4.217  0.00  0.00    +0.000 A 
ATOM      6  C   UNL     1     -38.574 103.255   4.963  0.00  0.00    +0.000 A 
ATOM      7  C   UNL     1     -40.695 102.655   4.979  0.00  0.00    +0.000 A 
ATOM      8  C   UNL     1     -39.095 102.041   3.009  0.00  0.00    +0.000 A 
ATOM      9  C   UNL     1     -36.982 102.893   3.461  0.00  0.00    +0.000 A 
ATOM     10  H   UNL     1     -38.830 104.212   6.855  0.00  0.00    +0.000 HD
ENDROOT
TORSDOF 0
ENDMDL
MODEL 3
REMARK VINA RESULT:      -3.5      1.392      2.518
REMARK  Name = 67499_Pyrazolo.pdbqt.pdb
REMARK  0 active torsions:
REMARK  status: ('A' for Active; 'I' for Inactive)
REMARK                            x       y       z     vdW  Elec       q    Type
REMARK                         _______ _______ _______ _____ _____    ______ ____
ROOT
ATOM      1  N   UNL     1     -28.662 100.200  17.751  0.00  0.00    +0.000 N 
ATOM      2  N   UNL     1     -28.303 100.917  16.664  0.00  0.00    +0.000 NA
ATOM      3  N   UNL     1     -30.201  98.438  18.378  0.00  0.00    +0.000 NA
ATOM      4  N   UNL     1     -31.536  97.699  16.497  0.00  0.00    +0.000 NA
ATOM      5  C   UNL     1     -29.949  99.415  16.162  0.00  0.00    +0.000 A 
ATOM      6  C   UNL     1     -29.645  99.287  17.501  0.00  0.00    +0.000 A 
ATOM      7  C   UNL     1     -29.094 100.430  15.699  0.00  0.00    +0.000 A 
ATOM      8  C   UNL     1     -30.936  98.580  15.658  0.00  0.00    +0.000 A 
ATOM      9  C   UNL     1     -31.143  97.677  17.788  0.00  0.00    +0.000 A 
ATOM     10  H   UNL     1     -28.201 100.378  18.635  0.00  0.00    +0.000 HD
ENDROOT
TORSDOF 0
ENDMDL
MODEL 4
REMARK VINA RESULT:      -3.5     11.066     12.300
REMARK  Name = 67499_Pyrazolo.pdbqt.pdb
REMARK  0 active torsions:
REMARK  status: ('A' for Active; 'I' for Inactive)
REMARK                            x       y       z     vdW  Elec       q    Type
REMARK                         _______ _______ _______ _____ _____    ______ ____
ROOT
ATOM      1  N   UNL     1     -18.409  94.596  20.700  0.00  0.00    +0.000 N 
ATOM      2  N   UNL     1     -17.451  94.056  19.916  0.00  0.00    +0.000 NA
ATOM      3  N   UNL     1     -20.751  94.288  21.235  0.00  0.00    +0.000 NA
ATOM      4  N   UNL     1     -21.721  92.444  20.001  0.00  0.00    +0.000 NA
ATOM      5  C   UNL     1     -19.442  92.964  19.667  0.00  0.00    +0.000 A 
ATOM      6  C   UNL     1     -19.620  93.977  20.586  0.00  0.00    +0.000 A 
ATOM      7  C   UNL     1     -18.092  93.060  19.289  0.00  0.00    +0.000 A 
ATOM      8  C   UNL     1     -20.548  92.178  19.376  0.00  0.00    +0.000 A 
ATOM      9  C   UNL     1     -21.758  93.467  20.881  0.00  0.00    +0.000 A 
ATOM     10  H   UNL     1     -18.178  95.386  21.291  0.00  0.00    +0.000 HD
ENDROOT
TORSDOF 0
ENDMDL
MODEL 5
REMARK VINA RESULT:      -3.4      4.295      5.812
REMARK  Name = 67499_Pyrazolo.pdbqt.pdb
REMARK  0 active torsions:
REMARK  status: ('A' for Active; 'I' for Inactive)
REMARK                            x       y       z     vdW  Elec       q    Type
REMARK                         _______ _______ _______ _____ _____    ______ ____
ROOT
ATOM      1  N   UNL     1     -33.378  99.341  15.230  0.00  0.00    +0.000 N 
ATOM      2  N   UNL     1     -32.208 100.009  15.131  0.00  0.00    +0.000 NA
ATOM      3  N   UNL     1     -35.582  99.313  14.227  0.00  0.00    +0.000 NA
ATOM      4  N   UNL     1     -35.804 100.993  12.497  0.00  0.00    +0.000 NA
ATOM      5  C   UNL     1     -33.749 100.803  13.642  0.00  0.00    +0.000 A 
ATOM      6  C   UNL     1     -34.333  99.780  14.359  0.00  0.00    +0.000 A 
ATOM      7  C   UNL     1     -32.444 100.900  14.158  0.00  0.00    +0.000 A 
ATOM      8  C   UNL     1     -34.531 101.422  12.677  0.00  0.00    +0.000 A 
ATOM      9  C   UNL     1     -36.253  99.980  13.268  0.00  0.00    +0.000 A 
ATOM     10  H   UNL     1     -33.466  98.596  15.911  0.00  0.00    +0.000 HD
ENDROOT
TORSDOF 0
ENDMDL
MODEL 6
REMARK VINA RESULT:      -3.4     15.008     15.261
REMARK  Name = 67499_Pyrazolo.pdbqt.pdb
REMARK  0 active torsions:
REMARK  status: ('A' for Active; 'I' for Inactive)
REMARK                            x       y       z     vdW  Elec       q    Type
REMARK                         _______ _______ _______ _____ _____    ______ ____
ROOT
ATOM      1  N   UNL     1     -37.165 102.385   3.781  0.00  0.00    +0.000 N 
ATOM      2  N   UNL     1     -38.397 102.100   4.256  0.00  0.00    +0.000 NA
ATOM      3  N   UNL     1     -35.533 104.174   3.827  0.00  0.00    +0.000 NA
ATOM      4  N   UNL     1     -36.312 106.069   5.118  0.00  0.00    +0.000 NA
ATOM      5  C   UNL     1     -37.713 104.180   4.910  0.00  0.00    +0.000 A 
ATOM      6  C   UNL     1     -36.711 103.619   4.146  0.00  0.00    +0.000 A 
ATOM      7  C   UNL     1     -38.723 103.203   4.945  0.00  0.00    +0.000 A 
ATOM      8  C   UNL     1     -37.486 105.455   5.407  0.00  0.00    +0.000 A 
ATOM      9  C   UNL     1     -35.416 105.407   4.357  0.00  0.00    +0.000 A 
ATOM     10  H   UNL     1     -36.683 101.698   3.214  0.00  0.00    +0.000 HD
ENDROOT
TORSDOF 0
ENDMDL
MODEL 7
REMARK VINA RESULT:      -3.4     24.000     25.375
REMARK  Name = 67499_Pyrazolo.pdbqt.pdb
REMARK  0 active torsions:
REMARK  status: ('A' for Active; 'I' for Inactive)
REMARK                            x       y       z     vdW  Elec       q    Type
REMARK                         _______ _______ _______ _____ _____    ______ ____
ROOT
ATOM      1  N   UNL     1     -25.253  88.067  -7.060  0.00  0.00    +0.000 N 
ATOM      2  N   UNL     1     -26.563  87.833  -7.293  0.00  0.00    +0.000 NA
ATOM      3  N   UNL     1     -23.840  89.589  -5.814  0.00  0.00    +0.000 NA
ATOM      4  N   UNL     1     -25.140  91.221  -4.584  0.00  0.00    +0.000 NA
ATOM      5  C   UNL     1     -26.273  89.611  -5.888  0.00  0.00    +0.000 A 
ATOM      6  C   UNL     1     -25.028  89.122  -6.225  0.00  0.00    +0.000 A 
ATOM      7  C   UNL     1     -27.178  88.781  -6.573  0.00  0.00    +0.000 A 
ATOM      8  C   UNL     1     -26.310  90.704  -5.034  0.00  0.00    +0.000 A 
ATOM      9  C   UNL     1     -23.989  90.645  -4.991  0.00  0.00    +0.000 A 
ATOM     10  H   UNL     1     -24.559  87.474  -7.499  0.00  0.00    +0.000 HD
ENDROOT
TORSDOF 0
ENDMDL
MODEL 8
REMARK VINA RESULT:      -3.3      2.746      3.503
REMARK  Name = 67499_Pyrazolo.pdbqt.pdb
REMARK  0 active torsions:
REMARK  status: ('A' for Active; 'I' for Inactive)
REMARK                            x       y       z     vdW  Elec       q    Type
REMARK                         _______ _______ _______ _____ _____    ______ ____
ROOT
ATOM      1  N   UNL     1     -33.057  98.059  16.328  0.00  0.00    +0.000 N 
ATOM      2  N   UNL     1     -31.944  97.480  16.829  0.00  0.00    +0.000 NA
ATOM      3  N   UNL     1     -33.694  99.832  14.806  0.00  0.00    +0.000 NA
ATOM      4  N   UNL     1     -31.762 100.943  13.860  0.00  0.00    +0.000 NA
ATOM      5  C   UNL     1     -31.424  99.170  15.382  0.00  0.00    +0.000 A 
ATOM      6  C   UNL     1     -32.798  99.077  15.456  0.00  0.00    +0.000 A 
ATOM      7  C   UNL     1     -30.951  98.165  16.245  0.00  0.00    +0.000 A 
ATOM      8  C   UNL     1     -30.904 100.147  14.545  0.00  0.00    +0.000 A 
ATOM      9  C   UNL     1     -33.086 100.745  14.024  0.00  0.00    +0.000 A 
ATOM     10  H   UNL     1     -33.965  97.717  16.618  0.00  0.00    +0.000 HD
ENDROOT
TORSDOF 0
ENDMDL
MODEL 9
REMARK VINA RESULT:      -3.3      1.345      2.849
REMARK  Name = 67499_Pyrazolo.pdbqt.pdb
REMARK  0 active torsions:
REMARK  status: ('A' for Active; 'I' for Inactive)
REMARK                            x       y       z     vdW  Elec       q    Type
REMARK                         _______ _______ _______ _____ _____    ______ ____
ROOT
ATOM      1  N   UNL     1     -30.242  98.215  16.763  0.00  0.00    +0.000 N 
ATOM      2  N   UNL     1     -31.171  97.851  15.853  0.00  0.00    +0.000 NA
ATOM      3  N   UNL     1     -28.846 100.114  17.323  0.00  0.00    +0.000 NA
ATOM      4  N   UNL     1     -29.192 101.964  15.799  0.00  0.00    +0.000 NA
ATOM      5  C   UNL     1     -30.431  99.980  15.480  0.00  0.00    +0.000 A 
ATOM      6  C   UNL     1     -29.768  99.482  16.582  0.00  0.00    +0.000 A 
ATOM      7  C   UNL     1     -31.280  98.935  15.073  0.00  0.00    +0.000 A 
ATOM      8  C   UNL     1     -30.118 101.274  15.088  0.00  0.00    +0.000 A 
ATOM      9  C   UNL     1     -28.617 101.358  16.858  0.00  0.00    +0.000 A 
ATOM     10  H   UNL     1     -29.971  97.557  17.484  0.00  0.00    +0.000 HD
ENDROOT
TORSDOF 0
ENDMDL
