MODEL 1
REMARK VINA RESULT:      -4.9      0.000      0.000
REMARK  Name = 71369791_5FluoroDione.pdbqt.pdb
REMARK  1 active torsions:
REMARK  status: ('A' for Active; 'I' for Inactive)
REMARK    1  A    between atoms: N_4  and  C_12
REMARK                            x       y       z     vdW  Elec       q    Type
REMARK                         _______ _______ _______ _____ _____    ______ ____
ROOT
ATOM      1  F   UNL     1     -29.313 101.605  17.931  0.00  0.00    +0.000 F 
ATOM      2  O   UNL     1     -31.681  97.374  15.450  0.00  0.00    +0.000 OA
ATOM      3  O   UNL     1     -28.574  98.919  18.449  0.00  0.00    +0.000 OA
ATOM      4  N   UNL     1     -31.732  99.687  15.931  0.00  0.00    +0.000 N 
ATOM      5  N   UNL     1     -30.224  98.217  17.002  0.00  0.00    +0.000 N 
ATOM      6  C   UNL     1     -31.140 100.632  16.688  0.00  0.00    +0.000 C 
ATOM      7  C   UNL     1     -30.111 100.565  17.634  0.00  0.00    +0.000 C 
ATOM      8  C   UNL     1     -31.273  98.357  16.060  0.00  0.00    +0.000 C 
ATOM      9  C   UNL     1     -29.551  99.187  17.760  0.00  0.00    +0.000 C 
ATOM     10  H   UNL     1     -29.854  97.281  17.078  0.00  0.00    +0.000 HD
ENDROOT
BRANCH   4  12
ATOM     11  O   UNL     1     -34.059  99.635  15.239  0.00  0.00    +0.000 OA
ATOM     12  C   UNL     1     -32.734 100.061  15.081  0.00  0.00    +0.000 C 
ATOM     13  C   UNL     1     -32.671 100.897  13.935  0.00  0.00    +0.000 C 
ATOM     14  C   UNL     1     -33.903 101.214  13.086  0.00  0.00    +0.000 C 
ATOM     15  C   UNL     1     -34.491 100.303  14.163  0.00  0.00    +0.000 C 
ENDBRANCH   4  12
TORSDOF 1
ENDMDL
MODEL 2
REMARK VINA RESULT:      -4.6     24.282     25.274
REMARK  Name = 71369791_5FluoroDione.pdbqt.pdb
REMARK  1 active torsions:
REMARK  status: ('A' for Active; 'I' for Inactive)
REMARK    1  A    between atoms: N_4  and  C_12
REMARK                            x       y       z     vdW  Elec       q    Type
REMARK                         _______ _______ _______ _____ _____    ______ ____
ROOT
ATOM      1  F   UNL     1     -28.340  86.801  -7.626  0.00  0.00    +0.000 F 
ATOM      2  O   UNL     1     -26.571  89.110  -3.021  0.00  0.00    +0.000 OA
ATOM      3  O   UNL     1     -29.893  86.873  -5.257  0.00  0.00    +0.000 OA
ATOM      4  N   UNL     1     -26.046  88.321  -5.186  0.00  0.00    +0.000 N 
ATOM      5  N   UNL     1     -28.140  87.906  -4.176  0.00  0.00    +0.000 N 
ATOM      6  C   UNL     1     -26.559  87.629  -6.222  0.00  0.00    +0.000 C 
ATOM      7  C   UNL     1     -27.801  87.012  -6.414  0.00  0.00    +0.000 C 
ATOM      8  C   UNL     1     -26.863  88.503  -4.047  0.00  0.00    +0.000 C 
ATOM      9  C   UNL     1     -28.721  87.231  -5.259  0.00  0.00    +0.000 C 
ATOM     10  H   UNL     1     -28.754  88.061  -3.388  0.00  0.00    +0.000 HD
ENDROOT
BRANCH   4  12
ATOM     11  O   UNL     1     -24.498  90.179  -5.404  0.00  0.00    +0.000 OA
ATOM     12  C   UNL     1     -24.775  88.811  -5.290  0.00  0.00    +0.000 C 
ATOM     13  C   UNL     1     -23.542  88.106  -5.308  0.00  0.00    +0.000 C 
ATOM     14  C   UNL     1     -22.195  88.820  -5.435  0.00  0.00    +0.000 C 
ATOM     15  C   UNL     1     -23.174  89.993  -5.464  0.00  0.00    +0.000 C 
ENDBRANCH   4  12
TORSDOF 1
ENDMDL
MODEL 3
REMARK VINA RESULT:      -4.6     14.810     15.365
REMARK  Name = 71369791_5FluoroDione.pdbqt.pdb
REMARK  1 active torsions:
REMARK  status: ('A' for Active; 'I' for Inactive)
REMARK    1  A    between atoms: N_4  and  C_12
REMARK                            x       y       z     vdW  Elec       q    Type
REMARK                         _______ _______ _______ _____ _____    ______ ____
ROOT
ATOM      1  F   UNL     1     -20.107 100.458   3.791  0.00  0.00    +0.000 F 
ATOM      2  O   UNL     1     -25.543 100.741   3.991  0.00  0.00    +0.000 OA
ATOM      3  O   UNL     1     -21.667  98.764   5.441  0.00  0.00    +0.000 OA
ATOM      4  N   UNL     1     -23.518 101.743   3.296  0.00  0.00    +0.000 N 
ATOM      5  N   UNL     1     -23.561  99.873   4.739  0.00  0.00    +0.000 N 
ATOM      6  C   UNL     1     -22.180 101.639   3.419  0.00  0.00    +0.000 C 
ATOM      7  C   UNL     1     -21.371 100.751   4.139  0.00  0.00    +0.000 C 
ATOM      8  C   UNL     1     -24.318 100.807   3.992  0.00  0.00    +0.000 C 
ATOM      9  C   UNL     1     -22.172  99.704   4.841  0.00  0.00    +0.000 C 
ATOM     10  H   UNL     1     -24.113  99.170   5.210  0.00  0.00    +0.000 HD
ENDROOT
BRANCH   4  12
ATOM     11  O   UNL     1     -24.777 103.801   3.024  0.00  0.00    +0.000 OA
ATOM     12  C   UNL     1     -24.029 102.735   2.509  0.00  0.00    +0.000 C 
ATOM     13  C   UNL     1     -23.930 102.902   1.102  0.00  0.00    +0.000 C 
ATOM     14  C   UNL     1     -24.571 104.084   0.373  0.00  0.00    +0.000 C 
ATOM     15  C   UNL     1     -24.959 104.365   1.824  0.00  0.00    +0.000 C 
ENDBRANCH   4  12
TORSDOF 1
ENDMDL
MODEL 4
REMARK VINA RESULT:      -4.3     15.631     17.354
REMARK  Name = 71369791_5FluoroDione.pdbqt.pdb
REMARK  1 active torsions:
REMARK  status: ('A' for Active; 'I' for Inactive)
REMARK    1  A    between atoms: N_4  and  C_12
REMARK                            x       y       z     vdW  Elec       q    Type
REMARK                         _______ _______ _______ _____ _____    ______ ____
ROOT
ATOM      1  F   UNL     1     -42.462 101.196  -0.622  0.00  0.00    +0.000 F 
ATOM      2  O   UNL     1     -40.625 101.974   4.445  0.00  0.00    +0.000 OA
ATOM      3  O   UNL     1     -43.927 100.411   1.673  0.00  0.00    +0.000 OA
ATOM      4  N   UNL     1     -40.147 101.962   2.131  0.00  0.00    +0.000 N 
ATOM      5  N   UNL     1     -42.182 101.129   2.995  0.00  0.00    +0.000 N 
ATOM      6  C   UNL     1     -40.667 101.617   0.937  0.00  0.00    +0.000 C 
ATOM      7  C   UNL     1     -41.888 101.030   0.581  0.00  0.00    +0.000 C 
ATOM      8  C   UNL     1     -40.928 101.720   3.284  0.00  0.00    +0.000 C 
ATOM      9  C   UNL     1     -42.773 100.813   1.763  0.00  0.00    +0.000 C 
ATOM     10  H   UNL     1     -42.772 100.987   3.802  0.00  0.00    +0.000 HD
ENDROOT
BRANCH   4  12
ATOM     11  O   UNL     1     -38.573 103.676   1.437  0.00  0.00    +0.000 OA
ATOM     12  C   UNL     1     -38.903 102.527   2.166  0.00  0.00    +0.000 C 
ATOM     13  C   UNL     1     -37.752 102.113   2.887  0.00  0.00    +0.000 C 
ATOM     14  C   UNL     1     -36.425 102.868   2.809  0.00  0.00    +0.000 C 
ATOM     15  C   UNL     1     -37.310 103.696   1.879  0.00  0.00    +0.000 C 
ENDBRANCH   4  12
TORSDOF 1
ENDMDL
MODEL 5
REMARK VINA RESULT:      -4.1     27.978     29.263
REMARK  Name = 71369791_5FluoroDione.pdbqt.pdb
REMARK  1 active torsions:
REMARK  status: ('A' for Active; 'I' for Inactive)
REMARK    1  A    between atoms: N_4  and  C_12
REMARK                            x       y       z     vdW  Elec       q    Type
REMARK                         _______ _______ _______ _____ _____    ______ ____
ROOT
ATOM      1  F   UNL     1     -34.022 102.085 -13.775  0.00  0.00    +0.000 F 
ATOM      2  O   UNL     1     -34.589  97.487 -10.912  0.00  0.00    +0.000 OA
ATOM      3  O   UNL     1     -35.792 101.862 -11.574  0.00  0.00    +0.000 OA
ATOM      4  N   UNL     1     -33.747  98.534 -12.856  0.00  0.00    +0.000 N 
ATOM      5  N   UNL     1     -35.209  99.643 -11.368  0.00  0.00    +0.000 N 
ATOM      6  C   UNL     1     -33.781  99.694 -13.542  0.00  0.00    +0.000 C 
ATOM      7  C   UNL     1     -34.452 100.900 -13.310  0.00  0.00    +0.000 C 
ATOM      8  C   UNL     1     -34.505  98.451 -11.666  0.00  0.00    +0.000 C 
ATOM      9  C   UNL     1     -35.218 100.880 -12.029  0.00  0.00    +0.000 C 
ATOM     10  H   UNL     1     -35.724  99.617 -10.499  0.00  0.00    +0.000 HD
ENDROOT
BRANCH   4  12
ATOM     11  O   UNL     1     -33.518  96.247 -13.641  0.00  0.00    +0.000 OA
ATOM     12  C   UNL     1     -32.987  97.508 -13.341  0.00  0.00    +0.000 C 
ATOM     13  C   UNL     1     -31.596  97.482 -13.626  0.00  0.00    +0.000 C 
ATOM     14  C   UNL     1     -30.896  96.234 -14.167  0.00  0.00    +0.000 C 
ATOM     15  C   UNL     1     -32.339  95.751 -14.036  0.00  0.00    +0.000 C 
ENDBRANCH   4  12
TORSDOF 1
ENDMDL
MODEL 6
REMARK VINA RESULT:      -4.0     12.898     13.788
REMARK  Name = 71369791_5FluoroDione.pdbqt.pdb
REMARK  1 active torsions:
REMARK  status: ('A' for Active; 'I' for Inactive)
REMARK    1  A    between atoms: N_4  and  C_12
REMARK                            x       y       z     vdW  Elec       q    Type
REMARK                         _______ _______ _______ _____ _____    ______ ____
ROOT
ATOM      1  F   UNL     1     -24.061 105.113   5.035  0.00  0.00    +0.000 F 
ATOM      2  O   UNL     1     -24.484  99.683   5.045  0.00  0.00    +0.000 OA
ATOM      3  O   UNL     1     -25.212 103.665   2.889  0.00  0.00    +0.000 OA
ATOM      4  N   UNL     1     -23.544 101.612   6.036  0.00  0.00    +0.000 N 
ATOM      5  N   UNL     1     -24.723 101.702   3.991  0.00  0.00    +0.000 N 
ATOM      6  C   UNL     1     -23.407 102.941   5.861  0.00  0.00    +0.000 C 
ATOM      7  C   UNL     1     -23.838 103.802   4.845  0.00  0.00    +0.000 C 
ATOM      8  C   UNL     1     -24.252 100.888   5.050  0.00  0.00    +0.000 C 
ATOM      9  C   UNL     1     -24.646 103.090   3.811  0.00  0.00    +0.000 C 
ATOM     10  H   UNL     1     -25.268 101.209   3.297  0.00  0.00    +0.000 HD
ENDROOT
BRANCH   4  12
ATOM     11  O   UNL     1     -23.604 101.113   8.412  0.00  0.00    +0.000 OA
ATOM     12  C   UNL     1     -23.001 101.037   7.150  0.00  0.00    +0.000 C 
ATOM     13  C   UNL     1     -21.798 100.293   7.277  0.00  0.00    +0.000 C 
ATOM     14  C   UNL     1     -21.332  99.717   8.616  0.00  0.00    +0.000 C 
ATOM     15  C   UNL     1     -22.638 100.405   9.010  0.00  0.00    +0.000 C 
ENDBRANCH   4  12
TORSDOF 1
ENDMDL
MODEL 7
REMARK VINA RESULT:      -4.0     18.805     19.895
REMARK  Name = 71369791_5FluoroDione.pdbqt.pdb
REMARK  1 active torsions:
REMARK  status: ('A' for Active; 'I' for Inactive)
REMARK    1  A    between atoms: N_4  and  C_12
REMARK                            x       y       z     vdW  Elec       q    Type
REMARK                         _______ _______ _______ _____ _____    ______ ____
ROOT
ATOM      1  F   UNL     1     -21.639  85.482   7.579  0.00  0.00    +0.000 F 
ATOM      2  O   UNL     1     -24.115  87.104   3.007  0.00  0.00    +0.000 OA
ATOM      3  O   UNL     1     -24.442  85.290   7.207  0.00  0.00    +0.000 OA
ATOM      4  N   UNL     1     -22.146  87.099   4.316  0.00  0.00    +0.000 N 
ATOM      5  N   UNL     1     -24.207  86.298   5.148  0.00  0.00    +0.000 N 
ATOM      6  C   UNL     1     -21.676  86.760   5.532  0.00  0.00    +0.000 C 
ATOM      7  C   UNL     1     -22.297  86.201   6.654  0.00  0.00    +0.000 C 
ATOM      8  C   UNL     1     -23.516  86.869   4.052  0.00  0.00    +0.000 C 
ATOM      9  C   UNL     1     -23.733  85.882   6.402  0.00  0.00    +0.000 C 
ATOM     10  H   UNL     1     -25.178  86.087   4.966  0.00  0.00    +0.000 HD
ENDROOT
BRANCH   4  12
ATOM     11  O   UNL     1     -20.933  86.991   2.215  0.00  0.00    +0.000 OA
ATOM     12  C   UNL     1     -21.283  87.640   3.405  0.00  0.00    +0.000 C 
ATOM     13  C   UNL     1     -20.595  88.882   3.452  0.00  0.00    +0.000 C 
ATOM     14  C   UNL     1     -19.653  89.336   2.335  0.00  0.00    +0.000 C 
ATOM     15  C   UNL     1     -20.121  87.978   1.816  0.00  0.00    +0.000 C 
ENDBRANCH   4  12
TORSDOF 1
ENDMDL
MODEL 8
REMARK VINA RESULT:      -3.9      2.720      3.856
REMARK  Name = 71369791_5FluoroDione.pdbqt.pdb
REMARK  1 active torsions:
REMARK  status: ('A' for Active; 'I' for Inactive)
REMARK    1  A    between atoms: N_4  and  C_12
REMARK                            x       y       z     vdW  Elec       q    Type
REMARK                         _______ _______ _______ _____ _____    ______ ____
ROOT
ATOM      1  F   UNL     1     -34.800  99.984  17.516  0.00  0.00    +0.000 F 
ATOM      2  O   UNL     1     -30.128  97.956  15.586  0.00  0.00    +0.000 OA
ATOM      3  O   UNL     1     -34.277  97.202  17.389  0.00  0.00    +0.000 OA
ATOM      4  N   UNL     1     -31.538  99.838  15.822  0.00  0.00    +0.000 N 
ATOM      5  N   UNL     1     -32.249  97.659  16.396  0.00  0.00    +0.000 N 
ATOM      6  C   UNL     1     -32.772 100.201  16.223  0.00  0.00    +0.000 C 
ATOM      7  C   UNL     1     -33.852  99.461  16.720  0.00  0.00    +0.000 C 
ATOM      8  C   UNL     1     -31.199  98.467  15.895  0.00  0.00    +0.000 C 
ATOM      9  C   UNL     1     -33.519  98.014  16.873  0.00  0.00    +0.000 C 
ATOM     10  H   UNL     1     -32.011  96.682  16.495  0.00  0.00    +0.000 HD
ENDROOT
BRANCH   4  12
ATOM     11  O   UNL     1     -30.862 101.465  14.151  0.00  0.00    +0.000 OA
ATOM     12  C   UNL     1     -30.683 100.804  15.373  0.00  0.00    +0.000 C 
ATOM     13  C   UNL     1     -29.512 101.320  15.989  0.00  0.00    +0.000 C 
ATOM     14  C   UNL     1     -28.661 102.412  15.339  0.00  0.00    +0.000 C 
ATOM     15  C   UNL     1     -29.769 102.222  14.304  0.00  0.00    +0.000 C 
ENDBRANCH   4  12
TORSDOF 1
ENDMDL
MODEL 9
REMARK VINA RESULT:      -3.9     14.000     14.874
REMARK  Name = 71369791_5FluoroDione.pdbqt.pdb
REMARK  1 active torsions:
REMARK  status: ('A' for Active; 'I' for Inactive)
REMARK    1  A    between atoms: N_4  and  C_12
REMARK                            x       y       z     vdW  Elec       q    Type
REMARK                         _______ _______ _______ _____ _____    ______ ____
ROOT
ATOM      1  F   UNL     1     -22.052 103.327   1.948  0.00  0.00    +0.000 F 
ATOM      2  O   UNL     1     -25.200  99.939   4.824  0.00  0.00    +0.000 OA
ATOM      3  O   UNL     1     -23.869 101.525   0.732  0.00  0.00    +0.000 OA
ATOM      4  N   UNL     1     -23.364 101.428   4.811  0.00  0.00    +0.000 N 
ATOM      5  N   UNL     1     -24.412 100.712   2.818  0.00  0.00    +0.000 N 
ATOM      6  C   UNL     1     -22.571 102.135   3.982  0.00  0.00    +0.000 C 
ATOM      7  C   UNL     1     -22.541 102.251   2.587  0.00  0.00    +0.000 C 
ATOM      8  C   UNL     1     -24.383 100.637   4.232  0.00  0.00    +0.000 C 
ATOM      9  C   UNL     1     -23.641 101.481   1.934  0.00  0.00    +0.000 C 
ATOM     10  H   UNL     1     -25.160 100.187   2.388  0.00  0.00    +0.000 HD
ENDROOT
BRANCH   4  12
ATOM     11  O   UNL     1     -22.893 102.727   6.807  0.00  0.00    +0.000 OA
ATOM     12  C   UNL     1     -23.148 101.513   6.157  0.00  0.00    +0.000 C 
ATOM     13  C   UNL     1     -23.130 100.478   7.128  0.00  0.00    +0.000 C 
ATOM     14  C   UNL     1     -22.866 100.752   8.610  0.00  0.00    +0.000 C 
ATOM     15  C   UNL     1     -22.780 102.155   8.012  0.00  0.00    +0.000 C 
ENDBRANCH   4  12
TORSDOF 1
ENDMDL
