MODEL 1
REMARK VINA RESULT:      -2.7      0.000      0.000
REMARK  Name = 7288_3Pentanone.pdbqt.pdb
REMARK  2 active torsions:
REMARK  status: ('A' for Active; 'I' for Inactive)
REMARK    1  A    between atoms: C_2  and  C_3
REMARK    2  A    between atoms: C_2  and  C_5
REMARK                            x       y       z     vdW  Elec       q    Type
REMARK                         _______ _______ _______ _____ _____    ______ ____
ROOT
ATOM      1  O   UNL     1     -27.956  85.715  13.888  0.00  0.00    +0.000 OA
ATOM      2  C   UNL     1     -28.425  86.704  13.338  0.00  0.00    +0.000 C 
ENDROOT
BRANCH   2   3
ATOM      3  C   UNL     1     -28.319  88.009  13.947  0.00  0.00    +0.000 C 
ATOM      4  C   UNL     1     -28.185  89.406  14.585  0.00  0.00    +0.000 C 
ENDBRANCH   2   3
BRANCH   2   5
ATOM      5  C   UNL     1     -29.096  86.596  12.065  0.00  0.00    +0.000 C 
ATOM      6  C   UNL     1     -29.803  86.501  10.698  0.00  0.00    +0.000 C 
ENDBRANCH   2   5
TORSDOF 2
ENDMDL
MODEL 2
REMARK VINA RESULT:      -2.6     23.647     24.390
REMARK  Name = 7288_3Pentanone.pdbqt.pdb
REMARK  2 active torsions:
REMARK  status: ('A' for Active; 'I' for Inactive)
REMARK    1  A    between atoms: C_2  and  C_3
REMARK    2  A    between atoms: C_2  and  C_5
REMARK                            x       y       z     vdW  Elec       q    Type
REMARK                         _______ _______ _______ _____ _____    ______ ____
ROOT
ATOM      1  O   UNL     1     -26.200 100.509  -5.267  0.00  0.00    +0.000 OA
ATOM      2  C   UNL     1     -25.415 101.367  -5.651  0.00  0.00    +0.000 C 
ENDROOT
BRANCH   2   3
ATOM      3  C   UNL     1     -24.788 101.270  -6.948  0.00  0.00    +0.000 C 
ATOM      4  C   UNL     1     -24.101 101.182  -8.325  0.00  0.00    +0.000 C 
ENDBRANCH   2   3
BRANCH   2   5
ATOM      5  C   UNL     1     -25.091 102.502  -4.819  0.00  0.00    +0.000 C 
ATOM      6  C   UNL     1     -24.763 103.727  -3.942  0.00  0.00    +0.000 C 
ENDBRANCH   2   5
TORSDOF 2
ENDMDL
MODEL 3
REMARK VINA RESULT:      -2.6     11.746     12.373
REMARK  Name = 7288_3Pentanone.pdbqt.pdb
REMARK  2 active torsions:
REMARK  status: ('A' for Active; 'I' for Inactive)
REMARK    1  A    between atoms: C_2  and  C_3
REMARK    2  A    between atoms: C_2  and  C_5
REMARK                            x       y       z     vdW  Elec       q    Type
REMARK                         _______ _______ _______ _____ _____    ______ ____
ROOT
ATOM      1  O   UNL     1     -31.437  97.518  15.605  0.00  0.00    +0.000 OA
ATOM      2  C   UNL     1     -30.716  98.207  16.316  0.00  0.00    +0.000 C 
ENDROOT
BRANCH   2   3
ATOM      3  C   UNL     1     -30.062  99.382  15.791  0.00  0.00    +0.000 C 
ATOM      4  C   UNL     1     -29.371 100.649  15.250  0.00  0.00    +0.000 C 
ENDBRANCH   2   3
BRANCH   2   5
ATOM      5  C   UNL     1     -30.498  97.866  17.702  0.00  0.00    +0.000 C 
ATOM      6  C   UNL     1     -30.246  97.490  19.176  0.00  0.00    +0.000 C 
ENDBRANCH   2   5
TORSDOF 2
ENDMDL
MODEL 4
REMARK VINA RESULT:      -2.5     16.640     17.304
REMARK  Name = 7288_3Pentanone.pdbqt.pdb
REMARK  2 active torsions:
REMARK  status: ('A' for Active; 'I' for Inactive)
REMARK    1  A    between atoms: C_2  and  C_3
REMARK    2  A    between atoms: C_2  and  C_5
REMARK                            x       y       z     vdW  Elec       q    Type
REMARK                         _______ _______ _______ _____ _____    ______ ____
ROOT
ATOM      1  O   UNL     1     -36.789  87.650  -1.113  0.00  0.00    +0.000 OA
ATOM      2  C   UNL     1     -37.391  86.597  -1.290  0.00  0.00    +0.000 C 
ENDROOT
BRANCH   2   3
ATOM      3  C   UNL     1     -36.685  85.339  -1.340  0.00  0.00    +0.000 C 
ATOM      4  C   UNL     1     -35.913  84.006  -1.380  0.00  0.00    +0.000 C 
ENDBRANCH   2   3
BRANCH   2   5
ATOM      5  C   UNL     1     -38.825  86.583  -1.453  0.00  0.00    +0.000 C 
ATOM      6  C   UNL     1     -40.357  86.543  -1.628  0.00  0.00    +0.000 C 
ENDBRANCH   2   5
TORSDOF 2
ENDMDL
MODEL 5
REMARK VINA RESULT:      -2.5     20.400     21.231
REMARK  Name = 7288_3Pentanone.pdbqt.pdb
REMARK  2 active torsions:
REMARK  status: ('A' for Active; 'I' for Inactive)
REMARK    1  A    between atoms: C_2  and  C_3
REMARK    2  A    between atoms: C_2  and  C_5
REMARK                            x       y       z     vdW  Elec       q    Type
REMARK                         _______ _______ _______ _____ _____    ______ ____
ROOT
ATOM      1  O   UNL     1     -39.718 102.305   4.313  0.00  0.00    +0.000 OA
ATOM      2  C   UNL     1     -39.259 102.165   3.186  0.00  0.00    +0.000 C 
ENDROOT
BRANCH   2   3
ATOM      3  C   UNL     1     -40.110 101.800   2.079  0.00  0.00    +0.000 C 
ATOM      4  C   UNL     1     -41.002 101.420   0.881  0.00  0.00    +0.000 C 
ENDBRANCH   2   3
BRANCH   2   5
ATOM      5  C   UNL     1     -37.852 102.360   2.931  0.00  0.00    +0.000 C 
ATOM      6  C   UNL     1     -36.344 102.546   2.662  0.00  0.00    +0.000 C 
ENDBRANCH   2   5
TORSDOF 2
ENDMDL
MODEL 6
REMARK VINA RESULT:      -2.5     20.681     21.383
REMARK  Name = 7288_3Pentanone.pdbqt.pdb
REMARK  2 active torsions:
REMARK  status: ('A' for Active; 'I' for Inactive)
REMARK    1  A    between atoms: C_2  and  C_3
REMARK    2  A    between atoms: C_2  and  C_5
REMARK                            x       y       z     vdW  Elec       q    Type
REMARK                         _______ _______ _______ _____ _____    ______ ____
ROOT
ATOM      1  O   UNL     1     -40.026 102.607   1.126  0.00  0.00    +0.000 OA
ATOM      2  C   UNL     1     -39.613 102.261   2.227  0.00  0.00    +0.000 C 
ENDROOT
BRANCH   2   3
ATOM      3  C   UNL     1     -40.511 101.718   3.218  0.00  0.00    +0.000 C 
ATOM      4  C   UNL     1     -41.452 101.122   4.283  0.00  0.00    +0.000 C 
ENDBRANCH   2   3
BRANCH   2   5
ATOM      5  C   UNL     1     -38.216 102.387   2.566  0.00  0.00    +0.000 C 
ATOM      6  C   UNL     1     -36.717 102.518   2.906  0.00  0.00    +0.000 C 
ENDBRANCH   2   5
TORSDOF 2
ENDMDL
MODEL 7
REMARK VINA RESULT:      -2.5     18.435     19.042
REMARK  Name = 7288_3Pentanone.pdbqt.pdb
REMARK  2 active torsions:
REMARK  status: ('A' for Active; 'I' for Inactive)
REMARK    1  A    between atoms: C_2  and  C_3
REMARK    2  A    between atoms: C_2  and  C_5
REMARK                            x       y       z     vdW  Elec       q    Type
REMARK                         _______ _______ _______ _____ _____    ______ ____
ROOT
ATOM      1  O   UNL     1     -22.898 102.938   3.820  0.00  0.00    +0.000 OA
ATOM      2  C   UNL     1     -24.045 102.805   3.410  0.00  0.00    +0.000 C 
ENDROOT
BRANCH   2   3
ATOM      3  C   UNL     1     -24.639 103.790   2.538  0.00  0.00    +0.000 C 
ATOM      4  C   UNL     1     -25.255 104.838   1.591  0.00  0.00    +0.000 C 
ENDBRANCH   2   3
BRANCH   2   5
ATOM      5  C   UNL     1     -24.838 101.659   3.787  0.00  0.00    +0.000 C 
ATOM      6  C   UNL     1     -25.666 100.423   4.194  0.00  0.00    +0.000 C 
ENDBRANCH   2   5
TORSDOF 2
ENDMDL
MODEL 8
REMARK VINA RESULT:      -2.5     20.456     20.945
REMARK  Name = 7288_3Pentanone.pdbqt.pdb
REMARK  2 active torsions:
REMARK  status: ('A' for Active; 'I' for Inactive)
REMARK    1  A    between atoms: C_2  and  C_3
REMARK    2  A    between atoms: C_2  and  C_5
REMARK                            x       y       z     vdW  Elec       q    Type
REMARK                         _______ _______ _______ _____ _____    ______ ____
ROOT
ATOM      1  O   UNL     1     -40.239 103.182   5.985  0.00  0.00    +0.000 OA
ATOM      2  C   UNL     1     -40.177 102.516   4.959  0.00  0.00    +0.000 C 
ENDROOT
BRANCH   2   3
ATOM      3  C   UNL     1     -38.959 102.457   4.186  0.00  0.00    +0.000 C 
ATOM      4  C   UNL     1     -37.671 102.400   3.342  0.00  0.00    +0.000 C 
ENDBRANCH   2   3
BRANCH   2   5
ATOM      5  C   UNL     1     -41.320 101.770   4.489  0.00  0.00    +0.000 C 
ATOM      6  C   UNL     1     -42.538 100.957   4.005  0.00  0.00    +0.000 C 
ENDBRANCH   2   5
TORSDOF 2
ENDMDL
MODEL 9
REMARK VINA RESULT:      -2.5     17.803     18.416
REMARK  Name = 7288_3Pentanone.pdbqt.pdb
REMARK  2 active torsions:
REMARK  status: ('A' for Active; 'I' for Inactive)
REMARK    1  A    between atoms: C_2  and  C_3
REMARK    2  A    between atoms: C_2  and  C_5
REMARK                            x       y       z     vdW  Elec       q    Type
REMARK                         _______ _______ _______ _____ _____    ______ ____
ROOT
ATOM      1  O   UNL     1     -45.664  81.479   8.012  0.00  0.00    +0.000 OA
ATOM      2  C   UNL     1     -45.443  82.419   7.259  0.00  0.00    +0.000 C 
ENDROOT
BRANCH   2   3
ATOM      3  C   UNL     1     -46.154  83.668   7.406  0.00  0.00    +0.000 C 
ATOM      4  C   UNL     1     -46.930  84.989   7.573  0.00  0.00    +0.000 C 
ENDBRANCH   2   3
BRANCH   2   5
ATOM      5  C   UNL     1     -44.466  82.309   6.202  0.00  0.00    +0.000 C 
ATOM      6  C   UNL     1     -43.408  82.179   5.088  0.00  0.00    +0.000 C 
ENDBRANCH   2   5
TORSDOF 2
ENDMDL
