MODEL 1
REMARK VINA RESULT:      -7.3      0.000      0.000
REMARK  Name = 73299_Hederagenin.pdbqt.pdb
REMARK  5 active torsions:
REMARK  status: ('A' for Active; 'I' for Inactive)
REMARK    1  A    between atoms: C_9  and  C_35
REMARK    2  A    between atoms: C_14  and  C_32
REMARK    3  A    between atoms: C_17  and  O_29
REMARK    4  A    between atoms: C_32  and  O_33
REMARK    5  A    between atoms: C_35  and  O_36
REMARK                            x       y       z     vdW  Elec       q    Type
REMARK                         _______ _______ _______ _____ _____    ______ ____
ROOT
ATOM      1  C   UNL     1     -40.747 102.794   4.408  0.00  0.00    +0.000 C 
ATOM      2  C   UNL     1     -41.947 103.826   4.306  0.00  0.00    +0.000 C 
ATOM      3  C   UNL     1     -43.391 103.481   4.688  0.00  0.00    +0.000 C 
ATOM      4  C   UNL     1     -39.712 102.910   3.120  0.00  0.00    +0.000 C 
ATOM      5  C   UNL     1     -43.862 102.021   4.429  0.00  0.00    +0.000 C 
ATOM      6  C   UNL     1     -41.377 101.470   4.465  0.00  0.00    +0.000 C 
ATOM      7  C   UNL     1     -42.812 101.062   4.474  0.00  0.00    +0.000 C 
ATOM      8  C   UNL     1     -39.279 104.446   2.817  0.00  0.00    +0.000 C 
ATOM      9  C   UNL     1     -45.265 101.671   3.903  0.00  0.00    +0.000 C 
ATOM     10  C   UNL     1     -37.911 104.882   2.462  0.00  0.00    +0.000 C 
ATOM     11  C   UNL     1     -41.541 105.076   3.741  0.00  0.00    +0.000 C 
ATOM     12  C   UNL     1     -44.316 104.319   3.930  0.00  0.00    +0.000 C 
ATOM     13  C   UNL     1     -38.425 102.224   3.336  0.00  0.00    +0.000 C 
ATOM     14  C   UNL     1     -36.552 104.108   2.989  0.00  0.00    +0.000 C 
ATOM     15  C   UNL     1     -40.002 103.097   5.771  0.00  0.00    +0.000 C 
ATOM     16  C   UNL     1     -37.008 102.743   3.250  0.00  0.00    +0.000 C 
ATOM     17  C   UNL     1     -46.226 102.836   3.546  0.00  0.00    +0.000 C 
ATOM     18  C   UNL     1     -40.224 105.309   3.056  0.00  0.00    +0.000 C 
ATOM     19  C   UNL     1     -43.553 103.755   6.205  0.00  0.00    +0.000 C 
ATOM     20  C   UNL     1     -45.679 104.118   3.359  0.00  0.00    +0.000 C 
ATOM     21  C   UNL     1     -40.373 102.391   1.770  0.00  0.00    +0.000 C 
ATOM     22  C   UNL     1     -37.733 105.649   1.228  0.00  0.00    +0.000 C 
ATOM     23  C   UNL     1     -35.588 104.265   1.867  0.00  0.00    +0.000 C 
ATOM     24  C   UNL     1     -36.792 105.943   0.083  0.00  0.00    +0.000 C 
ATOM     25  C   UNL     1     -45.983 100.763   4.955  0.00  0.00    +0.000 C 
ATOM     26  C   UNL     1     -35.653 105.095   0.558  0.00  0.00    +0.000 C 
ATOM     27  C   UNL     1     -37.365 105.436  -1.253  0.00  0.00    +0.000 C 
ATOM     28  C   UNL     1     -36.416 107.435   0.032  0.00  0.00    +0.000 C 
ENDROOT
BRANCH  17  29
ATOM     29  O   UNL     1     -47.596 102.709   3.706  0.00  0.00    +0.000 OA
ATOM     30  H   UNL     1     -47.825 101.823   4.055  0.00  0.00    +0.000 HD
ENDBRANCH  17  29
BRANCH  14  32
ATOM     31  O   UNL     1     -36.752 105.207   5.184  0.00  0.00    +0.000 OA
ATOM     32  C   UNL     1     -36.060 104.840   4.243  0.00  0.00    +0.000 C 
BRANCH  32  33
ATOM     33  O   UNL     1     -34.744 105.145   4.230  0.00  0.00    +0.000 OA
ATOM     34  H   UNL     1     -34.706 106.111   4.058  0.00  0.00    +0.000 HD
ENDBRANCH  32  33
ENDBRANCH  14  32
BRANCH   9  35
ATOM     35  C   UNL     1     -45.091 100.905   2.628  0.00  0.00    +0.000 C 
BRANCH  35  36
ATOM     36  O   UNL     1     -44.930 100.211   1.498  0.00  0.00    +0.000 OA
ATOM     37  H   UNL     1     -45.712  99.660   1.311  0.00  0.00    +0.000 HD
ENDBRANCH  35  36
ENDBRANCH   9  35
TORSDOF 5
ENDMDL
MODEL 2
REMARK VINA RESULT:      -7.2     12.795     15.549
REMARK  Name = 73299_Hederagenin.pdbqt.pdb
REMARK  5 active torsions:
REMARK  status: ('A' for Active; 'I' for Inactive)
REMARK    1  A    between atoms: C_9  and  C_35
REMARK    2  A    between atoms: C_14  and  C_32
REMARK    3  A    between atoms: C_17  and  O_29
REMARK    4  A    between atoms: C_32  and  O_33
REMARK    5  A    between atoms: C_35  and  O_36
REMARK                            x       y       z     vdW  Elec       q    Type
REMARK                         _______ _______ _______ _____ _____    ______ ____
ROOT
ATOM      1  C   UNL     1     -33.528 101.825  14.894  0.00  0.00    +0.000 C 
ATOM      2  C   UNL     1     -34.365 100.596  14.342  0.00  0.00    +0.000 C 
ATOM      3  C   UNL     1     -35.670 100.750  13.555  0.00  0.00    +0.000 C 
ATOM      4  C   UNL     1     -32.925 101.541  16.410  0.00  0.00    +0.000 C 
ATOM      5  C   UNL     1     -36.587 101.950  13.931  0.00  0.00    +0.000 C 
ATOM      6  C   UNL     1     -34.459 102.959  14.897  0.00  0.00    +0.000 C 
ATOM      7  C   UNL     1     -35.883 103.065  14.465  0.00  0.00    +0.000 C 
ATOM      8  C   UNL     1     -32.185 100.099  16.516  0.00  0.00    +0.000 C 
ATOM      9  C   UNL     1     -38.121 101.851  13.986  0.00  0.00    +0.000 C 
ATOM     10  C   UNL     1     -30.915  99.852  17.233  0.00  0.00    +0.000 C 
ATOM     11  C   UNL     1     -33.807  99.340  14.738  0.00  0.00    +0.000 C 
ATOM     12  C   UNL     1     -36.502  99.564  13.740  0.00  0.00    +0.000 C 
ATOM     13  C   UNL     1     -31.877 102.497  16.815  0.00  0.00    +0.000 C 
ATOM     14  C   UNL     1     -29.737 100.995  17.399  0.00  0.00    +0.000 C 
ATOM     15  C   UNL     1     -32.364 102.085  13.853  0.00  0.00    +0.000 C 
ATOM     16  C   UNL     1     -30.461 102.261  17.287  0.00  0.00    +0.000 C 
ATOM     17  C   UNL     1     -38.777 100.469  13.724  0.00  0.00    +0.000 C 
ATOM     18  C   UNL     1     -32.737  99.177  15.781  0.00  0.00    +0.000 C 
ATOM     19  C   UNL     1     -35.299 100.905  12.058  0.00  0.00    +0.000 C 
ATOM     20  C   UNL     1     -37.972  99.320  13.818  0.00  0.00    +0.000 C 
ATOM     21  C   UNL     1     -34.068 101.504  17.514  0.00  0.00    +0.000 C 
ATOM     22  C   UNL     1     -30.898  98.808  18.259  0.00  0.00    +0.000 C 
ATOM     23  C   UNL     1     -29.139 100.708  18.730  0.00  0.00    +0.000 C 
ATOM     24  C   UNL     1     -30.288  98.380  19.574  0.00  0.00    +0.000 C 
ATOM     25  C   UNL     1     -38.726 102.870  12.963  0.00  0.00    +0.000 C 
ATOM     26  C   UNL     1     -29.346  99.536  19.724  0.00  0.00    +0.000 C 
ATOM     27  C   UNL     1     -31.344  98.353  20.694  0.00  0.00    +0.000 C 
ATOM     28  C   UNL     1     -29.540  97.042  19.440  0.00  0.00    +0.000 C 
ENDROOT
BRANCH  17  29
ATOM     29  O   UNL     1     -40.018 100.368  13.118  0.00  0.00    +0.000 OA
ATOM     30  H   UNL     1     -40.383  99.464  13.219  0.00  0.00    +0.000 HD
ENDBRANCH  17  29
BRANCH  14  32
ATOM     31  O   UNL     1     -27.562 101.182  16.257  0.00  0.00    +0.000 OA
ATOM     32  C   UNL     1     -28.715 100.772  16.277  0.00  0.00    +0.000 C 
BRANCH  32  33
ATOM     33  O   UNL     1     -29.202 100.112  15.203  0.00  0.00    +0.000 OA
ATOM     34  H   UNL     1     -29.212 100.774  14.479  0.00  0.00    +0.000 HD
ENDBRANCH  32  33
ENDBRANCH  14  32
BRANCH   9  35
ATOM     35  C   UNL     1     -38.549 102.229  15.370  0.00  0.00    +0.000 C 
BRANCH  35  36
ATOM     36  O   UNL     1     -38.928 102.580  16.602  0.00  0.00    +0.000 OA
ATOM     37  H   UNL     1     -39.540 101.923  16.981  0.00  0.00    +0.000 HD
ENDBRANCH  35  36
ENDBRANCH   9  35
TORSDOF 5
ENDMDL
MODEL 3
REMARK VINA RESULT:      -7.1     12.065     16.051
REMARK  Name = 73299_Hederagenin.pdbqt.pdb
REMARK  5 active torsions:
REMARK  status: ('A' for Active; 'I' for Inactive)
REMARK    1  A    between atoms: C_9  and  C_35
REMARK    2  A    between atoms: C_14  and  C_32
REMARK    3  A    between atoms: C_17  and  O_29
REMARK    4  A    between atoms: C_32  and  O_33
REMARK    5  A    between atoms: C_35  and  O_36
REMARK                            x       y       z     vdW  Elec       q    Type
REMARK                         _______ _______ _______ _____ _____    ______ ____
ROOT
ATOM      1  C   UNL     1     -33.740 100.291  15.911  0.00  0.00    +0.000 C 
ATOM      2  C   UNL     1     -32.422 100.793  15.185  0.00  0.00    +0.000 C 
ATOM      3  C   UNL     1     -31.009 100.472  15.685  0.00  0.00    +0.000 C 
ATOM      4  C   UNL     1     -34.919 101.453  15.940  0.00  0.00    +0.000 C 
ATOM      5  C   UNL     1     -30.812 100.356  17.224  0.00  0.00    +0.000 C 
ATOM      6  C   UNL     1     -33.321  99.926  17.269  0.00  0.00    +0.000 C 
ATOM      7  C   UNL     1     -31.980  99.942  17.923  0.00  0.00    +0.000 C 
ATOM      8  C   UNL     1     -35.149 102.131  14.481  0.00  0.00    +0.000 C 
ATOM      9  C   UNL     1     -29.572 100.896  17.956  0.00  0.00    +0.000 C 
ATOM     10  C   UNL     1     -36.470 102.460  13.902  0.00  0.00    +0.000 C 
ATOM     11  C   UNL     1     -32.708 101.644  14.071  0.00  0.00    +0.000 C 
ATOM     12  C   UNL     1     -30.086 101.520  15.262  0.00  0.00    +0.000 C 
ATOM     13  C   UNL     1     -36.253 100.929  16.291  0.00  0.00    +0.000 C 
ATOM     14  C   UNL     1     -37.842 101.607  14.244  0.00  0.00    +0.000 C 
ATOM     15  C   UNL     1     -34.224  99.001  15.130  0.00  0.00    +0.000 C 
ATOM     16  C   UNL     1     -37.569 101.020  15.555  0.00  0.00    +0.000 C 
ATOM     17  C   UNL     1     -28.503 101.656  17.126  0.00  0.00    +0.000 C 
ATOM     18  C   UNL     1     -34.058 102.236  13.780  0.00  0.00    +0.000 C 
ATOM     19  C   UNL     1     -30.589  99.116  15.063  0.00  0.00    +0.000 C 
ATOM     20  C   UNL     1     -28.866 102.141  15.857  0.00  0.00    +0.000 C 
ATOM     21  C   UNL     1     -34.549 102.661  16.905  0.00  0.00    +0.000 C 
ATOM     22  C   UNL     1     -36.704 103.836  13.463  0.00  0.00    +0.000 C 
ATOM     23  C   UNL     1     -38.921 102.630  14.204  0.00  0.00    +0.000 C 
ATOM     24  C   UNL     1     -37.744 104.921  13.303  0.00  0.00    +0.000 C 
ATOM     25  C   UNL     1     -28.858  99.706  18.679  0.00  0.00    +0.000 C 
ATOM     26  C   UNL     1     -38.920 104.118  13.769  0.00  0.00    +0.000 C 
ATOM     27  C   UNL     1     -37.455 106.110  14.237  0.00  0.00    +0.000 C 
ATOM     28  C   UNL     1     -37.888 105.351  11.832  0.00  0.00    +0.000 C 
ENDROOT
BRANCH  17  29
ATOM     29  O   UNL     1     -27.161 101.601  17.462  0.00  0.00    +0.000 OA
ATOM     30  H   UNL     1     -27.030 101.098  18.292  0.00  0.00    +0.000 HD
ENDBRANCH  17  29
BRANCH  14  32
ATOM     31  O   UNL     1     -37.742  99.379  13.199  0.00  0.00    +0.000 OA
ATOM     32  C   UNL     1     -38.028 100.567  13.132  0.00  0.00    +0.000 C 
BRANCH  32  33
ATOM     33  O   UNL     1     -38.492 101.073  11.968  0.00  0.00    +0.000 OA
ATOM     34  H   UNL     1     -39.428 100.784  11.919  0.00  0.00    +0.000 HD
ENDBRANCH  32  33
ENDBRANCH  14  32
BRANCH   9  35
ATOM     35  C   UNL     1     -30.044 101.882  18.979  0.00  0.00    +0.000 C 
BRANCH  35  36
ATOM     36  O   UNL     1     -30.474 102.752  19.897  0.00  0.00    +0.000 OA
ATOM     37  H   UNL     1     -31.315 102.456  20.293  0.00  0.00    +0.000 HD
ENDBRANCH  35  36
ENDBRANCH   9  35
TORSDOF 5
ENDMDL
MODEL 4
REMARK VINA RESULT:      -7.0      1.570      8.272
REMARK  Name = 73299_Hederagenin.pdbqt.pdb
REMARK  5 active torsions:
REMARK  status: ('A' for Active; 'I' for Inactive)
REMARK    1  A    between atoms: C_9  and  C_35
REMARK    2  A    between atoms: C_14  and  C_32
REMARK    3  A    between atoms: C_17  and  O_29
REMARK    4  A    between atoms: C_32  and  O_33
REMARK    5  A    between atoms: C_35  and  O_36
REMARK                            x       y       z     vdW  Elec       q    Type
REMARK                         _______ _______ _______ _____ _____    ______ ____
ROOT
ATOM      1  C   UNL     1     -39.302 102.965   3.145  0.00  0.00    +0.000 C 
ATOM      2  C   UNL     1     -39.194 104.425   2.537  0.00  0.00    +0.000 C 
ATOM      3  C   UNL     1     -37.872 105.191   2.410  0.00  0.00    +0.000 C 
ATOM      4  C   UNL     1     -40.638 102.785   4.107  0.00  0.00    +0.000 C 
ATOM      5  C   UNL     1     -36.802 104.944   3.513  0.00  0.00    +0.000 C 
ATOM      6  C   UNL     1     -38.066 102.770   3.911  0.00  0.00    +0.000 C 
ATOM      7  C   UNL     1     -36.884 103.657   4.114  0.00  0.00    +0.000 C 
ATOM      8  C   UNL     1     -41.988 103.338   3.393  0.00  0.00    +0.000 C 
ATOM      9  C   UNL     1     -35.923 106.063   4.096  0.00  0.00    +0.000 C 
ATOM     10  C   UNL     1     -43.304 102.664   3.439  0.00  0.00    +0.000 C 
ATOM     11  C   UNL     1     -40.474 104.970   2.205  0.00  0.00    +0.000 C 
ATOM     12  C   UNL     1     -38.128 106.627   2.443  0.00  0.00    +0.000 C 
ATOM     13  C   UNL     1     -40.959 101.379   4.412  0.00  0.00    +0.000 C 
ATOM     14  C   UNL     1     -43.475 101.027   3.560  0.00  0.00    +0.000 C 
ATOM     15  C   UNL     1     -39.340 101.964   1.919  0.00  0.00    +0.000 C 
ATOM     16  C   UNL     1     -42.232 100.593   4.199  0.00  0.00    +0.000 C 
ATOM     17  C   UNL     1     -36.168 107.517   3.611  0.00  0.00    +0.000 C 
ATOM     18  C   UNL     1     -41.786 104.377   2.634  0.00  0.00    +0.000 C 
ATOM     19  C   UNL     1     -37.233 104.800   1.052  0.00  0.00    +0.000 C 
ATOM     20  C   UNL     1     -37.384 107.809   2.969  0.00  0.00    +0.000 C 
ATOM     21  C   UNL     1     -40.518 103.610   5.462  0.00  0.00    +0.000 C 
ATOM     22  C   UNL     1     -44.452 103.432   3.924  0.00  0.00    +0.000 C 
ATOM     23  C   UNL     1     -44.713 100.851   4.365  0.00  0.00    +0.000 C 
ATOM     24  C   UNL     1     -45.769 103.350   4.660  0.00  0.00    +0.000 C 
ATOM     25  C   UNL     1     -34.422 105.714   3.824  0.00  0.00    +0.000 C 
ATOM     26  C   UNL     1     -45.776 101.865   4.860  0.00  0.00    +0.000 C 
ATOM     27  C   UNL     1     -45.706 104.108   5.999  0.00  0.00    +0.000 C 
ATOM     28  C   UNL     1     -46.939 103.817   3.775  0.00  0.00    +0.000 C 
ENDROOT
BRANCH  17  29
ATOM     29  O   UNL     1     -35.128 108.427   3.521  0.00  0.00    +0.000 OA
ATOM     30  H   UNL     1     -34.601 108.276   2.709  0.00  0.00    +0.000 HD
ENDBRANCH  17  29
BRANCH  14  32
ATOM     31  O   UNL     1     -42.767 100.111   1.385  0.00  0.00    +0.000 OA
ATOM     32  C   UNL     1     -43.659 100.476   2.140  0.00  0.00    +0.000 C 
BRANCH  32  33
ATOM     33  O   UNL     1     -44.938 100.476   1.704  0.00  0.00    +0.000 OA
ATOM     34  H   UNL     1     -44.875 100.529   0.727  0.00  0.00    +0.000 HD
ENDBRANCH  32  33
ENDBRANCH  14  32
BRANCH   9  35
ATOM     35  C   UNL     1     -36.160 106.101   5.574  0.00  0.00    +0.000 C 
BRANCH  35  36
ATOM     36  O   UNL     1     -36.381 106.122   6.891  0.00  0.00    +0.000 OA
ATOM     37  H   UNL     1     -35.558 105.955   7.387  0.00  0.00    +0.000 HD
ENDBRANCH  35  36
ENDBRANCH   9  35
TORSDOF 5
ENDMDL
MODEL 5
REMARK VINA RESULT:      -6.9     13.126     15.609
REMARK  Name = 73299_Hederagenin.pdbqt.pdb
REMARK  5 active torsions:
REMARK  status: ('A' for Active; 'I' for Inactive)
REMARK    1  A    between atoms: C_9  and  C_35
REMARK    2  A    between atoms: C_14  and  C_32
REMARK    3  A    between atoms: C_17  and  O_29
REMARK    4  A    between atoms: C_32  and  O_33
REMARK    5  A    between atoms: C_35  and  O_36
REMARK                            x       y       z     vdW  Elec       q    Type
REMARK                         _______ _______ _______ _____ _____    ______ ____
ROOT
ATOM      1  C   UNL     1     -33.730  99.725  15.788  0.00  0.00    +0.000 C 
ATOM      2  C   UNL     1     -34.897 100.188  16.757  0.00  0.00    +0.000 C 
ATOM      3  C   UNL     1     -36.384 100.010  16.434  0.00  0.00    +0.000 C 
ATOM      4  C   UNL     1     -32.489 100.819  15.736  0.00  0.00    +0.000 C 
ATOM      5  C   UNL     1     -36.801 100.116  14.938  0.00  0.00    +0.000 C 
ATOM      6  C   UNL     1     -34.358  99.571  14.471  0.00  0.00    +0.000 C 
ATOM      7  C   UNL     1     -35.772  99.744  14.028  0.00  0.00    +0.000 C 
ATOM      8  C   UNL     1     -32.012 101.279  17.219  0.00  0.00    +0.000 C 
ATOM      9  C   UNL     1     -38.090 100.812  14.472  0.00  0.00    +0.000 C 
ATOM     10  C   UNL     1     -30.604 101.459  17.636  0.00  0.00    +0.000 C 
ATOM     11  C   UNL     1     -34.401 100.863  17.918  0.00  0.00    +0.000 C 
ATOM     12  C   UNL     1     -37.165 101.035  17.119  0.00  0.00    +0.000 C 
ATOM     13  C   UNL     1     -31.257 100.283  15.128  0.00  0.00    +0.000 C 
ATOM     14  C   UNL     1     -29.356 100.594  16.990  0.00  0.00    +0.000 C 
ATOM     15  C   UNL     1     -33.232  98.318  16.316  0.00  0.00    +0.000 C 
ATOM     16  C   UNL     1     -29.848 100.206  15.668  0.00  0.00    +0.000 C 
ATOM     17  C   UNL     1     -38.978 101.504  15.541  0.00  0.00    +0.000 C 
ATOM     18  C   UNL     1     -32.986 101.341  18.081  0.00  0.00    +0.000 C 
ATOM     19  C   UNL     1     -36.806  98.603  16.932  0.00  0.00    +0.000 C 
ATOM     20  C   UNL     1     -38.409 101.792  16.795  0.00  0.00    +0.000 C 
ATOM     21  C   UNL     1     -32.905 102.166  14.998  0.00  0.00    +0.000 C 
ATOM     22  C   UNL     1     -30.217 102.748  18.209  0.00  0.00    +0.000 C 
ATOM     23  C   UNL     1     -28.213 101.546  17.001  0.00  0.00    +0.000 C 
ATOM     24  C   UNL     1     -29.093 103.748  18.353  0.00  0.00    +0.000 C 
ATOM     25  C   UNL     1     -38.978  99.770  13.715  0.00  0.00    +0.000 C 
ATOM     26  C   UNL     1     -28.051 102.959  17.620  0.00  0.00    +0.000 C 
ATOM     27  C   UNL     1     -29.426 105.067  17.632  0.00  0.00    +0.000 C 
ATOM     28  C   UNL     1     -28.716 103.964  19.829  0.00  0.00    +0.000 C 
ENDROOT
BRANCH  17  29
ATOM     29  O   UNL     1     -40.354 101.562  15.402  0.00  0.00    +0.000 OA
ATOM     30  H   UNL     1     -40.764 102.010  16.171  0.00  0.00    +0.000 HD
ENDBRANCH  17  29
BRANCH  14  32
ATOM     31  O   UNL     1     -29.575  98.284  17.817  0.00  0.00    +0.000 OA
ATOM     32  C   UNL     1     -29.089  99.403  17.918  0.00  0.00    +0.000 C 
BRANCH  32  33
ATOM     33  O   UNL     1     -28.289  99.685  18.970  0.00  0.00    +0.000 OA
ATOM     34  H   UNL     1     -28.100  98.818  19.388  0.00  0.00    +0.000 HD
ENDBRANCH  32  33
ENDBRANCH  14  32
BRANCH   9  35
ATOM     35  C   UNL     1     -37.698 101.905  13.526  0.00  0.00    +0.000 C 
BRANCH  35  36
ATOM     36  O   UNL     1     -37.355 102.889  12.691  0.00  0.00    +0.000 OA
ATOM     37  H   UNL     1     -38.069 103.073  12.053  0.00  0.00    +0.000 HD
ENDBRANCH  35  36
ENDBRANCH   9  35
TORSDOF 5
ENDMDL
MODEL 6
REMARK VINA RESULT:      -6.8      1.664      2.440
REMARK  Name = 73299_Hederagenin.pdbqt.pdb
REMARK  5 active torsions:
REMARK  status: ('A' for Active; 'I' for Inactive)
REMARK    1  A    between atoms: C_9  and  C_35
REMARK    2  A    between atoms: C_14  and  C_32
REMARK    3  A    between atoms: C_17  and  O_29
REMARK    4  A    between atoms: C_32  and  O_33
REMARK    5  A    between atoms: C_35  and  O_36
REMARK                            x       y       z     vdW  Elec       q    Type
REMARK                         _______ _______ _______ _____ _____    ______ ____
ROOT
ATOM      1  C   UNL     1     -42.347 101.597   3.033  0.00  0.00    +0.000 C 
ATOM      2  C   UNL     1     -43.528 102.451   3.658  0.00  0.00    +0.000 C 
ATOM      3  C   UNL     1     -44.979 101.963   3.726  0.00  0.00    +0.000 C 
ATOM      4  C   UNL     1     -41.307 102.527   2.141  0.00  0.00    +0.000 C 
ATOM      5  C   UNL     1     -45.477 101.057   2.563  0.00  0.00    +0.000 C 
ATOM      6  C   UNL     1     -43.002 100.584   2.196  0.00  0.00    +0.000 C 
ATOM      7  C   UNL     1     -44.444 100.297   1.945  0.00  0.00    +0.000 C 
ATOM      8  C   UNL     1     -40.844 103.865   2.938  0.00  0.00    +0.000 C 
ATOM      9  C   UNL     1     -46.883 101.170   1.951  0.00  0.00    +0.000 C 
ATOM     10  C   UNL     1     -39.467 104.406   2.952  0.00  0.00    +0.000 C 
ATOM     11  C   UNL     1     -43.097 103.752   4.069  0.00  0.00    +0.000 C 
ATOM     12  C   UNL     1     -45.886 103.107   3.731  0.00  0.00    +0.000 C 
ATOM     13  C   UNL     1     -40.033 101.852   1.831  0.00  0.00    +0.000 C 
ATOM     14  C   UNL     1     -38.125 103.456   2.813  0.00  0.00    +0.000 C 
ATOM     15  C   UNL     1     -41.601 100.899   4.242  0.00  0.00    +0.000 C 
ATOM     16  C   UNL     1     -38.607 102.273   2.099  0.00  0.00    +0.000 C 
ATOM     17  C   UNL     1     -47.822 102.291   2.474  0.00  0.00    +0.000 C 
ATOM     18  C   UNL     1     -41.774 104.362   3.702  0.00  0.00    +0.000 C 
ATOM     19  C   UNL     1     -45.141 101.156   5.040  0.00  0.00    +0.000 C 
ATOM     20  C   UNL     1     -47.251 103.361   3.186  0.00  0.00    +0.000 C 
ATOM     21  C   UNL     1     -41.972 103.054   0.797  0.00  0.00    +0.000 C 
ATOM     22  C   UNL     1     -39.271 105.797   2.544  0.00  0.00    +0.000 C 
ATOM     23  C   UNL     1     -37.154 104.307   2.073  0.00  0.00    +0.000 C 
ATOM     24  C   UNL     1     -38.321 106.767   1.879  0.00  0.00    +0.000 C 
ATOM     25  C   UNL     1     -47.622  99.803   2.135  0.00  0.00    +0.000 C 
ATOM     26  C   UNL     1     -37.199 105.800   1.655  0.00  0.00    +0.000 C 
ATOM     27  C   UNL     1     -38.900 107.291   0.552  0.00  0.00    +0.000 C 
ATOM     28  C   UNL     1     -37.917 107.904   2.834  0.00  0.00    +0.000 C 
ENDROOT
BRANCH  17  29
ATOM     29  O   UNL     1     -49.194 102.112   2.522  0.00  0.00    +0.000 OA
ATOM     30  H   UNL     1     -49.662 102.943   2.296  0.00  0.00    +0.000 HD
ENDBRANCH  17  29
BRANCH  14  32
ATOM     31  O   UNL     1     -38.279 103.232   5.261  0.00  0.00    +0.000 OA
ATOM     32  C   UNL     1     -37.623 103.155   4.230  0.00  0.00    +0.000 C 
BRANCH  32  33
ATOM     33  O   UNL     1     -36.310 102.844   4.302  0.00  0.00    +0.000 OA
ATOM     34  H   UNL     1     -36.123 102.333   3.486  0.00  0.00    +0.000 HD
ENDBRANCH  32  33
ENDBRANCH  14  32
BRANCH   9  35
ATOM     35  C   UNL     1     -46.720 101.450   0.490  0.00  0.00    +0.000 C 
BRANCH  35  36
ATOM     36  O   UNL     1     -46.582 101.713  -0.813  0.00  0.00    +0.000 OA
ATOM     37  H   UNL     1     -47.442 101.921  -1.222  0.00  0.00    +0.000 HD
ENDBRANCH  35  36
ENDBRANCH   9  35
TORSDOF 5
ENDMDL
MODEL 7
REMARK VINA RESULT:      -6.5     15.822     19.146
REMARK  Name = 73299_Hederagenin.pdbqt.pdb
REMARK  5 active torsions:
REMARK  status: ('A' for Active; 'I' for Inactive)
REMARK    1  A    between atoms: C_9  and  C_35
REMARK    2  A    between atoms: C_14  and  C_32
REMARK    3  A    between atoms: C_17  and  O_29
REMARK    4  A    between atoms: C_32  and  O_33
REMARK    5  A    between atoms: C_35  and  O_36
REMARK                            x       y       z     vdW  Elec       q    Type
REMARK                         _______ _______ _______ _____ _____    ______ ____
ROOT
ATOM      1  C   UNL     1     -22.719 103.323   3.755  0.00  0.00    +0.000 C 
ATOM      2  C   UNL     1     -22.954 101.758   3.866  0.00  0.00    +0.000 C 
ATOM      3  C   UNL     1     -22.427 100.905   5.024  0.00  0.00    +0.000 C 
ATOM      4  C   UNL     1     -22.384 103.797   2.204  0.00  0.00    +0.000 C 
ATOM      5  C   UNL     1     -21.069 101.330   5.656  0.00  0.00    +0.000 C 
ATOM      6  C   UNL     1     -21.595 103.611   4.652  0.00  0.00    +0.000 C 
ATOM      7  C   UNL     1     -20.798 102.723   5.549  0.00  0.00    +0.000 C 
ATOM      8  C   UNL     1     -23.437 103.179   1.133  0.00  0.00    +0.000 C 
ATOM      9  C   UNL     1     -19.998 100.322   6.105  0.00  0.00    +0.000 C 
ATOM     10  C   UNL     1     -24.018 103.925  -0.006  0.00  0.00    +0.000 C 
ATOM     11  C   UNL     1     -23.635 101.231   2.723  0.00  0.00    +0.000 C 
ATOM     12  C   UNL     1     -22.222  99.532   4.574  0.00  0.00    +0.000 C 
ATOM     13  C   UNL     1     -22.494 105.253   1.997  0.00  0.00    +0.000 C 
ATOM     14  C   UNL     1     -24.282 105.553   0.025  0.00  0.00    +0.000 C 
ATOM     15  C   UNL     1     -24.034 104.019   4.296  0.00  0.00    +0.000 C 
ATOM     16  C   UNL     1     -23.315 106.045   1.007  0.00  0.00    +0.000 C 
ATOM     17  C   UNL     1     -20.257  98.814   5.846  0.00  0.00    +0.000 C 
ATOM     18  C   UNL     1     -23.853 101.985   1.442  0.00  0.00    +0.000 C 
ATOM     19  C   UNL     1     -23.490 100.938   6.152  0.00  0.00    +0.000 C 
ATOM     20  C   UNL     1     -21.242  98.457   4.908  0.00  0.00    +0.000 C 
ATOM     21  C   UNL     1     -20.955 103.296   1.718  0.00  0.00    +0.000 C 
ATOM     22  C   UNL     1     -23.867 103.358  -1.346  0.00  0.00    +0.000 C 
ATOM     23  C   UNL     1     -24.052 105.983  -1.381  0.00  0.00    +0.000 C 
ATOM     24  C   UNL     1     -23.712 103.685  -2.814  0.00  0.00    +0.000 C 
ATOM     25  C   UNL     1     -19.744 100.508   7.637  0.00  0.00    +0.000 C 
ATOM     26  C   UNL     1     -23.813 105.174  -2.682  0.00  0.00    +0.000 C 
ATOM     27  C   UNL     1     -22.331 103.248  -3.338  0.00  0.00    +0.000 C 
ATOM     28  C   UNL     1     -24.867 103.101  -3.646  0.00  0.00    +0.000 C 
ENDROOT
BRANCH  17  29
ATOM     29  O   UNL     1     -19.774  97.845   6.710  0.00  0.00    +0.000 OA
ATOM     30  H   UNL     1     -20.386  97.715   7.464  0.00  0.00    +0.000 HD
ENDBRANCH  17  29
BRANCH  14  32
ATOM     31  O   UNL     1     -26.601 106.344  -0.227  0.00  0.00    +0.000 OA
ATOM     32  C   UNL     1     -25.742 105.778   0.436  0.00  0.00    +0.000 C 
BRANCH  32  33
ATOM     33  O   UNL     1     -26.042 105.351   1.683  0.00  0.00    +0.000 OA
ATOM     34  H   UNL     1     -25.359 104.679   1.894  0.00  0.00    +0.000 HD
ENDBRANCH  32  33
ENDBRANCH  14  32
BRANCH   9  35
ATOM     35  C   UNL     1     -18.740 100.636   5.355  0.00  0.00    +0.000 C 
BRANCH  35  36
ATOM     36  O   UNL     1     -17.625 100.912   4.673  0.00  0.00    +0.000 OA
ATOM     37  H   UNL     1     -17.575 101.860   4.452  0.00  0.00    +0.000 HD
ENDBRANCH  35  36
ENDBRANCH   9  35
TORSDOF 5
ENDMDL
MODEL 8
REMARK VINA RESULT:      -6.3     17.493     21.961
REMARK  Name = 73299_Hederagenin.pdbqt.pdb
REMARK  5 active torsions:
REMARK  status: ('A' for Active; 'I' for Inactive)
REMARK    1  A    between atoms: C_9  and  C_35
REMARK    2  A    between atoms: C_14  and  C_32
REMARK    3  A    between atoms: C_17  and  O_29
REMARK    4  A    between atoms: C_32  and  O_33
REMARK    5  A    between atoms: C_35  and  O_36
REMARK                            x       y       z     vdW  Elec       q    Type
REMARK                         _______ _______ _______ _____ _____    ______ ____
ROOT
ATOM      1  C   UNL     1     -20.790  99.926   9.037  0.00  0.00    +0.000 C 
ATOM      2  C   UNL     1     -19.253 100.290   9.178  0.00  0.00    +0.000 C 
ATOM      3  C   UNL     1     -18.382  99.832  10.353  0.00  0.00    +0.000 C 
ATOM      4  C   UNL     1     -21.686 101.200   8.475  0.00  0.00    +0.000 C 
ATOM      5  C   UNL     1     -19.074  99.704  11.741  0.00  0.00    +0.000 C 
ATOM      6  C   UNL     1     -21.221  99.528  10.382  0.00  0.00    +0.000 C 
ATOM      7  C   UNL     1     -20.465  99.413  11.664  0.00  0.00    +0.000 C 
ATOM      8  C   UNL     1     -21.016 101.891   7.165  0.00  0.00    +0.000 C 
ATOM      9  C   UNL     1     -18.399 100.121  13.058  0.00  0.00    +0.000 C 
ATOM     10  C   UNL     1     -21.766 102.348   5.975  0.00  0.00    +0.000 C 
ATOM     11  C   UNL     1     -18.804 101.160   8.134  0.00  0.00    +0.000 C 
ATOM     12  C   UNL     1     -17.291 100.780  10.558  0.00  0.00    +0.000 C 
ATOM     13  C   UNL     1     -23.032 100.815   8.012  0.00  0.00    +0.000 C 
ATOM     14  C   UNL     1     -23.167 101.639   5.466  0.00  0.00    +0.000 C 
ATOM     15  C   UNL     1     -20.875  98.688   8.054  0.00  0.00    +0.000 C 
ATOM     16  C   UNL     1     -23.713 101.033   6.681  0.00  0.00    +0.000 C 
ATOM     17  C   UNL     1     -16.990 100.766  12.988  0.00  0.00    +0.000 C 
ATOM     18  C   UNL     1     -19.714 101.883   7.182  0.00  0.00    +0.000 C 
ATOM     19  C   UNL     1     -17.808  98.437   9.994  0.00  0.00    +0.000 C 
ATOM     20  C   UNL     1     -16.551 101.279  11.754  0.00  0.00    +0.000 C 
ATOM     21  C   UNL     1     -21.805 102.370   9.545  0.00  0.00    +0.000 C 
ATOM     22  C   UNL     1     -21.600 103.738   5.550  0.00  0.00    +0.000 C 
ATOM     23  C   UNL     1     -23.954 102.764   4.894  0.00  0.00    +0.000 C 
ATOM     24  C   UNL     1     -22.282 104.921   4.902  0.00  0.00    +0.000 C 
ATOM     25  C   UNL     1     -18.307  98.869  13.992  0.00  0.00    +0.000 C 
ATOM     26  C   UNL     1     -23.585 104.243   4.607  0.00  0.00    +0.000 C 
ATOM     27  C   UNL     1     -22.453 106.080   5.901  0.00  0.00    +0.000 C 
ATOM     28  C   UNL     1     -21.556 105.356   3.617  0.00  0.00    +0.000 C 
ENDROOT
BRANCH  17  29
ATOM     29  O   UNL     1     -16.064 100.578  14.001  0.00  0.00    +0.000 OA
ATOM     30  H   UNL     1     -15.535  99.769  13.844  0.00  0.00    +0.000 HD
ENDBRANCH  17  29
BRANCH  14  32
ATOM     31  O   UNL     1     -22.659 100.848   3.189  0.00  0.00    +0.000 OA
ATOM     32  C   UNL     1     -22.801 100.617   4.383  0.00  0.00    +0.000 C 
BRANCH  32  33
ATOM     33  O   UNL     1     -22.702  99.345   4.827  0.00  0.00    +0.000 OA
ATOM     34  H   UNL     1     -23.619  99.084   5.061  0.00  0.00    +0.000 HD
ENDBRANCH  32  33
ENDBRANCH  14  32
BRANCH   9  35
ATOM     35  C   UNL     1     -19.269 101.154  13.704  0.00  0.00    +0.000 C 
BRANCH  35  36
ATOM     36  O   UNL     1     -20.037 102.075  14.293  0.00  0.00    +0.000 OA
ATOM     37  H   UNL     1     -20.649 102.483  13.653  0.00  0.00    +0.000 HD
ENDBRANCH  35  36
ENDBRANCH   9  35
TORSDOF 5
ENDMDL
MODEL 9
REMARK VINA RESULT:      -6.2     16.191     20.999
REMARK  Name = 73299_Hederagenin.pdbqt.pdb
REMARK  5 active torsions:
REMARK  status: ('A' for Active; 'I' for Inactive)
REMARK    1  A    between atoms: C_9  and  C_35
REMARK    2  A    between atoms: C_14  and  C_32
REMARK    3  A    between atoms: C_17  and  O_29
REMARK    4  A    between atoms: C_32  and  O_33
REMARK    5  A    between atoms: C_35  and  O_36
REMARK                            x       y       z     vdW  Elec       q    Type
REMARK                         _______ _______ _______ _____ _____    ______ ____
ROOT
ATOM      1  C   UNL     1     -21.044 100.177   6.399  0.00  0.00    +0.000 C 
ATOM      2  C   UNL     1     -19.628 100.862   6.603  0.00  0.00    +0.000 C 
ATOM      3  C   UNL     1     -18.562 100.327   7.565  0.00  0.00    +0.000 C 
ATOM      4  C   UNL     1     -22.263 101.290   6.265  0.00  0.00    +0.000 C 
ATOM      5  C   UNL     1     -19.064  99.643   8.869  0.00  0.00    +0.000 C 
ATOM      6  C   UNL     1     -21.234  99.321   7.576  0.00  0.00    +0.000 C 
ATOM      7  C   UNL     1     -20.349  99.044   8.745  0.00  0.00    +0.000 C 
ATOM      8  C   UNL     1     -21.906 102.467   5.204  0.00  0.00    +0.000 C 
ATOM      9  C   UNL     1     -18.378  99.827  10.233  0.00  0.00    +0.000 C 
ATOM     10  C   UNL     1     -22.856 103.036   4.223  0.00  0.00    +0.000 C 
ATOM     11  C   UNL     1     -19.500 102.075   5.854  0.00  0.00    +0.000 C 
ATOM     12  C   UNL     1     -17.708 101.422   8.015  0.00  0.00    +0.000 C 
ATOM     13  C   UNL     1     -23.521 100.724   5.744  0.00  0.00    +0.000 C 
ATOM     14  C   UNL     1     -24.096 102.170   3.563  0.00  0.00    +0.000 C 
ATOM     15  C   UNL     1     -20.934  99.286   5.096  0.00  0.00    +0.000 C 
ATOM     16  C   UNL     1     -24.363 101.129   4.556  0.00  0.00    +0.000 C 
ATOM     17  C   UNL     1     -17.172 100.800  10.322  0.00  0.00    +0.000 C 
ATOM     18  C   UNL     1     -20.643 102.783   5.184  0.00  0.00    +0.000 C 
ATOM     19  C   UNL     1     -17.717  99.281   6.792  0.00  0.00    +0.000 C 
ATOM     20  C   UNL     1     -16.990 101.733   9.286  0.00  0.00    +0.000 C 
ATOM     21  C   UNL     1     -22.545 102.041   7.638  0.00  0.00    +0.000 C 
ATOM     22  C   UNL     1     -23.062 104.485   4.227  0.00  0.00    +0.000 C 
ATOM     23  C   UNL     1     -25.177 103.174   3.372  0.00  0.00    +0.000 C 
ATOM     24  C   UNL     1     -24.062 105.590   3.979  0.00  0.00    +0.000 C 
ATOM     25  C   UNL     1     -17.904  98.429  10.750  0.00  0.00    +0.000 C 
ATOM     26  C   UNL     1     -25.193 104.717   3.529  0.00  0.00    +0.000 C 
ATOM     27  C   UNL     1     -24.399 106.339   5.281  0.00  0.00    +0.000 C 
ATOM     28  C   UNL     1     -23.588 106.538   2.863  0.00  0.00    +0.000 C 
ENDROOT
BRANCH  17  29
ATOM     29  O   UNL     1     -16.133 100.574  11.209  0.00  0.00    +0.000 OA
ATOM     30  H   UNL     1     -16.410 100.773  12.128  0.00  0.00    +0.000 HD
ENDBRANCH  17  29
BRANCH  14  32
ATOM     31  O   UNL     1     -22.990 102.244   1.363  0.00  0.00    +0.000 OA
ATOM     32  C   UNL     1     -23.611 101.622   2.215  0.00  0.00    +0.000 C 
BRANCH  32  33
ATOM     33  O   UNL     1     -23.986 100.348   1.964  0.00  0.00    +0.000 OA
ATOM     34  H   UNL     1     -23.277  99.980   1.394  0.00  0.00    +0.000 HD
ENDBRANCH  32  33
ENDBRANCH  14  32
BRANCH   9  35
ATOM     35  C   UNL     1     -19.397 100.383  11.180  0.00  0.00    +0.000 C 
BRANCH  35  36
ATOM     36  O   UNL     1     -20.297 100.891  12.026  0.00  0.00    +0.000 OA
ATOM     37  H   UNL     1     -21.056 100.288  12.135  0.00  0.00    +0.000 HD
ENDBRANCH  35  36
ENDBRANCH   9  35
TORSDOF 5
ENDMDL
