MODEL 1
REMARK VINA RESULT:      -7.7      0.000      0.000
REMARK  Name = 73659_MaslinicAcid.pdbqt.pdb
REMARK  4 active torsions:
REMARK  status: ('A' for Active; 'I' for Inactive)
REMARK    1  A    between atoms: C_14  and  C_35
REMARK    2  A    between atoms: C_17  and  O_30
REMARK    3  A    between atoms: C_19  and  O_32
REMARK    4  A    between atoms: C_35  and  O_36
REMARK                            x       y       z     vdW  Elec       q    Type
REMARK                         _______ _______ _______ _____ _____    ______ ____
ROOT
ATOM      1  C   UNL     1     -34.000 100.401  15.865  0.00  0.00    +0.000 C 
ATOM      2  C   UNL     1     -32.634 100.819  15.169  0.00  0.00    +0.000 C 
ATOM      3  C   UNL     1     -31.257 100.400  15.692  0.00  0.00    +0.000 C 
ATOM      4  C   UNL     1     -35.102 101.635  15.873  0.00  0.00    +0.000 C 
ATOM      5  C   UNL     1     -31.100 100.234  17.208  0.00  0.00    +0.000 C 
ATOM      6  C   UNL     1     -33.629 100.006  17.229  0.00  0.00    +0.000 C 
ATOM      7  C   UNL     1     -32.299  99.911  17.900  0.00  0.00    +0.000 C 
ATOM      8  C   UNL     1     -35.258 102.325  14.410  0.00  0.00    +0.000 C 
ATOM      9  C   UNL     1     -29.773 100.558  17.876  0.00  0.00    +0.000 C 
ATOM     10  C   UNL     1     -36.544 102.718  13.793  0.00  0.00    +0.000 C 
ATOM     11  C   UNL     1     -32.841 101.690  14.053  0.00  0.00    +0.000 C 
ATOM     12  C   UNL     1     -30.268 101.407  15.346  0.00  0.00    +0.000 C 
ATOM     13  C   UNL     1     -36.472 101.196  16.196  0.00  0.00    +0.000 C 
ATOM     14  C   UNL     1     -37.967 101.941  14.103  0.00  0.00    +0.000 C 
ATOM     15  C   UNL     1     -34.544  99.144  15.071  0.00  0.00    +0.000 C 
ATOM     16  C   UNL     1     -37.763 101.354  15.427  0.00  0.00    +0.000 C 
ATOM     17  C   UNL     1     -28.748 101.431  17.108  0.00  0.00    +0.000 C 
ATOM     18  C   UNL     1     -30.899  99.047  15.031  0.00  0.00    +0.000 C 
ATOM     19  C   UNL     1     -29.104 101.983  15.845  0.00  0.00    +0.000 C 
ATOM     20  C   UNL     1     -34.145 102.365  13.734  0.00  0.00    +0.000 C 
ATOM     21  C   UNL     1     -34.672 102.815  16.846  0.00  0.00    +0.000 C 
ATOM     22  C   UNL     1     -36.693 104.098  13.333  0.00  0.00    +0.000 C 
ATOM     23  C   UNL     1     -38.991 103.017  14.020  0.00  0.00    +0.000 C 
ATOM     24  C   UNL     1     -37.672 105.233  13.129  0.00  0.00    +0.000 C 
ATOM     25  C   UNL     1     -30.061 101.368  19.188  0.00  0.00    +0.000 C 
ATOM     26  C   UNL     1     -29.056  99.233  18.264  0.00  0.00    +0.000 C 
ATOM     27  C   UNL     1     -38.901 104.498  13.569  0.00  0.00    +0.000 C 
ATOM     28  C   UNL     1     -37.750 105.649  11.649  0.00  0.00    +0.000 C 
ATOM     29  C   UNL     1     -37.350 106.418  14.057  0.00  0.00    +0.000 C 
ENDROOT
BRANCH  17  30
ATOM     30  O   UNL     1     -27.462 101.699  17.572  0.00  0.00    +0.000 OA
ATOM     31  H   UNL     1     -27.392 102.618  17.907  0.00  0.00    +0.000 HD
ENDBRANCH  17  30
BRANCH  19  32
ATOM     32  O   UNL     1     -28.172 102.596  15.063  0.00  0.00    +0.000 OA
ATOM     33  H   UNL     1     -27.346 102.076  15.029  0.00  0.00    +0.000 HD
ENDBRANCH  19  32
BRANCH  14  35
ATOM     34  O   UNL     1     -37.357 100.565  12.152  0.00  0.00    +0.000 OA
ATOM     35  C   UNL     1     -38.175 100.897  13.000  0.00  0.00    +0.000 C 
BRANCH  35  36
ATOM     36  O   UNL     1     -39.420 100.370  12.961  0.00  0.00    +0.000 OA
ATOM     37  H   UNL     1     -39.947 100.915  13.586  0.00  0.00    +0.000 HD
ENDBRANCH  35  36
ENDBRANCH  14  35
TORSDOF 4
ENDMDL
MODEL 2
REMARK VINA RESULT:      -7.6     11.886     15.911
REMARK  Name = 73659_MaslinicAcid.pdbqt.pdb
REMARK  4 active torsions:
REMARK  status: ('A' for Active; 'I' for Inactive)
REMARK    1  A    between atoms: C_14  and  C_35
REMARK    2  A    between atoms: C_17  and  O_30
REMARK    3  A    between atoms: C_19  and  O_32
REMARK    4  A    between atoms: C_35  and  O_36
REMARK                            x       y       z     vdW  Elec       q    Type
REMARK                         _______ _______ _______ _____ _____    ______ ____
ROOT
ATOM      1  C   UNL     1     -40.603 102.726   4.167  0.00  0.00    +0.000 C 
ATOM      2  C   UNL     1     -41.850 103.700   4.023  0.00  0.00    +0.000 C 
ATOM      3  C   UNL     1     -43.290 103.278   4.329  0.00  0.00    +0.000 C 
ATOM      4  C   UNL     1     -39.510 102.922   2.940  0.00  0.00    +0.000 C 
ATOM      5  C   UNL     1     -43.669 101.817   4.057  0.00  0.00    +0.000 C 
ATOM      6  C   UNL     1     -41.171 101.373   4.166  0.00  0.00    +0.000 C 
ATOM      7  C   UNL     1     -42.586 100.899   4.117  0.00  0.00    +0.000 C 
ATOM      8  C   UNL     1     -39.139 104.485   2.695  0.00  0.00    +0.000 C 
ATOM      9  C   UNL     1     -45.079 101.468   3.608  0.00  0.00    +0.000 C 
ATOM     10  C   UNL     1     -37.775 105.001   2.445  0.00  0.00    +0.000 C 
ATOM     11  C   UNL     1     -41.479 104.980   3.503  0.00  0.00    +0.000 C 
ATOM     12  C   UNL     1     -44.215 104.039   3.505  0.00  0.00    +0.000 C 
ATOM     13  C   UNL     1     -38.204 102.294   3.211  0.00  0.00    +0.000 C 
ATOM     14  C   UNL     1     -36.415 104.280   3.041  0.00  0.00    +0.000 C 
ATOM     15  C   UNL     1     -39.951 103.033   5.576  0.00  0.00    +0.000 C 
ATOM     16  C   UNL     1     -36.813 102.885   3.229  0.00  0.00    +0.000 C 
ATOM     17  C   UNL     1     -45.978 102.594   3.035  0.00  0.00    +0.000 C 
ATOM     18  C   UNL     1     -43.551 103.559   5.828  0.00  0.00    +0.000 C 
ATOM     19  C   UNL     1     -45.437 103.900   2.857  0.00  0.00    +0.000 C 
ATOM     20  C   UNL     1     -40.140 105.293   2.897  0.00  0.00    +0.000 C 
ATOM     21  C   UNL     1     -40.076 102.406   1.547  0.00  0.00    +0.000 C 
ATOM     22  C   UNL     1     -37.556 105.817   1.252  0.00  0.00    +0.000 C 
ATOM     23  C   UNL     1     -35.388 104.526   1.994  0.00  0.00    +0.000 C 
ATOM     24  C   UNL     1     -36.555 106.202   0.185  0.00  0.00    +0.000 C 
ATOM     25  C   UNL     1     -44.986 100.422   2.442  0.00  0.00    +0.000 C 
ATOM     26  C   UNL     1     -45.849 100.816   4.792  0.00  0.00    +0.000 C 
ATOM     27  C   UNL     1     -35.407 105.397   0.712  0.00  0.00    +0.000 C 
ATOM     28  C   UNL     1     -36.258 107.712   0.211  0.00  0.00    +0.000 C 
ATOM     29  C   UNL     1     -37.007 105.715  -1.204  0.00  0.00    +0.000 C 
ENDROOT
BRANCH  17  30
ATOM     30  O   UNL     1     -47.317 102.416   2.697  0.00  0.00    +0.000 OA
ATOM     31  H   UNL     1     -47.532 102.871   1.857  0.00  0.00    +0.000 HD
ENDBRANCH  17  30
BRANCH  19  32
ATOM     32  O   UNL     1     -46.243 104.950   2.534  0.00  0.00    +0.000 OA
ATOM     33  H   UNL     1     -47.155 104.650   2.353  0.00  0.00    +0.000 HD
ENDBRANCH  19  32
BRANCH  14  35
ATOM     34  O   UNL     1     -36.795 105.189   5.299  0.00  0.00    +0.000 OA
ATOM     35  C   UNL     1     -36.049 104.990   4.350  0.00  0.00    +0.000 C 
BRANCH  35  36
ATOM     36  O   UNL     1     -34.790 105.482   4.382  0.00  0.00    +0.000 OA
ATOM     37  H   UNL     1     -34.267 104.880   3.808  0.00  0.00    +0.000 HD
ENDBRANCH  35  36
ENDBRANCH  14  35
TORSDOF 4
ENDMDL
MODEL 3
REMARK VINA RESULT:      -7.4      2.013      8.530
REMARK  Name = 73659_MaslinicAcid.pdbqt.pdb
REMARK  4 active torsions:
REMARK  status: ('A' for Active; 'I' for Inactive)
REMARK    1  A    between atoms: C_14  and  C_35
REMARK    2  A    between atoms: C_17  and  O_30
REMARK    3  A    between atoms: C_19  and  O_32
REMARK    4  A    between atoms: C_35  and  O_36
REMARK                            x       y       z     vdW  Elec       q    Type
REMARK                         _______ _______ _______ _____ _____    ______ ____
ROOT
ATOM      1  C   UNL     1     -34.384 101.439  14.897  0.00  0.00    +0.000 C 
ATOM      2  C   UNL     1     -35.563 100.412  15.179  0.00  0.00    +0.000 C 
ATOM      3  C   UNL     1     -37.008 100.640  14.727  0.00  0.00    +0.000 C 
ATOM      4  C   UNL     1     -33.359 101.587  16.187  0.00  0.00    +0.000 C 
ATOM      5  C   UNL     1     -37.510 102.088  14.676  0.00  0.00    +0.000 C 
ATOM      6  C   UNL     1     -35.050 102.711  14.594  0.00  0.00    +0.000 C 
ATOM      7  C   UNL     1     -36.496 103.064  14.479  0.00  0.00    +0.000 C 
ATOM      8  C   UNL     1     -32.889 100.143  16.764  0.00  0.00    +0.000 C 
ATOM      9  C   UNL     1     -38.968 102.399  14.978  0.00  0.00    +0.000 C 
ATOM     10  C   UNL     1     -31.509  99.805  17.178  0.00  0.00    +0.000 C 
ATOM     11  C   UNL     1     -35.131  99.298  15.967  0.00  0.00    +0.000 C 
ATOM     12  C   UNL     1     -37.924  99.984  15.646  0.00  0.00    +0.000 C 
ATOM     13  C   UNL     1     -32.089 102.257  15.854  0.00  0.00    +0.000 C 
ATOM     14  C   UNL     1     -30.172 100.505  16.510  0.00  0.00    +0.000 C 
ATOM     15  C   UNL     1     -33.624 100.912  13.613  0.00  0.00    +0.000 C 
ATOM     16  C   UNL     1     -30.659 101.795  16.022  0.00  0.00    +0.000 C 
ATOM     17  C   UNL     1     -39.814 101.339  15.727  0.00  0.00    +0.000 C 
ATOM     18  C   UNL     1     -37.153 100.042  13.307  0.00  0.00    +0.000 C 
ATOM     19  C   UNL     1     -39.192 100.146  16.194  0.00  0.00    +0.000 C 
ATOM     20  C   UNL     1     -33.814  99.228  16.686  0.00  0.00    +0.000 C 
ATOM     21  C   UNL     1     -34.047 102.322  17.417  0.00  0.00    +0.000 C 
ATOM     22  C   UNL     1     -31.306  99.267  18.522  0.00  0.00    +0.000 C 
ATOM     23  C   UNL     1     -29.197 100.561  17.631  0.00  0.00    +0.000 C 
ATOM     24  C   UNL     1     -30.348  99.190  19.689  0.00  0.00    +0.000 C 
ATOM     25  C   UNL     1     -39.025 103.662  15.908  0.00  0.00    +0.000 C 
ATOM     26  C   UNL     1     -39.707 102.732  13.651  0.00  0.00    +0.000 C 
ATOM     27  C   UNL     1     -29.231  99.967  19.063  0.00  0.00    +0.000 C 
ATOM     28  C   UNL     1     -29.940  97.736  19.988  0.00  0.00    +0.000 C 
ATOM     29  C   UNL     1     -30.921  99.906  20.926  0.00  0.00    +0.000 C 
ENDROOT
BRANCH  17  30
ATOM     30  O   UNL     1     -41.182 101.467  15.959  0.00  0.00    +0.000 OA
ATOM     31  H   UNL     1     -41.533 100.686  16.436  0.00  0.00    +0.000 HD
ENDBRANCH  17  30
BRANCH  19  32
ATOM     32  O   UNL     1     -39.936  99.118  16.688  0.00  0.00    +0.000 OA
ATOM     33  H   UNL     1     -40.736  99.449  17.141  0.00  0.00    +0.000 HD
ENDBRANCH  19  32
BRANCH  14  35
ATOM     34  O   UNL     1     -30.033  98.428  15.191  0.00  0.00    +0.000 OA
ATOM     35  C   UNL     1     -29.673  99.580  15.392  0.00  0.00    +0.000 C 
BRANCH  35  36
ATOM     36  O   UNL     1     -28.696 100.113  14.625  0.00  0.00    +0.000 OA
ATOM     37  H   UNL     1     -28.097 100.569  15.256  0.00  0.00    +0.000 HD
ENDBRANCH  35  36
ENDBRANCH  14  35
TORSDOF 4
ENDMDL
MODEL 4
REMARK VINA RESULT:      -7.4     15.465     17.712
REMARK  Name = 73659_MaslinicAcid.pdbqt.pdb
REMARK  4 active torsions:
REMARK  status: ('A' for Active; 'I' for Inactive)
REMARK    1  A    between atoms: C_14  and  C_35
REMARK    2  A    between atoms: C_17  and  O_30
REMARK    3  A    between atoms: C_19  and  O_32
REMARK    4  A    between atoms: C_35  and  O_36
REMARK                            x       y       z     vdW  Elec       q    Type
REMARK                         _______ _______ _______ _____ _____    ______ ____
ROOT
ATOM      1  C   UNL     1     -22.622 103.292   3.610  0.00  0.00    +0.000 C 
ATOM      2  C   UNL     1     -22.828 101.718   3.683  0.00  0.00    +0.000 C 
ATOM      3  C   UNL     1     -22.286 100.848   4.821  0.00  0.00    +0.000 C 
ATOM      4  C   UNL     1     -22.306 103.811   2.071  0.00  0.00    +0.000 C 
ATOM      5  C   UNL     1     -20.971 101.285   5.477  0.00  0.00    +0.000 C 
ATOM      6  C   UNL     1     -21.499 103.573   4.512  0.00  0.00    +0.000 C 
ATOM      7  C   UNL     1     -20.700 102.678   5.399  0.00  0.00    +0.000 C 
ATOM      8  C   UNL     1     -23.358 103.204   0.992  0.00  0.00    +0.000 C 
ATOM      9  C   UNL     1     -20.003 100.241   6.011  0.00  0.00    +0.000 C 
ATOM     10  C   UNL     1     -23.978 103.973  -0.110  0.00  0.00    +0.000 C 
ATOM     11  C   UNL     1     -23.505 101.208   2.531  0.00  0.00    +0.000 C 
ATOM     12  C   UNL     1     -22.004  99.509   4.330  0.00  0.00    +0.000 C 
ATOM     13  C   UNL     1     -22.442 105.270   1.905  0.00  0.00    +0.000 C 
ATOM     14  C   UNL     1     -24.275 105.594  -0.021  0.00  0.00    +0.000 C 
ATOM     15  C   UNL     1     -23.945 103.947   4.181  0.00  0.00    +0.000 C 
ATOM     16  C   UNL     1     -23.296 106.076   0.953  0.00  0.00    +0.000 C 
ATOM     17  C   UNL     1     -20.147  98.776   5.525  0.00  0.00    +0.000 C 
ATOM     18  C   UNL     1     -23.368 100.797   5.926  0.00  0.00    +0.000 C 
ATOM     19  C   UNL     1     -21.113  98.460   4.528  0.00  0.00    +0.000 C 
ATOM     20  C   UNL     1     -23.746 101.992   1.273  0.00  0.00    +0.000 C 
ATOM     21  C   UNL     1     -20.874 103.344   1.565  0.00  0.00    +0.000 C 
ATOM     22  C   UNL     1     -23.849 103.452  -1.470  0.00  0.00    +0.000 C 
ATOM     23  C   UNL     1     -24.090 106.071  -1.418  0.00  0.00    +0.000 C 
ATOM     24  C   UNL     1     -23.741 103.827  -2.931  0.00  0.00    +0.000 C 
ATOM     25  C   UNL     1     -18.549 100.646   5.584  0.00  0.00    +0.000 C 
ATOM     26  C   UNL     1     -20.072 100.224   7.565  0.00  0.00    +0.000 C 
ATOM     27  C   UNL     1     -23.869 105.309  -2.750  0.00  0.00    +0.000 C 
ATOM     28  C   UNL     1     -24.906 103.245  -3.750  0.00  0.00    +0.000 C 
ATOM     29  C   UNL     1     -22.366 103.438  -3.504  0.00  0.00    +0.000 C 
ENDROOT
BRANCH  17  30
ATOM     30  O   UNL     1     -19.392  97.719   6.027  0.00  0.00    +0.000 OA
ATOM     31  H   UNL     1     -18.683  97.462   5.401  0.00  0.00    +0.000 HD
ENDBRANCH  17  30
BRANCH  19  32
ATOM     32  O   UNL     1     -21.393  97.165   4.213  0.00  0.00    +0.000 OA
ATOM     33  H   UNL     1     -21.144  96.565   4.943  0.00  0.00    +0.000 HD
ENDBRANCH  19  32
BRANCH  14  35
ATOM     34  O   UNL     1     -26.619 106.335  -0.189  0.00  0.00    +0.000 OA
ATOM     35  C   UNL     1     -25.728 105.775   0.435  0.00  0.00    +0.000 C 
BRANCH  35  36
ATOM     36  O   UNL     1     -25.980 105.314   1.681  0.00  0.00    +0.000 OA
ATOM     37  H   UNL     1     -26.313 106.092   2.179  0.00  0.00    +0.000 HD
ENDBRANCH  35  36
ENDBRANCH  14  35
TORSDOF 4
ENDMDL
MODEL 5
REMARK VINA RESULT:      -7.3      2.285      8.161
REMARK  Name = 73659_MaslinicAcid.pdbqt.pdb
REMARK  4 active torsions:
REMARK  status: ('A' for Active; 'I' for Inactive)
REMARK    1  A    between atoms: C_14  and  C_35
REMARK    2  A    between atoms: C_17  and  O_30
REMARK    3  A    between atoms: C_19  and  O_32
REMARK    4  A    between atoms: C_35  and  O_36
REMARK                            x       y       z     vdW  Elec       q    Type
REMARK                         _______ _______ _______ _____ _____    ______ ____
ROOT
ATOM      1  C   UNL     1     -33.789  99.733  15.599  0.00  0.00    +0.000 C 
ATOM      2  C   UNL     1     -34.897 100.480  16.458  0.00  0.00    +0.000 C 
ATOM      3  C   UNL     1     -36.400 100.357  16.187  0.00  0.00    +0.000 C 
ATOM      4  C   UNL     1     -32.465 100.685  15.321  0.00  0.00    +0.000 C 
ATOM      5  C   UNL     1     -36.840 100.159  14.732  0.00  0.00    +0.000 C 
ATOM      6  C   UNL     1     -34.458  99.367  14.346  0.00  0.00    +0.000 C 
ATOM      7  C   UNL     1     -35.871  99.542  13.895  0.00  0.00    +0.000 C 
ATOM      8  C   UNL     1     -31.922 101.391  16.680  0.00  0.00    +0.000 C 
ATOM      9  C   UNL     1     -38.159 100.741  14.250  0.00  0.00    +0.000 C 
ATOM     10  C   UNL     1     -30.497 101.514  17.059  0.00  0.00    +0.000 C 
ATOM     11  C   UNL     1     -34.325 101.334  17.453  0.00  0.00    +0.000 C 
ATOM     12  C   UNL     1     -37.078 101.577  16.595  0.00  0.00    +0.000 C 
ATOM     13  C   UNL     1     -31.295  99.934  14.830  0.00  0.00    +0.000 C 
ATOM     14  C   UNL     1     -29.346 100.422  16.601  0.00  0.00    +0.000 C 
ATOM     15  C   UNL     1     -33.402  98.425  16.402  0.00  0.00    +0.000 C 
ATOM     16  C   UNL     1     -29.890  99.834  15.377  0.00  0.00    +0.000 C 
ATOM     17  C   UNL     1     -38.830 101.858  15.089  0.00  0.00    +0.000 C 
ATOM     18  C   UNL     1     -36.924  99.153  17.005  0.00  0.00    +0.000 C 
ATOM     19  C   UNL     1     -38.157 102.376  16.233  0.00  0.00    +0.000 C 
ATOM     20  C   UNL     1     -32.873 101.712  17.512  0.00  0.00    +0.000 C 
ATOM     21  C   UNL     1     -32.788 101.884  14.330  0.00  0.00    +0.000 C 
ATOM     22  C   UNL     1     -29.981 102.845  17.374  0.00  0.00    +0.000 C 
ATOM     23  C   UNL     1     -28.117 101.243  16.437  0.00  0.00    +0.000 C 
ATOM     24  C   UNL     1     -28.762 103.739  17.331  0.00  0.00    +0.000 C 
ATOM     25  C   UNL     1     -37.928 101.403  12.846  0.00  0.00    +0.000 C 
ATOM     26  C   UNL     1     -39.198  99.595  14.087  0.00  0.00    +0.000 C 
ATOM     27  C   UNL     1     -27.811 102.726  16.772  0.00  0.00    +0.000 C 
ATOM     28  C   UNL     1     -28.350 104.197  18.742  0.00  0.00    +0.000 C 
ATOM     29  C   UNL     1     -28.973 104.921  16.367  0.00  0.00    +0.000 C 
ENDROOT
BRANCH  17  30
ATOM     30  O   UNL     1     -40.087 102.387  14.806  0.00  0.00    +0.000 OA
ATOM     31  H   UNL     1     -40.064 102.940  13.998  0.00  0.00    +0.000 HD
ENDBRANCH  17  30
BRANCH  19  32
ATOM     32  O   UNL     1     -38.793 103.219  17.094  0.00  0.00    +0.000 OA
ATOM     33  H   UNL     1     -38.261 104.023  17.253  0.00  0.00    +0.000 HD
ENDBRANCH  19  32
BRANCH  14  35
ATOM     34  O   UNL     1     -28.445  99.523  18.711  0.00  0.00    +0.000 OA
ATOM     35  C   UNL     1     -29.186  99.412  17.743  0.00  0.00    +0.000 C 
BRANCH  35  36
ATOM     36  O   UNL     1     -29.903  98.276  17.585  0.00  0.00    +0.000 OA
ATOM     37  H   UNL     1     -30.777  98.469  17.988  0.00  0.00    +0.000 HD
ENDBRANCH  35  36
ENDBRANCH  14  35
TORSDOF 4
ENDMDL
MODEL 6
REMARK VINA RESULT:      -7.2     12.144     14.305
REMARK  Name = 73659_MaslinicAcid.pdbqt.pdb
REMARK  4 active torsions:
REMARK  status: ('A' for Active; 'I' for Inactive)
REMARK    1  A    between atoms: C_14  and  C_35
REMARK    2  A    between atoms: C_17  and  O_30
REMARK    3  A    between atoms: C_19  and  O_32
REMARK    4  A    between atoms: C_35  and  O_36
REMARK                            x       y       z     vdW  Elec       q    Type
REMARK                         _______ _______ _______ _____ _____    ______ ____
ROOT
ATOM      1  C   UNL     1     -39.501 102.768   2.827  0.00  0.00    +0.000 C 
ATOM      2  C   UNL     1     -39.385 104.251   2.269  0.00  0.00    +0.000 C 
ATOM      3  C   UNL     1     -38.049 104.949   1.999  0.00  0.00    +0.000 C 
ATOM      4  C   UNL     1     -40.715 102.612   3.941  0.00  0.00    +0.000 C 
ATOM      5  C   UNL     1     -36.868 104.583   2.906  0.00  0.00    +0.000 C 
ATOM      6  C   UNL     1     -38.190 102.478   3.419  0.00  0.00    +0.000 C 
ATOM      7  C   UNL     1     -36.937 103.286   3.482  0.00  0.00    +0.000 C 
ATOM      8  C   UNL     1     -42.110 103.263   3.422  0.00  0.00    +0.000 C 
ATOM      9  C   UNL     1     -35.817 105.630   3.247  0.00  0.00    +0.000 C 
ATOM     10  C   UNL     1     -43.444 102.646   3.586  0.00  0.00    +0.000 C 
ATOM     11  C   UNL     1     -40.664 104.876   2.126  0.00  0.00    +0.000 C 
ATOM     12  C   UNL     1     -38.195 106.384   2.177  0.00  0.00    +0.000 C 
ATOM     13  C   UNL     1     -41.072 101.210   4.227  0.00  0.00    +0.000 C 
ATOM     14  C   UNL     1     -43.680 101.013   3.649  0.00  0.00    +0.000 C 
ATOM     15  C   UNL     1     -39.743 101.833   1.574  0.00  0.00    +0.000 C 
ATOM     16  C   UNL     1     -42.399 100.493   4.128  0.00  0.00    +0.000 C 
ATOM     17  C   UNL     1     -36.161 107.125   3.031  0.00  0.00    +0.000 C 
ATOM     18  C   UNL     1     -37.640 104.627   0.542  0.00  0.00    +0.000 C 
ATOM     19  C   UNL     1     -37.472 107.490   2.610  0.00  0.00    +0.000 C 
ATOM     20  C   UNL     1     -41.943 104.328   2.690  0.00  0.00    +0.000 C 
ATOM     21  C   UNL     1     -40.382 103.368   5.298  0.00  0.00    +0.000 C 
ATOM     22  C   UNL     1     -44.495 103.436   4.226  0.00  0.00    +0.000 C 
ATOM     23  C   UNL     1     -44.833 100.851   4.575  0.00  0.00    +0.000 C 
ATOM     24  C   UNL     1     -45.731 103.375   5.094  0.00  0.00    +0.000 C 
ATOM     25  C   UNL     1     -35.492 105.528   4.778  0.00  0.00    +0.000 C 
ATOM     26  C   UNL     1     -34.516 105.331   2.447  0.00  0.00    +0.000 C 
ATOM     27  C   UNL     1     -45.789 101.883   5.226  0.00  0.00    +0.000 C 
ATOM     28  C   UNL     1     -46.963 103.935   4.360  0.00  0.00    +0.000 C 
ATOM     29  C   UNL     1     -45.493 104.061   6.451  0.00  0.00    +0.000 C 
ENDROOT
BRANCH  17  30
ATOM     30  O   UNL     1     -35.244 108.160   3.202  0.00  0.00    +0.000 OA
ATOM     31  H   UNL     1     -34.325 107.842   3.082  0.00  0.00    +0.000 HD
ENDBRANCH  17  30
BRANCH  19  32
ATOM     32  O   UNL     1     -37.753 108.769   2.234  0.00  0.00    +0.000 OA
ATOM     33  H   UNL     1     -38.689 108.988   2.407  0.00  0.00    +0.000 HD
ENDBRANCH  19  32
BRANCH  14  35
ATOM     34  O   UNL     1     -45.162 100.476   1.755  0.00  0.00    +0.000 OA
ATOM     35  C   UNL     1     -44.038 100.541   2.235  0.00  0.00    +0.000 C 
BRANCH  35  36
ATOM     36  O   UNL     1     -42.982 100.101   1.513  0.00  0.00    +0.000 OA
ATOM     37  H   UNL     1     -43.372  99.532   0.813  0.00  0.00    +0.000 HD
ENDBRANCH  35  36
ENDBRANCH  14  35
TORSDOF 4
ENDMDL
MODEL 7
REMARK VINA RESULT:      -7.0     12.377     16.833
REMARK  Name = 73659_MaslinicAcid.pdbqt.pdb
REMARK  4 active torsions:
REMARK  status: ('A' for Active; 'I' for Inactive)
REMARK    1  A    between atoms: C_14  and  C_35
REMARK    2  A    between atoms: C_17  and  O_30
REMARK    3  A    between atoms: C_19  and  O_32
REMARK    4  A    between atoms: C_35  and  O_36
REMARK                            x       y       z     vdW  Elec       q    Type
REMARK                         _______ _______ _______ _____ _____    ______ ____
ROOT
ATOM      1  C   UNL     1     -42.390 101.581   3.024  0.00  0.00    +0.000 C 
ATOM      2  C   UNL     1     -43.547 102.443   3.690  0.00  0.00    +0.000 C 
ATOM      3  C   UNL     1     -45.001 101.972   3.785  0.00  0.00    +0.000 C 
ATOM      4  C   UNL     1     -41.352 102.510   2.131  0.00  0.00    +0.000 C 
ATOM      5  C   UNL     1     -45.529 101.081   2.655  0.00  0.00    +0.000 C 
ATOM      6  C   UNL     1     -43.081 100.594   2.187  0.00  0.00    +0.000 C 
ATOM      7  C   UNL     1     -44.535 100.322   1.981  0.00  0.00    +0.000 C 
ATOM      8  C   UNL     1     -40.850 103.822   2.947  0.00  0.00    +0.000 C 
ATOM      9  C   UNL     1     -46.988 101.168   2.235  0.00  0.00    +0.000 C 
ATOM     10  C   UNL     1     -39.459 104.327   2.963  0.00  0.00    +0.000 C 
ATOM     11  C   UNL     1     -43.086 103.729   4.114  0.00  0.00    +0.000 C 
ATOM     12  C   UNL     1     -45.894 103.120   3.772  0.00  0.00    +0.000 C 
ATOM     13  C   UNL     1     -40.097 101.817   1.783  0.00  0.00    +0.000 C 
ATOM     14  C   UNL     1     -38.142 103.347   2.789  0.00  0.00    +0.000 C 
ATOM     15  C   UNL     1     -41.637 100.847   4.207  0.00  0.00    +0.000 C 
ATOM     16  C   UNL     1     -38.658 102.198   2.046  0.00  0.00    +0.000 C 
ATOM     17  C   UNL     1     -47.807 102.418   2.647  0.00  0.00    +0.000 C 
ATOM     18  C   UNL     1     -45.153 101.190   5.111  0.00  0.00    +0.000 C 
ATOM     19  C   UNL     1     -47.158 103.490   3.324  0.00  0.00    +0.000 C 
ATOM     20  C   UNL     1     -41.760 104.322   3.735  0.00  0.00    +0.000 C 
ATOM     21  C   UNL     1     -42.037 103.075   0.814  0.00  0.00    +0.000 C 
ATOM     22  C   UNL     1     -39.230 105.724   2.595  0.00  0.00    +0.000 C 
ATOM     23  C   UNL     1     -37.154 104.195   2.070  0.00  0.00    +0.000 C 
ATOM     24  C   UNL     1     -38.257 106.689   1.956  0.00  0.00    +0.000 C 
ATOM     25  C   UNL     1     -47.055 101.166   0.667  0.00  0.00    +0.000 C 
ATOM     26  C   UNL     1     -47.750  99.918   2.761  0.00  0.00    +0.000 C 
ATOM     27  C   UNL     1     -37.161 105.700   1.696  0.00  0.00    +0.000 C 
ATOM     28  C   UNL     1     -37.819 107.785   2.945  0.00  0.00    +0.000 C 
ATOM     29  C   UNL     1     -38.826 107.269   0.649  0.00  0.00    +0.000 C 
ENDROOT
BRANCH  17  30
ATOM     30  O   UNL     1     -49.173 102.556   2.415  0.00  0.00    +0.000 OA
ATOM     31  H   UNL     1     -49.697 102.095   3.103  0.00  0.00    +0.000 HD
ENDBRANCH  17  30
BRANCH  19  32
ATOM     32  O   UNL     1     -47.878 104.513   3.862  0.00  0.00    +0.000 OA
ATOM     33  H   UNL     1     -47.661 104.637   4.807  0.00  0.00    +0.000 HD
ENDBRANCH  19  32
BRANCH  14  35
ATOM     34  O   UNL     1     -38.329 102.874   5.200  0.00  0.00    +0.000 OA
ATOM     35  C   UNL     1     -37.642 102.989   4.193  0.00  0.00    +0.000 C 
BRANCH  35  36
ATOM     36  O   UNL     1     -36.299 102.864   4.289  0.00  0.00    +0.000 OA
ATOM     37  H   UNL     1     -35.943 103.749   4.055  0.00  0.00    +0.000 HD
ENDBRANCH  35  36
ENDBRANCH  14  35
TORSDOF 4
ENDMDL
MODEL 8
REMARK VINA RESULT:      -6.9     13.494     17.517
REMARK  Name = 73659_MaslinicAcid.pdbqt.pdb
REMARK  4 active torsions:
REMARK  status: ('A' for Active; 'I' for Inactive)
REMARK    1  A    between atoms: C_14  and  C_35
REMARK    2  A    between atoms: C_17  and  O_30
REMARK    3  A    between atoms: C_19  and  O_32
REMARK    4  A    between atoms: C_35  and  O_36
REMARK                            x       y       z     vdW  Elec       q    Type
REMARK                         _______ _______ _______ _____ _____    ______ ____
ROOT
ATOM      1  C   UNL     1     -23.108 103.028   5.327  0.00  0.00    +0.000 C 
ATOM      2  C   UNL     1     -22.027 103.786   4.442  0.00  0.00    +0.000 C 
ATOM      3  C   UNL     1     -22.361 104.495   3.127  0.00  0.00    +0.000 C 
ATOM      4  C   UNL     1     -22.520 101.618   5.962  0.00  0.00    +0.000 C 
ATOM      5  C   UNL     1     -23.488 103.901   2.273  0.00  0.00    +0.000 C 
ATOM      6  C   UNL     1     -24.236 102.780   4.424  0.00  0.00    +0.000 C 
ATOM      7  C   UNL     1     -24.461 103.164   2.999  0.00  0.00    +0.000 C 
ATOM      8  C   UNL     1     -21.071 101.821   6.669  0.00  0.00    +0.000 C 
ATOM      9  C   UNL     1     -23.424 103.996   0.756  0.00  0.00    +0.000 C 
ATOM     10  C   UNL     1     -20.670 101.224   7.962  0.00  0.00    +0.000 C 
ATOM     11  C   UNL     1     -20.706 103.659   4.977  0.00  0.00    +0.000 C 
ATOM     12  C   UNL     1     -21.205 104.474   2.245  0.00  0.00    +0.000 C 
ATOM     13  C   UNL     1     -23.358 101.066   7.042  0.00  0.00    +0.000 C 
ATOM     14  C   UNL     1     -21.742 100.887   9.171  0.00  0.00    +0.000 C 
ATOM     15  C   UNL     1     -23.544 104.037   6.467  0.00  0.00    +0.000 C 
ATOM     16  C   UNL     1     -23.013 100.708   8.470  0.00  0.00    +0.000 C 
ATOM     17  C   UNL     1     -22.060 104.305   0.087  0.00  0.00    +0.000 C 
ATOM     18  C   UNL     1     -22.749 105.953   3.468  0.00  0.00    +0.000 C 
ATOM     19  C   UNL     1     -20.889 104.400   0.893  0.00  0.00    +0.000 C 
ATOM     20  C   UNL     1     -20.322 102.704   6.070  0.00  0.00    +0.000 C 
ATOM     21  C   UNL     1     -22.286 100.512   4.846  0.00  0.00    +0.000 C 
ATOM     22  C   UNL     1     -19.440 100.434   8.002  0.00  0.00    +0.000 C 
ATOM     23  C   UNL     1     -21.182  99.672   9.821  0.00  0.00    +0.000 C 
ATOM     24  C   UNL     1     -18.746  99.264   8.662  0.00  0.00    +0.000 C 
ATOM     25  C   UNL     1     -23.842 102.610   0.153  0.00  0.00    +0.000 C 
ATOM     26  C   UNL     1     -24.436 105.071   0.266  0.00  0.00    +0.000 C 
ATOM     27  C   UNL     1     -19.835  98.927   9.634  0.00  0.00    +0.000 C 
ATOM     28  C   UNL     1     -17.455  99.705   9.376  0.00  0.00    +0.000 C 
ATOM     29  C   UNL     1     -18.502  98.123   7.657  0.00  0.00    +0.000 C 
ENDROOT
BRANCH  17  30
ATOM     30  O   UNL     1     -21.902 104.524  -1.279  0.00  0.00    +0.000 OA
ATOM     31  H   UNL     1     -22.587 104.048  -1.794  0.00  0.00    +0.000 HD
ENDBRANCH  17  30
BRANCH  19  32
ATOM     32  O   UNL     1     -19.716 104.849   0.368  0.00  0.00    +0.000 OA
ATOM     33  H   UNL     1     -19.871 105.570  -0.273  0.00  0.00    +0.000 HD
ENDBRANCH  19  32
BRANCH  14  35
ATOM     34  O   UNL     1     -20.826 102.411  10.877  0.00  0.00    +0.000 OA
ATOM     35  C   UNL     1     -21.742 102.078  10.136  0.00  0.00    +0.000 C 
BRANCH  35  36
ATOM     36  O   UNL     1     -22.912 102.754  10.185  0.00  0.00    +0.000 OA
ATOM     37  H   UNL     1     -23.103 103.001   9.254  0.00  0.00    +0.000 HD
ENDBRANCH  35  36
ENDBRANCH  14  35
TORSDOF 4
ENDMDL
MODEL 9
REMARK VINA RESULT:      -6.7      2.125      3.682
REMARK  Name = 73659_MaslinicAcid.pdbqt.pdb
REMARK  4 active torsions:
REMARK  status: ('A' for Active; 'I' for Inactive)
REMARK    1  A    between atoms: C_14  and  C_35
REMARK    2  A    between atoms: C_17  and  O_30
REMARK    3  A    between atoms: C_19  and  O_32
REMARK    4  A    between atoms: C_35  and  O_36
REMARK                            x       y       z     vdW  Elec       q    Type
REMARK                         _______ _______ _______ _____ _____    ______ ____
ROOT
ATOM      1  C   UNL     1     -32.898 101.061  15.101  0.00  0.00    +0.000 C 
ATOM      2  C   UNL     1     -32.557 102.125  16.230  0.00  0.00    +0.000 C 
ATOM      3  C   UNL     1     -31.131 102.434  16.695  0.00  0.00    +0.000 C 
ATOM      4  C   UNL     1     -34.249 100.175  15.461  0.00  0.00    +0.000 C 
ATOM      5  C   UNL     1     -30.116 101.286  16.664  0.00  0.00    +0.000 C 
ATOM      6  C   UNL     1     -31.708 100.208  15.006  0.00  0.00    +0.000 C 
ATOM      7  C   UNL     1     -30.393 100.271  15.709  0.00  0.00    +0.000 C 
ATOM      8  C   UNL     1     -35.492 101.115  15.920  0.00  0.00    +0.000 C 
ATOM      9  C   UNL     1     -29.010 101.220  17.706  0.00  0.00    +0.000 C 
ATOM     10  C   UNL     1     -36.895 100.933  15.486  0.00  0.00    +0.000 C 
ATOM     11  C   UNL     1     -33.735 102.695  16.809  0.00  0.00    +0.000 C 
ATOM     12  C   UNL     1     -31.144 102.852  18.088  0.00  0.00    +0.000 C 
ATOM     13  C   UNL     1     -34.785  99.428  14.309  0.00  0.00    +0.000 C 
ATOM     14  C   UNL     1     -37.309 100.280  14.028  0.00  0.00    +0.000 C 
ATOM     15  C   UNL     1     -33.083 101.875  13.756  0.00  0.00    +0.000 C 
ATOM     16  C   UNL     1     -36.160  99.445  13.680  0.00  0.00    +0.000 C 
ATOM     17  C   UNL     1     -29.163 102.049  19.006  0.00  0.00    +0.000 C 
ATOM     18  C   UNL     1     -30.584 103.571  15.800  0.00  0.00    +0.000 C 
ATOM     19  C   UNL     1     -30.366 102.775  19.238  0.00  0.00    +0.000 C 
ATOM     20  C   UNL     1     -35.125 102.167  16.595  0.00  0.00    +0.000 C 
ATOM     21  C   UNL     1     -34.006  99.184  16.679  0.00  0.00    +0.000 C 
ATOM     22  C   UNL     1     -37.925 100.821  16.517  0.00  0.00    +0.000 C 
ATOM     23  C   UNL     1     -38.578  99.554  14.305  0.00  0.00    +0.000 C 
ATOM     24  C   UNL     1     -39.259 100.199  16.868  0.00  0.00    +0.000 C 
ATOM     25  C   UNL     1     -28.887  99.738  18.208  0.00  0.00    +0.000 C 
ATOM     26  C   UNL     1     -27.660 101.629  17.049  0.00  0.00    +0.000 C 
ATOM     27  C   UNL     1     -39.491  99.510  15.558  0.00  0.00    +0.000 C 
ATOM     28  C   UNL     1     -40.325 101.274  17.148  0.00  0.00    +0.000 C 
ATOM     29  C   UNL     1     -39.116  99.195  18.026  0.00  0.00    +0.000 C 
ENDROOT
BRANCH  17  30
ATOM     30  O   UNL     1     -28.169 102.152  19.977  0.00  0.00    +0.000 OA
ATOM     31  H   UNL     1     -27.832 103.070  20.041  0.00  0.00    +0.000 HD
ENDBRANCH  17  30
BRANCH  19  32
ATOM     32  O   UNL     1     -30.461 103.655  20.272  0.00  0.00    +0.000 OA
ATOM     33  H   UNL     1     -31.293 104.166  20.224  0.00  0.00    +0.000 HD
ENDBRANCH  19  32
BRANCH  14  35
ATOM     34  O   UNL     1     -38.512 101.589  12.321  0.00  0.00    +0.000 OA
ATOM     35  C   UNL     1     -37.540 101.437  13.049  0.00  0.00    +0.000 C 
BRANCH  35  36
ATOM     36  O   UNL     1     -36.511 102.311  12.971  0.00  0.00    +0.000 OA
ATOM     37  H   UNL     1     -36.331 102.408  12.010  0.00  0.00    +0.000 HD
ENDBRANCH  35  36
ENDBRANCH  14  35
TORSDOF 4
ENDMDL
