MODEL 1
REMARK VINA RESULT:      -4.0      0.000      0.000
REMARK  Name = 76617_Cardol.pdbqt.pdb
REMARK  10 active torsions:
REMARK  status: ('A' for Active; 'I' for Inactive)
REMARK    1  A    between atoms: C_1  and  C_2
REMARK    2  A    between atoms: C_3  and  C_4
REMARK    3  A    between atoms: C_5  and  C_6
REMARK    4  A    between atoms: C_7  and  C_8
REMARK    5  A    between atoms: C_8  and  C_9
REMARK    6  A    between atoms: C_10  and  C_11
REMARK    7  A    between atoms: C_14  and  C_15
REMARK    8  A    between atoms: C_15  and  C_16
REMARK    9  A    between atoms: C_19  and  O_24
REMARK   10  A    between atoms: C_20  and  O_22
REMARK                            x       y       z     vdW  Elec       q    Type
REMARK                         _______ _______ _______ _____ _____    ______ ____
ROOT
ATOM      1  C   UNL     1     -23.075 102.140   2.895  0.00  0.00    +0.000 C 
ATOM      2  C   UNL     1     -22.847 101.868   4.041  0.00  0.00    +0.000 C 
ENDROOT
BRANCH   1   3
ATOM      3  C   UNL     1     -23.369 102.486   1.432  0.00  0.00    +0.000 C 
ATOM      4  C   UNL     1     -23.661 102.832  -0.032  0.00  0.00    +0.000 C 
BRANCH   4   5
ATOM      5  C   UNL     1     -23.953 103.176  -1.495  0.00  0.00    +0.000 C 
ATOM      6  C   UNL     1     -24.246 103.519  -2.958  0.00  0.00    +0.000 C 
BRANCH   6   7
ATOM      7  C   UNL     1     -24.538 103.863  -4.422  0.00  0.00    +0.000 C 
ATOM      8  C   UNL     1     -24.832 104.205  -5.886  0.00  0.00    +0.000 C 
BRANCH   8   9
ATOM      9  C   UNL     1     -25.125 104.548  -7.349  0.00  0.00    +0.000 C 
BRANCH   9  10
ATOM     10  C   UNL     1     -25.420 104.890  -8.813  0.00  0.00    +0.000 C 
ATOM     11  C   UNL     1     -25.714 105.230 -10.277  0.00  0.00    +0.000 C 
BRANCH  11  12
ATOM     12  C   UNL     1     -26.008 105.572 -11.741  0.00  0.00    +0.000 C 
ATOM     13  C   UNL     1     -26.301 105.913 -13.205  0.00  0.00    +0.000 C 
ATOM     14  C   UNL     1     -26.595 106.254 -14.669  0.00  0.00    +0.000 C 
ENDBRANCH  11  12
ENDBRANCH   9  10
ENDBRANCH   8   9
ENDBRANCH   6   7
ENDBRANCH   4   5
ENDBRANCH   1   3
BRANCH   2  15
ATOM     15  C   UNL     1     -22.553 101.523   5.505  0.00  0.00    +0.000 C 
BRANCH  15  16
ATOM     16  C   UNL     1     -22.280 101.201   6.865  0.00  0.00    +0.000 A 
ATOM     17  C   UNL     1     -22.725 102.045   7.881  0.00  0.00    +0.000 A 
ATOM     18  C   UNL     1     -21.570 100.042   7.174  0.00  0.00    +0.000 A 
ATOM     19  C   UNL     1     -21.309  99.736   8.507  0.00  0.00    +0.000 A 
ATOM     20  C   UNL     1     -22.453 101.721   9.208  0.00  0.00    +0.000 A 
ATOM     21  C   UNL     1     -21.746 100.568   9.533  0.00  0.00    +0.000 A 
BRANCH  20  22
ATOM     22  O   UNL     1     -22.878 102.531  10.220  0.00  0.00    +0.000 OA
ATOM     23  H   UNL     1     -22.646 102.113  11.068  0.00  0.00    +0.000 HD
ENDBRANCH  20  22
BRANCH  19  24
ATOM     24  O   UNL     1     -20.615  98.607   8.838  0.00  0.00    +0.000 OA
ATOM     25  H   UNL     1     -20.989  97.860   8.338  0.00  0.00    +0.000 HD
ENDBRANCH  19  24
ENDBRANCH  15  16
ENDBRANCH   2  15
TORSDOF 10
ENDMDL
MODEL 2
REMARK VINA RESULT:      -4.0     24.318     25.394
REMARK  Name = 76617_Cardol.pdbqt.pdb
REMARK  10 active torsions:
REMARK  status: ('A' for Active; 'I' for Inactive)
REMARK    1  A    between atoms: C_1  and  C_2
REMARK    2  A    between atoms: C_3  and  C_4
REMARK    3  A    between atoms: C_5  and  C_6
REMARK    4  A    between atoms: C_7  and  C_8
REMARK    5  A    between atoms: C_8  and  C_9
REMARK    6  A    between atoms: C_10  and  C_11
REMARK    7  A    between atoms: C_14  and  C_15
REMARK    8  A    between atoms: C_15  and  C_16
REMARK    9  A    between atoms: C_19  and  O_24
REMARK   10  A    between atoms: C_20  and  O_22
REMARK                            x       y       z     vdW  Elec       q    Type
REMARK                         _______ _______ _______ _____ _____    ______ ____
ROOT
ATOM      1  C   UNL     1     -43.059 101.652   4.248  0.00  0.00    +0.000 C 
ATOM      2  C   UNL     1     -41.920 102.028   4.224  0.00  0.00    +0.000 C 
ENDROOT
BRANCH   1   3
ATOM      3  C   UNL     1     -44.514 101.175   4.279  0.00  0.00    +0.000 C 
ATOM      4  C   UNL     1     -45.969 100.697   4.310  0.00  0.00    +0.000 C 
BRANCH   4   5
ATOM      5  C   UNL     1     -47.424 100.221   4.342  0.00  0.00    +0.000 C 
ATOM      6  C   UNL     1     -48.880  99.746   4.373  0.00  0.00    +0.000 C 
BRANCH   6   7
ATOM      7  C   UNL     1     -50.336  99.270   4.405  0.00  0.00    +0.000 C 
ATOM      8  C   UNL     1     -51.791  98.795   4.437  0.00  0.00    +0.000 C 
BRANCH   8   9
ATOM      9  C   UNL     1     -53.247  98.321   4.469  0.00  0.00    +0.000 C 
BRANCH   9  10
ATOM     10  C   UNL     1     -54.703  97.846   4.500  0.00  0.00    +0.000 C 
ATOM     11  C   UNL     1     -56.159  97.371   4.533  0.00  0.00    +0.000 C 
BRANCH  11  12
ATOM     12  C   UNL     1     -57.615  96.896   4.564  0.00  0.00    +0.000 C 
ATOM     13  C   UNL     1     -59.070  96.421   4.596  0.00  0.00    +0.000 C 
ATOM     14  C   UNL     1     -60.526  95.945   4.628  0.00  0.00    +0.000 C 
ENDBRANCH  11  12
ENDBRANCH   9  10
ENDBRANCH   8   9
ENDBRANCH   6   7
ENDBRANCH   4   5
ENDBRANCH   1   3
BRANCH   2  15
ATOM     15  C   UNL     1     -40.464 102.505   4.194  0.00  0.00    +0.000 C 
BRANCH  15  16
ATOM     16  C   UNL     1     -39.111 102.948   4.166  0.00  0.00    +0.000 A 
ATOM     17  C   UNL     1     -38.701 103.981   5.007  0.00  0.00    +0.000 A 
ATOM     18  C   UNL     1     -38.202 102.346   3.298  0.00  0.00    +0.000 A 
ATOM     19  C   UNL     1     -36.881 102.786   3.278  0.00  0.00    +0.000 A 
ATOM     20  C   UNL     1     -37.376 104.407   4.972  0.00  0.00    +0.000 A 
ATOM     21  C   UNL     1     -36.456 103.817   4.111  0.00  0.00    +0.000 A 
BRANCH  20  22
ATOM     22  O   UNL     1     -36.950 105.417   5.786  0.00  0.00    +0.000 OA
ATOM     23  H   UNL     1     -36.888 105.074   6.694  0.00  0.00    +0.000 HD
ENDBRANCH  20  22
BRANCH  19  24
ATOM     24  O   UNL     1     -35.970 102.214   2.437  0.00  0.00    +0.000 OA
ATOM     25  H   UNL     1     -35.193 102.798   2.383  0.00  0.00    +0.000 HD
ENDBRANCH  19  24
ENDBRANCH  15  16
ENDBRANCH   2  15
TORSDOF 10
ENDMDL
MODEL 3
REMARK VINA RESULT:      -3.9      3.998      4.783
REMARK  Name = 76617_Cardol.pdbqt.pdb
REMARK  10 active torsions:
REMARK  status: ('A' for Active; 'I' for Inactive)
REMARK    1  A    between atoms: C_1  and  C_2
REMARK    2  A    between atoms: C_3  and  C_4
REMARK    3  A    between atoms: C_5  and  C_6
REMARK    4  A    between atoms: C_7  and  C_8
REMARK    5  A    between atoms: C_8  and  C_9
REMARK    6  A    between atoms: C_10  and  C_11
REMARK    7  A    between atoms: C_14  and  C_15
REMARK    8  A    between atoms: C_15  and  C_16
REMARK    9  A    between atoms: C_19  and  O_24
REMARK   10  A    between atoms: C_20  and  O_22
REMARK                            x       y       z     vdW  Elec       q    Type
REMARK                         _______ _______ _______ _____ _____    ______ ____
ROOT
ATOM      1  C   UNL     1     -24.160 104.977   3.375  0.00  0.00    +0.000 C 
ATOM      2  C   UNL     1     -24.124 105.275   4.536  0.00  0.00    +0.000 C 
ENDROOT
BRANCH   1   3
ATOM      3  C   UNL     1     -24.205 104.597   1.892  0.00  0.00    +0.000 C 
ATOM      4  C   UNL     1     -24.251 104.217   0.408  0.00  0.00    +0.000 C 
BRANCH   4   5
ATOM      5  C   UNL     1     -24.298 103.837  -1.075  0.00  0.00    +0.000 C 
ATOM      6  C   UNL     1     -24.344 103.458  -2.557  0.00  0.00    +0.000 C 
BRANCH   6   7
ATOM      7  C   UNL     1     -24.390 103.078  -4.041  0.00  0.00    +0.000 C 
ATOM      8  C   UNL     1     -24.436 102.699  -5.524  0.00  0.00    +0.000 C 
BRANCH   8   9
ATOM      9  C   UNL     1     -24.482 102.320  -7.007  0.00  0.00    +0.000 C 
BRANCH   9  10
ATOM     10  C   UNL     1     -24.528 101.940  -8.490  0.00  0.00    +0.000 C 
ATOM     11  C   UNL     1     -24.576 101.559  -9.973  0.00  0.00    +0.000 C 
BRANCH  11  12
ATOM     12  C   UNL     1     -24.624 101.179 -11.456  0.00  0.00    +0.000 C 
ATOM     13  C   UNL     1     -24.670 100.797 -12.938  0.00  0.00    +0.000 C 
ATOM     14  C   UNL     1     -24.717 100.416 -14.422  0.00  0.00    +0.000 C 
ENDBRANCH  11  12
ENDBRANCH   9  10
ENDBRANCH   8   9
ENDBRANCH   6   7
ENDBRANCH   4   5
ENDBRANCH   1   3
BRANCH   2  15
ATOM     15  C   UNL     1     -24.079 105.654   6.020  0.00  0.00    +0.000 C 
BRANCH  15  16
ATOM     16  C   UNL     1     -24.036 106.006   7.400  0.00  0.00    +0.000 A 
ATOM     17  C   UNL     1     -23.044 105.475   8.221  0.00  0.00    +0.000 A 
ATOM     18  C   UNL     1     -24.987 106.880   7.921  0.00  0.00    +0.000 A 
ATOM     19  C   UNL     1     -24.937 107.219   9.272  0.00  0.00    +0.000 A 
ATOM     20  C   UNL     1     -23.010 105.826   9.569  0.00  0.00    +0.000 A 
ATOM     21  C   UNL     1     -23.953 106.697  10.105  0.00  0.00    +0.000 A 
BRANCH  20  22
ATOM     22  O   UNL     1     -22.048 105.319  10.394  0.00  0.00    +0.000 OA
ATOM     23  H   UNL     1     -21.982 105.892  11.177  0.00  0.00    +0.000 HD
ENDBRANCH  20  22
BRANCH  19  24
ATOM     24  O   UNL     1     -25.857 108.073   9.808  0.00  0.00    +0.000 OA
ATOM     25  H   UNL     1     -25.438 108.944   9.921  0.00  0.00    +0.000 HD
ENDBRANCH  19  24
ENDBRANCH  15  16
ENDBRANCH   2  15
TORSDOF 10
ENDMDL
MODEL 4
REMARK VINA RESULT:      -3.9      7.955     15.921
REMARK  Name = 76617_Cardol.pdbqt.pdb
REMARK  10 active torsions:
REMARK  status: ('A' for Active; 'I' for Inactive)
REMARK    1  A    between atoms: C_1  and  C_2
REMARK    2  A    between atoms: C_3  and  C_4
REMARK    3  A    between atoms: C_5  and  C_6
REMARK    4  A    between atoms: C_7  and  C_8
REMARK    5  A    between atoms: C_8  and  C_9
REMARK    6  A    between atoms: C_10  and  C_11
REMARK    7  A    between atoms: C_14  and  C_15
REMARK    8  A    between atoms: C_15  and  C_16
REMARK    9  A    between atoms: C_19  and  O_24
REMARK   10  A    between atoms: C_20  and  O_22
REMARK                            x       y       z     vdW  Elec       q    Type
REMARK                         _______ _______ _______ _____ _____    ______ ____
ROOT
ATOM      1  C   UNL     1     -24.822 103.992  -2.429  0.00  0.00    +0.000 C 
ATOM      2  C   UNL     1     -24.635 103.472  -3.494  0.00  0.00    +0.000 C 
ENDROOT
BRANCH   1   3
ATOM      3  C   UNL     1     -25.060 104.655  -1.069  0.00  0.00    +0.000 C 
ATOM      4  C   UNL     1     -25.298 105.317   0.292  0.00  0.00    +0.000 C 
BRANCH   4   5
ATOM      5  C   UNL     1     -25.535 105.980   1.652  0.00  0.00    +0.000 C 
ATOM      6  C   UNL     1     -25.773 106.642   3.012  0.00  0.00    +0.000 C 
BRANCH   6   7
ATOM      7  C   UNL     1     -26.011 107.305   4.373  0.00  0.00    +0.000 C 
ATOM      8  C   UNL     1     -26.248 107.967   5.733  0.00  0.00    +0.000 C 
BRANCH   8   9
ATOM      9  C   UNL     1     -26.485 108.629   7.093  0.00  0.00    +0.000 C 
BRANCH   9  10
ATOM     10  C   UNL     1     -26.721 109.291   8.454  0.00  0.00    +0.000 C 
ATOM     11  C   UNL     1     -26.957 109.955   9.814  0.00  0.00    +0.000 C 
BRANCH  11  12
ATOM     12  C   UNL     1     -27.192 110.619  11.175  0.00  0.00    +0.000 C 
ATOM     13  C   UNL     1     -27.427 111.283  12.534  0.00  0.00    +0.000 C 
ATOM     14  C   UNL     1     -27.662 111.946  13.895  0.00  0.00    +0.000 C 
ENDBRANCH  11  12
ENDBRANCH   9  10
ENDBRANCH   8   9
ENDBRANCH   6   7
ENDBRANCH   4   5
ENDBRANCH   1   3
BRANCH   2  15
ATOM     15  C   UNL     1     -24.396 102.809  -4.855  0.00  0.00    +0.000 C 
BRANCH  15  16
ATOM     16  C   UNL     1     -24.172 102.192  -6.119  0.00  0.00    +0.000 A 
ATOM     17  C   UNL     1     -23.218 101.184  -6.240  0.00  0.00    +0.000 A 
ATOM     18  C   UNL     1     -24.909 102.601  -7.229  0.00  0.00    +0.000 A 
ATOM     19  C   UNL     1     -24.683 101.992  -8.461  0.00  0.00    +0.000 A 
ATOM     20  C   UNL     1     -23.007 100.587  -7.481  0.00  0.00    +0.000 A 
ATOM     21  C   UNL     1     -23.734 100.984  -8.599  0.00  0.00    +0.000 A 
BRANCH  20  22
ATOM     22  O   UNL     1     -22.079  99.597  -7.626  0.00  0.00    +0.000 OA
ATOM     23  H   UNL     1     -21.603  99.742  -8.462  0.00  0.00    +0.000 HD
ENDBRANCH  20  22
BRANCH  19  24
ATOM     24  O   UNL     1     -25.390 102.374  -9.565  0.00  0.00    +0.000 OA
ATOM     25  H   UNL     1     -26.245 102.734  -9.271  0.00  0.00    +0.000 HD
ENDBRANCH  19  24
ENDBRANCH  15  16
ENDBRANCH   2  15
TORSDOF 10
ENDMDL
MODEL 5
REMARK VINA RESULT:      -3.8      1.006      2.187
REMARK  Name = 76617_Cardol.pdbqt.pdb
REMARK  10 active torsions:
REMARK  status: ('A' for Active; 'I' for Inactive)
REMARK    1  A    between atoms: C_1  and  C_2
REMARK    2  A    between atoms: C_3  and  C_4
REMARK    3  A    between atoms: C_5  and  C_6
REMARK    4  A    between atoms: C_7  and  C_8
REMARK    5  A    between atoms: C_8  and  C_9
REMARK    6  A    between atoms: C_10  and  C_11
REMARK    7  A    between atoms: C_14  and  C_15
REMARK    8  A    between atoms: C_15  and  C_16
REMARK    9  A    between atoms: C_19  and  O_24
REMARK   10  A    between atoms: C_20  and  O_22
REMARK                            x       y       z     vdW  Elec       q    Type
REMARK                         _______ _______ _______ _____ _____    ______ ____
ROOT
ATOM      1  C   UNL     1     -23.297 102.142   1.762  0.00  0.00    +0.000 C 
ATOM      2  C   UNL     1     -23.068 101.761   2.877  0.00  0.00    +0.000 C 
ENDROOT
BRANCH   1   3
ATOM      3  C   UNL     1     -23.590 102.627   0.339  0.00  0.00    +0.000 C 
ATOM      4  C   UNL     1     -23.883 103.110  -1.085  0.00  0.00    +0.000 C 
BRANCH   4   5
ATOM      5  C   UNL     1     -24.176 103.593  -2.508  0.00  0.00    +0.000 C 
ATOM      6  C   UNL     1     -24.469 104.076  -3.931  0.00  0.00    +0.000 C 
BRANCH   6   7
ATOM      7  C   UNL     1     -24.762 104.559  -5.356  0.00  0.00    +0.000 C 
ATOM      8  C   UNL     1     -25.054 105.043  -6.779  0.00  0.00    +0.000 C 
BRANCH   8   9
ATOM      9  C   UNL     1     -25.346 105.527  -8.202  0.00  0.00    +0.000 C 
BRANCH   9  10
ATOM     10  C   UNL     1     -25.638 106.010  -9.626  0.00  0.00    +0.000 C 
ATOM     11  C   UNL     1     -25.931 106.491 -11.050  0.00  0.00    +0.000 C 
BRANCH  11  12
ATOM     12  C   UNL     1     -26.222 106.973 -12.475  0.00  0.00    +0.000 C 
ATOM     13  C   UNL     1     -26.514 107.455 -13.899  0.00  0.00    +0.000 C 
ATOM     14  C   UNL     1     -26.806 107.937 -15.323  0.00  0.00    +0.000 C 
ENDBRANCH  11  12
ENDBRANCH   9  10
ENDBRANCH   8   9
ENDBRANCH   6   7
ENDBRANCH   4   5
ENDBRANCH   1   3
BRANCH   2  15
ATOM     15  C   UNL     1     -22.775 101.277   4.301  0.00  0.00    +0.000 C 
BRANCH  15  16
ATOM     16  C   UNL     1     -22.503 100.827   5.624  0.00  0.00    +0.000 A 
ATOM     17  C   UNL     1     -21.586  99.799   5.833  0.00  0.00    +0.000 A 
ATOM     18  C   UNL     1     -23.156 101.417   6.705  0.00  0.00    +0.000 A 
ATOM     19  C   UNL     1     -22.883 100.970   7.996  0.00  0.00    +0.000 A 
ATOM     20  C   UNL     1     -21.327  99.366   7.131  0.00  0.00    +0.000 A 
ATOM     21  C   UNL     1     -21.970  99.944   8.221  0.00  0.00    +0.000 A 
BRANCH  20  22
ATOM     22  O   UNL     1     -20.433  98.361   7.362  0.00  0.00    +0.000 OA
ATOM     23  H   UNL     1     -19.543  98.684   7.139  0.00  0.00    +0.000 HD
ENDBRANCH  20  22
BRANCH  19  24
ATOM     24  O   UNL     1     -23.510 101.530   9.072  0.00  0.00    +0.000 OA
ATOM     25  H   UNL     1     -23.151 102.425   9.203  0.00  0.00    +0.000 HD
ENDBRANCH  19  24
ENDBRANCH  15  16
ENDBRANCH   2  15
TORSDOF 10
ENDMDL
MODEL 6
REMARK VINA RESULT:      -3.8     15.849     20.202
REMARK  Name = 76617_Cardol.pdbqt.pdb
REMARK  10 active torsions:
REMARK  status: ('A' for Active; 'I' for Inactive)
REMARK    1  A    between atoms: C_1  and  C_2
REMARK    2  A    between atoms: C_3  and  C_4
REMARK    3  A    between atoms: C_5  and  C_6
REMARK    4  A    between atoms: C_7  and  C_8
REMARK    5  A    between atoms: C_8  and  C_9
REMARK    6  A    between atoms: C_10  and  C_11
REMARK    7  A    between atoms: C_14  and  C_15
REMARK    8  A    between atoms: C_15  and  C_16
REMARK    9  A    between atoms: C_19  and  O_24
REMARK   10  A    between atoms: C_20  and  O_22
REMARK                            x       y       z     vdW  Elec       q    Type
REMARK                         _______ _______ _______ _____ _____    ______ ____
ROOT
ATOM      1  C   UNL     1     -37.794 104.580   3.724  0.00  0.00    +0.000 C 
ATOM      2  C   UNL     1     -38.592 103.995   3.046  0.00  0.00    +0.000 C 
ENDROOT
BRANCH   1   3
ATOM      3  C   UNL     1     -36.774 105.325   4.590  0.00  0.00    +0.000 C 
ATOM      4  C   UNL     1     -35.754 106.072   5.456  0.00  0.00    +0.000 C 
BRANCH   4   5
ATOM      5  C   UNL     1     -34.736 106.819   6.323  0.00  0.00    +0.000 C 
ATOM      6  C   UNL     1     -33.718 107.566   7.188  0.00  0.00    +0.000 C 
BRANCH   6   7
ATOM      7  C   UNL     1     -32.699 108.314   8.055  0.00  0.00    +0.000 C 
ATOM      8  C   UNL     1     -31.681 109.062   8.921  0.00  0.00    +0.000 C 
BRANCH   8   9
ATOM      9  C   UNL     1     -30.664 109.809   9.788  0.00  0.00    +0.000 C 
BRANCH   9  10
ATOM     10  C   UNL     1     -29.647 110.557  10.656  0.00  0.00    +0.000 C 
ATOM     11  C   UNL     1     -28.630 111.305  11.522  0.00  0.00    +0.000 C 
BRANCH  11  12
ATOM     12  C   UNL     1     -27.612 112.053  12.389  0.00  0.00    +0.000 C 
ATOM     13  C   UNL     1     -26.595 112.801  13.256  0.00  0.00    +0.000 C 
ATOM     14  C   UNL     1     -25.578 113.549  14.123  0.00  0.00    +0.000 C 
ENDBRANCH  11  12
ENDBRANCH   9  10
ENDBRANCH   8   9
ENDBRANCH   6   7
ENDBRANCH   4   5
ENDBRANCH   1   3
BRANCH   2  15
ATOM     15  C   UNL     1     -39.613 103.250   2.179  0.00  0.00    +0.000 C 
BRANCH  15  16
ATOM     16  C   UNL     1     -40.561 102.556   1.374  0.00  0.00    +0.000 A 
ATOM     17  C   UNL     1     -41.342 101.548   1.935  0.00  0.00    +0.000 A 
ATOM     18  C   UNL     1     -40.704 102.891   0.029  0.00  0.00    +0.000 A 
ATOM     19  C   UNL     1     -41.634 102.207  -0.750  0.00  0.00    +0.000 A 
ATOM     20  C   UNL     1     -42.267 100.876   1.139  0.00  0.00    +0.000 A 
ATOM     21  C   UNL     1     -42.421 101.197  -0.205  0.00  0.00    +0.000 A 
BRANCH  20  22
ATOM     22  O   UNL     1     -43.044  99.885   1.665  0.00  0.00    +0.000 OA
ATOM     23  H   UNL     1     -43.435 100.208   2.495  0.00  0.00    +0.000 HD
ENDBRANCH  20  22
BRANCH  19  24
ATOM     24  O   UNL     1     -41.794 102.514  -2.071  0.00  0.00    +0.000 OA
ATOM     25  H   UNL     1     -42.467 103.212  -2.144  0.00  0.00    +0.000 HD
ENDBRANCH  19  24
ENDBRANCH  15  16
ENDBRANCH   2  15
TORSDOF 10
ENDMDL
MODEL 7
REMARK VINA RESULT:      -3.8     24.905     25.451
REMARK  Name = 76617_Cardol.pdbqt.pdb
REMARK  10 active torsions:
REMARK  status: ('A' for Active; 'I' for Inactive)
REMARK    1  A    between atoms: C_1  and  C_2
REMARK    2  A    between atoms: C_3  and  C_4
REMARK    3  A    between atoms: C_5  and  C_6
REMARK    4  A    between atoms: C_7  and  C_8
REMARK    5  A    between atoms: C_8  and  C_9
REMARK    6  A    between atoms: C_10  and  C_11
REMARK    7  A    between atoms: C_14  and  C_15
REMARK    8  A    between atoms: C_15  and  C_16
REMARK    9  A    between atoms: C_19  and  O_24
REMARK   10  A    between atoms: C_20  and  O_22
REMARK                            x       y       z     vdW  Elec       q    Type
REMARK                         _______ _______ _______ _____ _____    ______ ____
ROOT
ATOM      1  C   UNL     1     -44.652 100.619   2.394  0.00  0.00    +0.000 C 
ATOM      2  C   UNL     1     -43.618 101.031   2.842  0.00  0.00    +0.000 C 
ENDROOT
BRANCH   1   3
ATOM      3  C   UNL     1     -45.972 100.094   1.821  0.00  0.00    +0.000 C 
ATOM      4  C   UNL     1     -47.292  99.570   1.247  0.00  0.00    +0.000 C 
BRANCH   4   5
ATOM      5  C   UNL     1     -48.611  99.045   0.673  0.00  0.00    +0.000 C 
ATOM      6  C   UNL     1     -49.930  98.520   0.099  0.00  0.00    +0.000 C 
BRANCH   6   7
ATOM      7  C   UNL     1     -51.250  97.994  -0.475  0.00  0.00    +0.000 C 
ATOM      8  C   UNL     1     -52.569  97.470  -1.049  0.00  0.00    +0.000 C 
BRANCH   8   9
ATOM      9  C   UNL     1     -53.888  96.945  -1.623  0.00  0.00    +0.000 C 
BRANCH   9  10
ATOM     10  C   UNL     1     -55.209  96.421  -2.197  0.00  0.00    +0.000 C 
ATOM     11  C   UNL     1     -56.528  95.898  -2.771  0.00  0.00    +0.000 C 
BRANCH  11  12
ATOM     12  C   UNL     1     -57.849  95.374  -3.345  0.00  0.00    +0.000 C 
ATOM     13  C   UNL     1     -59.169  94.851  -3.917  0.00  0.00    +0.000 C 
ATOM     14  C   UNL     1     -60.490  94.327  -4.491  0.00  0.00    +0.000 C 
ENDBRANCH  11  12
ENDBRANCH   9  10
ENDBRANCH   8   9
ENDBRANCH   6   7
ENDBRANCH   4   5
ENDBRANCH   1   3
BRANCH   2  15
ATOM     15  C   UNL     1     -42.298 101.556   3.415  0.00  0.00    +0.000 C 
BRANCH  15  16
ATOM     16  C   UNL     1     -41.070 102.043   3.948  0.00  0.00    +0.000 A 
ATOM     17  C   UNL     1     -39.883 101.853   3.242  0.00  0.00    +0.000 A 
ATOM     18  C   UNL     1     -41.061 102.707   5.173  0.00  0.00    +0.000 A 
ATOM     19  C   UNL     1     -39.856 103.180   5.686  0.00  0.00    +0.000 A 
ATOM     20  C   UNL     1     -38.688 102.334   3.772  0.00  0.00    +0.000 A 
ATOM     21  C   UNL     1     -38.662 102.998   4.994  0.00  0.00    +0.000 A 
BRANCH  20  22
ATOM     22  O   UNL     1     -37.513 102.161   3.100  0.00  0.00    +0.000 OA
ATOM     23  H   UNL     1     -37.211 103.028   2.779  0.00  0.00    +0.000 HD
ENDBRANCH  20  22
BRANCH  19  24
ATOM     24  O   UNL     1     -39.819 103.833   6.884  0.00  0.00    +0.000 OA
ATOM     25  H   UNL     1     -39.099 103.454   7.418  0.00  0.00    +0.000 HD
ENDBRANCH  19  24
ENDBRANCH  15  16
ENDBRANCH   2  15
TORSDOF 10
ENDMDL
MODEL 8
REMARK VINA RESULT:      -3.8     25.218     30.808
REMARK  Name = 76617_Cardol.pdbqt.pdb
REMARK  10 active torsions:
REMARK  status: ('A' for Active; 'I' for Inactive)
REMARK    1  A    between atoms: C_1  and  C_2
REMARK    2  A    between atoms: C_3  and  C_4
REMARK    3  A    between atoms: C_5  and  C_6
REMARK    4  A    between atoms: C_7  and  C_8
REMARK    5  A    between atoms: C_8  and  C_9
REMARK    6  A    between atoms: C_10  and  C_11
REMARK    7  A    between atoms: C_14  and  C_15
REMARK    8  A    between atoms: C_15  and  C_16
REMARK    9  A    between atoms: C_19  and  O_24
REMARK   10  A    between atoms: C_20  and  O_22
REMARK                            x       y       z     vdW  Elec       q    Type
REMARK                         _______ _______ _______ _____ _____    ______ ____
ROOT
ATOM      1  C   UNL     1     -35.525  86.778  17.685  0.00  0.00    +0.000 C 
ATOM      2  C   UNL     1     -34.574  87.502  17.796  0.00  0.00    +0.000 C 
ENDROOT
BRANCH   1   3
ATOM      3  C   UNL     1     -36.740  85.856  17.542  0.00  0.00    +0.000 C 
ATOM      4  C   UNL     1     -37.954  84.934  17.398  0.00  0.00    +0.000 C 
BRANCH   4   5
ATOM      5  C   UNL     1     -39.168  84.010  17.255  0.00  0.00    +0.000 C 
ATOM      6  C   UNL     1     -40.381  83.087  17.113  0.00  0.00    +0.000 C 
BRANCH   6   7
ATOM      7  C   UNL     1     -41.595  82.163  16.970  0.00  0.00    +0.000 C 
ATOM      8  C   UNL     1     -42.808  81.240  16.827  0.00  0.00    +0.000 C 
BRANCH   8   9
ATOM      9  C   UNL     1     -44.021  80.316  16.684  0.00  0.00    +0.000 C 
BRANCH   9  10
ATOM     10  C   UNL     1     -45.235  79.392  16.540  0.00  0.00    +0.000 C 
ATOM     11  C   UNL     1     -46.449  78.470  16.396  0.00  0.00    +0.000 C 
BRANCH  11  12
ATOM     12  C   UNL     1     -47.663  77.547  16.252  0.00  0.00    +0.000 C 
ATOM     13  C   UNL     1     -48.876  76.624  16.109  0.00  0.00    +0.000 C 
ATOM     14  C   UNL     1     -50.090  75.700  15.966  0.00  0.00    +0.000 C 
ENDBRANCH  11  12
ENDBRANCH   9  10
ENDBRANCH   8   9
ENDBRANCH   6   7
ENDBRANCH   4   5
ENDBRANCH   1   3
BRANCH   2  15
ATOM     15  C   UNL     1     -33.359  88.423  17.939  0.00  0.00    +0.000 C 
BRANCH  15  16
ATOM     16  C   UNL     1     -32.229  89.280  18.070  0.00  0.00    +0.000 A 
ATOM     17  C   UNL     1     -31.455  89.585  16.952  0.00  0.00    +0.000 A 
ATOM     18  C   UNL     1     -31.903  89.811  19.317  0.00  0.00    +0.000 A 
ATOM     19  C   UNL     1     -30.796  90.648  19.435  0.00  0.00    +0.000 A 
ATOM     20  C   UNL     1     -30.353  90.425  17.092  0.00  0.00    +0.000 A 
ATOM     21  C   UNL     1     -30.013  90.962  18.329  0.00  0.00    +0.000 A 
BRANCH  20  22
ATOM     22  O   UNL     1     -29.579  90.739  16.011  0.00  0.00    +0.000 OA
ATOM     23  H   UNL     1     -29.939  90.281  15.232  0.00  0.00    +0.000 HD
ENDBRANCH  20  22
BRANCH  19  24
ATOM     24  O   UNL     1     -30.454  91.180  20.645  0.00  0.00    +0.000 OA
ATOM     25  H   UNL     1     -29.749  91.836  20.503  0.00  0.00    +0.000 HD
ENDBRANCH  19  24
ENDBRANCH  15  16
ENDBRANCH   2  15
TORSDOF 10
ENDMDL
MODEL 9
REMARK VINA RESULT:      -3.8     22.076     22.738
REMARK  Name = 76617_Cardol.pdbqt.pdb
REMARK  10 active torsions:
REMARK  status: ('A' for Active; 'I' for Inactive)
REMARK    1  A    between atoms: C_1  and  C_2
REMARK    2  A    between atoms: C_3  and  C_4
REMARK    3  A    between atoms: C_5  and  C_6
REMARK    4  A    between atoms: C_7  and  C_8
REMARK    5  A    between atoms: C_8  and  C_9
REMARK    6  A    between atoms: C_10  and  C_11
REMARK    7  A    between atoms: C_14  and  C_15
REMARK    8  A    between atoms: C_15  and  C_16
REMARK    9  A    between atoms: C_19  and  O_24
REMARK   10  A    between atoms: C_20  and  O_22
REMARK                            x       y       z     vdW  Elec       q    Type
REMARK                         _______ _______ _______ _____ _____    ______ ____
ROOT
ATOM      1  C   UNL     1     -28.484  88.066  15.027  0.00  0.00    +0.000 C 
ATOM      2  C   UNL     1     -29.088  88.661  15.876  0.00  0.00    +0.000 C 
ENDROOT
BRANCH   1   3
ATOM      3  C   UNL     1     -27.714  87.305  13.944  0.00  0.00    +0.000 C 
ATOM      4  C   UNL     1     -26.942  86.545  12.860  0.00  0.00    +0.000 C 
BRANCH   4   5
ATOM      5  C   UNL     1     -26.171  85.784  11.778  0.00  0.00    +0.000 C 
ATOM      6  C   UNL     1     -25.400  85.022  10.696  0.00  0.00    +0.000 C 
BRANCH   6   7
ATOM      7  C   UNL     1     -24.629  84.259   9.614  0.00  0.00    +0.000 C 
ATOM      8  C   UNL     1     -23.859  83.497   8.532  0.00  0.00    +0.000 C 
BRANCH   8   9
ATOM      9  C   UNL     1     -23.089  82.734   7.450  0.00  0.00    +0.000 C 
BRANCH   9  10
ATOM     10  C   UNL     1     -22.320  81.970   6.368  0.00  0.00    +0.000 C 
ATOM     11  C   UNL     1     -21.551  81.206   5.287  0.00  0.00    +0.000 C 
BRANCH  11  12
ATOM     12  C   UNL     1     -20.781  80.442   4.205  0.00  0.00    +0.000 C 
ATOM     13  C   UNL     1     -20.011  79.679   3.123  0.00  0.00    +0.000 C 
ATOM     14  C   UNL     1     -19.241  78.915   2.041  0.00  0.00    +0.000 C 
ENDBRANCH  11  12
ENDBRANCH   9  10
ENDBRANCH   8   9
ENDBRANCH   6   7
ENDBRANCH   4   5
ENDBRANCH   1   3
BRANCH   2  15
ATOM     15  C   UNL     1     -29.858  89.422  16.960  0.00  0.00    +0.000 C 
BRANCH  15  16
ATOM     16  C   UNL     1     -30.574  90.130  17.967  0.00  0.00    +0.000 A 
ATOM     17  C   UNL     1     -31.255  89.428  18.960  0.00  0.00    +0.000 A 
ATOM     18  C   UNL     1     -30.591  91.524  17.955  0.00  0.00    +0.000 A 
ATOM     19  C   UNL     1     -31.294  92.208  18.944  0.00  0.00    +0.000 A 
ATOM     20  C   UNL     1     -31.952  90.130  19.940  0.00  0.00    +0.000 A 
ATOM     21  C   UNL     1     -31.979  91.520  19.942  0.00  0.00    +0.000 A 
BRANCH  20  22
ATOM     22  O   UNL     1     -32.626  89.464  20.923  0.00  0.00    +0.000 OA
ATOM     23  H   UNL     1     -32.782  88.552  20.624  0.00  0.00    +0.000 HD
ENDBRANCH  20  22
BRANCH  19  24
ATOM     24  O   UNL     1     -31.328  93.573  18.955  0.00  0.00    +0.000 OA
ATOM     25  H   UNL     1     -30.618  93.891  19.540  0.00  0.00    +0.000 HD
ENDBRANCH  19  24
ENDBRANCH  15  16
ENDBRANCH   2  15
TORSDOF 10
ENDMDL
