MODEL 1
REMARK VINA RESULT:      -5.2      0.000      0.000
REMARK  Name = 85668777_Hyaluronidase.pdbqt.pdb
REMARK  5 active torsions:
REMARK  status: ('A' for Active; 'I' for Inactive)
REMARK    1  A    between atoms: N_1  and  C_13
REMARK    2  A    between atoms: C_14  and  C_15
REMARK    3  A    between atoms: C_15  and  C_16
REMARK    4  A    between atoms: C_17  and  C_19
REMARK    5  A    between atoms: C_19  and  O_20
REMARK                            x       y       z     vdW  Elec       q    Type
REMARK                         _______ _______ _______ _____ _____    ______ ____
ROOT
ATOM      1  N   UNL     1     -29.492  95.201 -15.124  0.00  0.00    +0.000 N 
ATOM      2  C   UNL     1     -28.223  93.607 -16.430  0.00  0.00    +0.000 C 
ATOM      3  C   UNL     1     -27.340  94.691 -15.811  0.00  0.00    +0.000 A 
ATOM      4  C   UNL     1     -29.641  94.050 -15.900  0.00  0.00    +0.000 C 
ATOM      5  C   UNL     1     -28.141  95.582 -15.067  0.00  0.00    +0.000 A 
ATOM      6  C   UNL     1     -28.117  93.686 -17.986  0.00  0.00    +0.000 C 
ATOM      7  C   UNL     1     -27.789  92.214 -15.870  0.00  0.00    +0.000 C 
ATOM      8  C   UNL     1     -25.967  94.869 -15.901  0.00  0.00    +0.000 A 
ATOM      9  C   UNL     1     -27.579  96.659 -14.405  0.00  0.00    +0.000 A 
ATOM     10  C   UNL     1     -30.853  93.492 -16.101  0.00  0.00    +0.000 C 
ATOM     11  C   UNL     1     -25.402  95.954 -15.233  0.00  0.00    +0.000 A 
ATOM     12  C   UNL     1     -26.199  96.839 -14.493  0.00  0.00    +0.000 A 
ENDROOT
BRANCH   1  13
ATOM     13  C   UNL     1     -30.553  95.918 -14.459  0.00  0.00    +0.000 C 
ATOM     14  C   UNL     1     -31.681  96.681 -13.757  0.00  0.00    +0.000 C 
BRANCH  14  15
ATOM     15  C   UNL     1     -32.809  97.444 -13.057  0.00  0.00    +0.000 C 
BRANCH  15  16
ATOM     16  C   UNL     1     -33.937  98.207 -12.358  0.00  0.00    +0.000 C 
ATOM     17  C   UNL     1     -35.066  98.971 -11.658  0.00  0.00    +0.000 C 
BRANCH  17  19
ATOM     18  O   UNL     1     -37.089 100.137 -11.591  0.00  0.00    +0.000 OA
ATOM     19  C   UNL     1     -36.120  99.687 -11.005  0.00  0.00    +0.000 C 
BRANCH  19  20
ATOM     20  O   UNL     1     -35.950  99.823  -9.678  0.00  0.00    +0.000 OA
ATOM     21  H   UNL     1     -36.734 100.336  -9.396  0.00  0.00    +0.000 HD
ENDBRANCH  19  20
ENDBRANCH  17  19
ENDBRANCH  15  16
ENDBRANCH  14  15
ENDBRANCH   1  13
TORSDOF 5
ENDMDL
MODEL 2
REMARK VINA RESULT:      -4.8     20.687     22.832
REMARK  Name = 85668777_Hyaluronidase.pdbqt.pdb
REMARK  5 active torsions:
REMARK  status: ('A' for Active; 'I' for Inactive)
REMARK    1  A    between atoms: N_1  and  C_13
REMARK    2  A    between atoms: C_14  and  C_15
REMARK    3  A    between atoms: C_15  and  C_16
REMARK    4  A    between atoms: C_17  and  C_19
REMARK    5  A    between atoms: C_19  and  O_20
REMARK                            x       y       z     vdW  Elec       q    Type
REMARK                         _______ _______ _______ _____ _____    ______ ____
ROOT
ATOM      1  N   UNL     1     -21.522  99.569   5.396  0.00  0.00    +0.000 N 
ATOM      2  C   UNL     1     -22.217 101.140   7.101  0.00  0.00    +0.000 C 
ATOM      3  C   UNL     1     -22.730 101.519   5.712  0.00  0.00    +0.000 A 
ATOM      4  C   UNL     1     -21.423  99.818   6.766  0.00  0.00    +0.000 C 
ATOM      5  C   UNL     1     -22.290 100.566   4.770  0.00  0.00    +0.000 A 
ATOM      6  C   UNL     1     -21.285 102.276   7.630  0.00  0.00    +0.000 C 
ATOM      7  C   UNL     1     -23.436 100.877   8.042  0.00  0.00    +0.000 C 
ATOM      8  C   UNL     1     -23.507 102.601   5.323  0.00  0.00    +0.000 A 
ATOM      9  C   UNL     1     -22.622 100.682   3.432  0.00  0.00    +0.000 A 
ATOM     10  C   UNL     1     -20.731  98.994   7.580  0.00  0.00    +0.000 C 
ATOM     11  C   UNL     1     -23.841 102.717   3.975  0.00  0.00    +0.000 A 
ATOM     12  C   UNL     1     -23.404 101.768   3.040  0.00  0.00    +0.000 A 
ENDROOT
BRANCH   1  13
ATOM     13  C   UNL     1     -20.934  98.455   4.692  0.00  0.00    +0.000 C 
ATOM     14  C   UNL     1     -20.308  97.270   3.949  0.00  0.00    +0.000 C 
BRANCH  14  15
ATOM     15  C   UNL     1     -19.682  96.085   3.207  0.00  0.00    +0.000 C 
BRANCH  15  16
ATOM     16  C   UNL     1     -19.056  94.902   2.465  0.00  0.00    +0.000 C 
ATOM     17  C   UNL     1     -18.431  93.718   1.721  0.00  0.00    +0.000 C 
BRANCH  17  19
ATOM     18  O   UNL     1     -16.997  91.885   1.511  0.00  0.00    +0.000 OA
ATOM     19  C   UNL     1     -17.846  92.612   1.025  0.00  0.00    +0.000 C 
BRANCH  19  20
ATOM     20  O   UNL     1     -18.315  92.441  -0.224  0.00  0.00    +0.000 OA
ATOM     21  H   UNL     1     -19.184  92.891  -0.208  0.00  0.00    +0.000 HD
ENDBRANCH  19  20
ENDBRANCH  17  19
ENDBRANCH  15  16
ENDBRANCH  14  15
ENDBRANCH   1  13
TORSDOF 5
ENDMDL
MODEL 3
REMARK VINA RESULT:      -4.6     21.328     23.416
REMARK  Name = 85668777_Hyaluronidase.pdbqt.pdb
REMARK  5 active torsions:
REMARK  status: ('A' for Active; 'I' for Inactive)
REMARK    1  A    between atoms: N_1  and  C_13
REMARK    2  A    between atoms: C_14  and  C_15
REMARK    3  A    between atoms: C_15  and  C_16
REMARK    4  A    between atoms: C_17  and  C_19
REMARK    5  A    between atoms: C_19  and  O_20
REMARK                            x       y       z     vdW  Elec       q    Type
REMARK                         _______ _______ _______ _____ _____    ______ ____
ROOT
ATOM      1  N   UNL     1     -21.261  99.441   5.449  0.00  0.00    +0.000 N 
ATOM      2  C   UNL     1     -22.335 101.529   6.037  0.00  0.00    +0.000 C 
ATOM      3  C   UNL     1     -21.868 100.746   7.263  0.00  0.00    +0.000 A 
ATOM      4  C   UNL     1     -21.874 100.560   4.880  0.00  0.00    +0.000 C 
ATOM      5  C   UNL     1     -21.255  99.545   6.850  0.00  0.00    +0.000 A 
ATOM      6  C   UNL     1     -23.887 101.692   6.093  0.00  0.00    +0.000 C 
ATOM      7  C   UNL     1     -21.589 102.902   5.993  0.00  0.00    +0.000 C 
ATOM      8  C   UNL     1     -21.979 101.065   8.609  0.00  0.00    +0.000 A 
ATOM      9  C   UNL     1     -20.745  98.652   7.776  0.00  0.00    +0.000 A 
ATOM     10  C   UNL     1     -21.999 100.687   3.543  0.00  0.00    +0.000 C 
ATOM     11  C   UNL     1     -21.464 100.164   9.541  0.00  0.00    +0.000 A 
ATOM     12  C   UNL     1     -20.854  98.972   9.129  0.00  0.00    +0.000 A 
ENDROOT
BRANCH   1  13
ATOM     13  C   UNL     1     -20.702  98.323   4.728  0.00  0.00    +0.000 C 
ATOM     14  C   UNL     1     -20.111  97.138   3.959  0.00  0.00    +0.000 C 
BRANCH  14  15
ATOM     15  C   UNL     1     -19.520  95.953   3.189  0.00  0.00    +0.000 C 
BRANCH  15  16
ATOM     16  C   UNL     1     -18.930  94.768   2.419  0.00  0.00    +0.000 C 
ATOM     17  C   UNL     1     -18.341  93.583   1.648  0.00  0.00    +0.000 C 
BRANCH  17  19
ATOM     18  O   UNL     1     -16.952  91.723   1.389  0.00  0.00    +0.000 OA
ATOM     19  C   UNL     1     -17.792  92.475   0.926  0.00  0.00    +0.000 C 
BRANCH  19  20
ATOM     20  O   UNL     1     -18.284  92.332  -0.317  0.00  0.00    +0.000 OA
ATOM     21  H   UNL     1     -17.998  93.149  -0.774  0.00  0.00    +0.000 HD
ENDBRANCH  19  20
ENDBRANCH  17  19
ENDBRANCH  15  16
ENDBRANCH  14  15
ENDBRANCH   1  13
TORSDOF 5
ENDMDL
MODEL 4
REMARK VINA RESULT:      -4.6     29.812     33.259
REMARK  Name = 85668777_Hyaluronidase.pdbqt.pdb
REMARK  5 active torsions:
REMARK  status: ('A' for Active; 'I' for Inactive)
REMARK    1  A    between atoms: N_1  and  C_13
REMARK    2  A    between atoms: C_14  and  C_15
REMARK    3  A    between atoms: C_15  and  C_16
REMARK    4  A    between atoms: C_17  and  C_19
REMARK    5  A    between atoms: C_19  and  O_20
REMARK                            x       y       z     vdW  Elec       q    Type
REMARK                         _______ _______ _______ _____ _____    ______ ____
ROOT
ATOM      1  N   UNL     1     -33.822  99.702  17.093  0.00  0.00    +0.000 N 
ATOM      2  C   UNL     1     -35.953  99.884  15.960  0.00  0.00    +0.000 C 
ATOM      3  C   UNL     1     -34.783 100.320  15.079  0.00  0.00    +0.000 A 
ATOM      4  C   UNL     1     -35.189  99.490  17.283  0.00  0.00    +0.000 C 
ATOM      5  C   UNL     1     -33.577 100.190  15.798  0.00  0.00    +0.000 A 
ATOM      6  C   UNL     1     -36.917 101.095  16.168  0.00  0.00    +0.000 C 
ATOM      7  C   UNL     1     -36.663  98.660  15.298  0.00  0.00    +0.000 C 
ATOM      8  C   UNL     1     -34.789 100.788  13.772  0.00  0.00    +0.000 A 
ATOM      9  C   UNL     1     -32.365 100.523  15.220  0.00  0.00    +0.000 A 
ATOM     10  C   UNL     1     -35.669  99.022  18.453  0.00  0.00    +0.000 C 
ATOM     11  C   UNL     1     -33.566 101.123  13.191  0.00  0.00    +0.000 A 
ATOM     12  C   UNL     1     -32.368 100.991  13.906  0.00  0.00    +0.000 A 
ENDROOT
BRANCH   1  13
ATOM     13  C   UNL     1     -32.783  99.462  18.065  0.00  0.00    +0.000 C 
ATOM     14  C   UNL     1     -31.678  99.211  19.095  0.00  0.00    +0.000 C 
BRANCH  14  15
ATOM     15  C   UNL     1     -30.572  98.960  20.125  0.00  0.00    +0.000 C 
BRANCH  15  16
ATOM     16  C   UNL     1     -29.467  98.710  21.155  0.00  0.00    +0.000 C 
ATOM     17  C   UNL     1     -28.361  98.460  22.185  0.00  0.00    +0.000 C 
BRANCH  17  19
ATOM     18  O   UNL     1     -27.068  99.002  24.054  0.00  0.00    +0.000 OA
ATOM     19  C   UNL     1     -27.328  98.228  23.149  0.00  0.00    +0.000 C 
BRANCH  19  20
ATOM     20  O   UNL     1     -26.661  97.074  22.970  0.00  0.00    +0.000 OA
ATOM     21  H   UNL     1     -26.138  96.980  23.792  0.00  0.00    +0.000 HD
ENDBRANCH  19  20
ENDBRANCH  17  19
ENDBRANCH  15  16
ENDBRANCH  14  15
ENDBRANCH   1  13
TORSDOF 5
ENDMDL
MODEL 5
REMARK VINA RESULT:      -4.5     33.749     36.636
REMARK  Name = 85668777_Hyaluronidase.pdbqt.pdb
REMARK  5 active torsions:
REMARK  status: ('A' for Active; 'I' for Inactive)
REMARK    1  A    between atoms: N_1  and  C_13
REMARK    2  A    between atoms: C_14  and  C_15
REMARK    3  A    between atoms: C_15  and  C_16
REMARK    4  A    between atoms: C_17  and  C_19
REMARK    5  A    between atoms: C_19  and  O_20
REMARK                            x       y       z     vdW  Elec       q    Type
REMARK                         _______ _______ _______ _____ _____    ______ ____
ROOT
ATOM      1  N   UNL     1     -27.436 100.773  22.755  0.00  0.00    +0.000 N 
ATOM      2  C   UNL     1     -26.597 101.359  24.949  0.00  0.00    +0.000 C 
ATOM      3  C   UNL     1     -26.669  99.847  24.734  0.00  0.00    +0.000 A 
ATOM      4  C   UNL     1     -27.134 101.875  23.558  0.00  0.00    +0.000 C 
ATOM      5  C   UNL     1     -27.164  99.577  23.442  0.00  0.00    +0.000 A 
ATOM      6  C   UNL     1     -27.536 101.753  26.132  0.00  0.00    +0.000 C 
ATOM      7  C   UNL     1     -25.110 101.769  25.200  0.00  0.00    +0.000 C 
ATOM      8  C   UNL     1     -26.330  98.816  25.599  0.00  0.00    +0.000 A 
ATOM      9  C   UNL     1     -27.326  98.276  22.999  0.00  0.00    +0.000 A 
ATOM     10  C   UNL     1     -27.313 103.136  23.113  0.00  0.00    +0.000 C 
ATOM     11  C   UNL     1     -26.494  97.505  25.152  0.00  0.00    +0.000 A 
ATOM     12  C   UNL     1     -26.985  97.239  23.867  0.00  0.00    +0.000 A 
ENDROOT
BRANCH   1  13
ATOM     13  C   UNL     1     -27.952 100.821  21.409  0.00  0.00    +0.000 C 
ATOM     14  C   UNL     1     -28.495 100.870  19.977  0.00  0.00    +0.000 C 
BRANCH  14  15
ATOM     15  C   UNL     1     -29.038 100.919  18.546  0.00  0.00    +0.000 C 
BRANCH  15  16
ATOM     16  C   UNL     1     -29.580 100.967  17.115  0.00  0.00    +0.000 C 
ATOM     17  C   UNL     1     -30.123 101.015  15.683  0.00  0.00    +0.000 C 
BRANCH  17  19
ATOM     18  O   UNL     1     -31.563 100.383  13.956  0.00  0.00    +0.000 OA
ATOM     19  C   UNL     1     -30.629 101.063  14.345  0.00  0.00    +0.000 C 
BRANCH  19  20
ATOM     20  O   UNL     1     -29.981 101.927  13.544  0.00  0.00    +0.000 OA
ATOM     21  H   UNL     1     -29.512 101.348  12.910  0.00  0.00    +0.000 HD
ENDBRANCH  19  20
ENDBRANCH  17  19
ENDBRANCH  15  16
ENDBRANCH  14  15
ENDBRANCH   1  13
TORSDOF 5
ENDMDL
MODEL 6
REMARK VINA RESULT:      -4.4     17.979     19.863
REMARK  Name = 85668777_Hyaluronidase.pdbqt.pdb
REMARK  5 active torsions:
REMARK  status: ('A' for Active; 'I' for Inactive)
REMARK    1  A    between atoms: N_1  and  C_13
REMARK    2  A    between atoms: C_14  and  C_15
REMARK    3  A    between atoms: C_15  and  C_16
REMARK    4  A    between atoms: C_17  and  C_19
REMARK    5  A    between atoms: C_19  and  O_20
REMARK                            x       y       z     vdW  Elec       q    Type
REMARK                         _______ _______ _______ _____ _____    ______ ____
ROOT
ATOM      1  N   UNL     1     -23.350 103.519   2.754  0.00  0.00    +0.000 N 
ATOM      2  C   UNL     1     -22.662 104.183   4.977  0.00  0.00    +0.000 C 
ATOM      3  C   UNL     1     -23.293 102.791   4.951  0.00  0.00    +0.000 A 
ATOM      4  C   UNL     1     -22.754 104.572   3.451  0.00  0.00    +0.000 C 
ATOM      5  C   UNL     1     -23.670 102.469   3.631  0.00  0.00    +0.000 A 
ATOM      6  C   UNL     1     -23.524 105.119   5.882  0.00  0.00    +0.000 C 
ATOM      7  C   UNL     1     -21.185 104.065   5.472  0.00  0.00    +0.000 C 
ATOM      8  C   UNL     1     -23.512 101.902   5.994  0.00  0.00    +0.000 A 
ATOM      9  C   UNL     1     -24.267 101.256   3.338  0.00  0.00    +0.000 A 
ATOM     10  C   UNL     1     -22.358 105.696   2.819  0.00  0.00    +0.000 C 
ATOM     11  C   UNL     1     -24.114 100.680   5.697  0.00  0.00    +0.000 A 
ATOM     12  C   UNL     1     -24.487 100.361   4.384  0.00  0.00    +0.000 A 
ENDROOT
BRANCH   1  13
ATOM     13  C   UNL     1     -23.614 103.483   1.336  0.00  0.00    +0.000 C 
ATOM     14  C   UNL     1     -23.889 103.442  -0.171  0.00  0.00    +0.000 C 
BRANCH  14  15
ATOM     15  C   UNL     1     -24.162 103.401  -1.677  0.00  0.00    +0.000 C 
BRANCH  15  16
ATOM     16  C   UNL     1     -24.435 103.360  -3.183  0.00  0.00    +0.000 C 
ATOM     17  C   UNL     1     -24.709 103.318  -4.690  0.00  0.00    +0.000 C 
BRANCH  17  19
ATOM     18  O   UNL     1     -26.072 103.085  -6.573  0.00  0.00    +0.000 OA
ATOM     19  C   UNL     1     -24.966 103.279  -6.098  0.00  0.00    +0.000 C 
BRANCH  19  20
ATOM     20  O   UNL     1     -23.875 103.474  -6.860  0.00  0.00    +0.000 OA
ATOM     21  H   UNL     1     -24.244 103.731  -7.729  0.00  0.00    +0.000 HD
ENDBRANCH  19  20
ENDBRANCH  17  19
ENDBRANCH  15  16
ENDBRANCH  14  15
ENDBRANCH   1  13
TORSDOF 5
ENDMDL
MODEL 7
REMARK VINA RESULT:      -4.4     13.524     14.320
REMARK  Name = 85668777_Hyaluronidase.pdbqt.pdb
REMARK  5 active torsions:
REMARK  status: ('A' for Active; 'I' for Inactive)
REMARK    1  A    between atoms: N_1  and  C_13
REMARK    2  A    between atoms: C_14  and  C_15
REMARK    3  A    between atoms: C_15  and  C_16
REMARK    4  A    between atoms: C_17  and  C_19
REMARK    5  A    between atoms: C_19  and  O_20
REMARK                            x       y       z     vdW  Elec       q    Type
REMARK                         _______ _______ _______ _____ _____    ______ ____
ROOT
ATOM      1  N   UNL     1     -29.646  86.973  -6.180  0.00  0.00    +0.000 N 
ATOM      2  C   UNL     1     -28.605  88.079  -8.064  0.00  0.00    +0.000 C 
ATOM      3  C   UNL     1     -27.734  88.117  -6.809  0.00  0.00    +0.000 A 
ATOM      4  C   UNL     1     -29.859  87.287  -7.523  0.00  0.00    +0.000 C 
ATOM      5  C   UNL     1     -28.398  87.458  -5.754  0.00  0.00    +0.000 A 
ATOM      6  C   UNL     1     -28.961  89.540  -8.485  0.00  0.00    +0.000 C 
ATOM      7  C   UNL     1     -27.849  87.299  -9.187  0.00  0.00    +0.000 C 
ATOM      8  C   UNL     1     -26.480  88.682  -6.622  0.00  0.00    +0.000 A 
ATOM      9  C   UNL     1     -27.817  87.355  -4.502  0.00  0.00    +0.000 A 
ATOM     10  C   UNL     1     -30.992  86.923  -8.158  0.00  0.00    +0.000 C 
ATOM     11  C   UNL     1     -25.896  88.577  -5.360  0.00  0.00    +0.000 A 
ATOM     12  C   UNL     1     -26.557  87.920  -4.313  0.00  0.00    +0.000 A 
ENDROOT
BRANCH   1  13
ATOM     13  C   UNL     1     -30.557  86.251  -5.324  0.00  0.00    +0.000 C 
ATOM     14  C   UNL     1     -31.523  85.490  -4.411  0.00  0.00    +0.000 C 
BRANCH  14  15
ATOM     15  C   UNL     1     -32.488  84.728  -3.498  0.00  0.00    +0.000 C 
BRANCH  15  16
ATOM     16  C   UNL     1     -33.454  83.967  -2.586  0.00  0.00    +0.000 C 
ATOM     17  C   UNL     1     -34.420  83.205  -1.673  0.00  0.00    +0.000 C 
BRANCH  17  19
ATOM     18  O   UNL     1     -35.886  81.463  -1.148  0.00  0.00    +0.000 OA
ATOM     19  C   UNL     1     -35.321  82.492  -0.819  0.00  0.00    +0.000 C 
BRANCH  19  20
ATOM     20  O   UNL     1     -35.496  83.058   0.388  0.00  0.00    +0.000 OA
ATOM     21  H   UNL     1     -35.743  82.306   0.963  0.00  0.00    +0.000 HD
ENDBRANCH  19  20
ENDBRANCH  17  19
ENDBRANCH  15  16
ENDBRANCH  14  15
ENDBRANCH   1  13
TORSDOF 5
ENDMDL
MODEL 8
REMARK VINA RESULT:      -4.4      9.385     10.114
REMARK  Name = 85668777_Hyaluronidase.pdbqt.pdb
REMARK  5 active torsions:
REMARK  status: ('A' for Active; 'I' for Inactive)
REMARK    1  A    between atoms: N_1  and  C_13
REMARK    2  A    between atoms: C_14  and  C_15
REMARK    3  A    between atoms: C_15  and  C_16
REMARK    4  A    between atoms: C_17  and  C_19
REMARK    5  A    between atoms: C_19  and  O_20
REMARK                            x       y       z     vdW  Elec       q    Type
REMARK                         _______ _______ _______ _____ _____    ______ ____
ROOT
ATOM      1  N   UNL     1     -32.514  87.566  -9.056  0.00  0.00    +0.000 N 
ATOM      2  C   UNL     1     -31.198  85.857 -10.155  0.00  0.00    +0.000 C 
ATOM      3  C   UNL     1     -30.350  87.042  -9.695  0.00  0.00    +0.000 A 
ATOM      4  C   UNL     1     -32.628  86.318  -9.672  0.00  0.00    +0.000 C 
ATOM      5  C   UNL     1     -31.177  87.997  -9.066  0.00  0.00    +0.000 A 
ATOM      6  C   UNL     1     -31.106  85.733 -11.708  0.00  0.00    +0.000 C 
ATOM      7  C   UNL     1     -30.712  84.566  -9.420  0.00  0.00    +0.000 C 
ATOM      8  C   UNL     1     -28.985  87.253  -9.823  0.00  0.00    +0.000 A 
ATOM      9  C   UNL     1     -30.648  89.170  -8.558  0.00  0.00    +0.000 A 
ATOM     10  C   UNL     1     -33.821  85.698  -9.784  0.00  0.00    +0.000 C 
ATOM     11  C   UNL     1     -28.453  88.436  -9.310  0.00  0.00    +0.000 A 
ATOM     12  C   UNL     1     -29.275  89.383  -8.685  0.00  0.00    +0.000 A 
ENDROOT
BRANCH   1  13
ATOM     13  C   UNL     1     -33.594  88.329  -8.480  0.00  0.00    +0.000 C 
ATOM     14  C   UNL     1     -34.739  89.144  -7.870  0.00  0.00    +0.000 C 
BRANCH  14  15
ATOM     15  C   UNL     1     -35.883  89.959  -7.259  0.00  0.00    +0.000 C 
BRANCH  15  16
ATOM     16  C   UNL     1     -37.026  90.773  -6.649  0.00  0.00    +0.000 C 
ATOM     17  C   UNL     1     -38.171  91.588  -6.037  0.00  0.00    +0.000 C 
BRANCH  17  19
ATOM     18  O   UNL     1     -39.166  92.899  -4.379  0.00  0.00    +0.000 OA
ATOM     19  C   UNL     1     -39.240  92.348  -5.464  0.00  0.00    +0.000 C 
BRANCH  19  20
ATOM     20  O   UNL     1     -40.345  92.403  -6.229  0.00  0.00    +0.000 OA
ATOM     21  H   UNL     1     -39.995  92.557  -7.130  0.00  0.00    +0.000 HD
ENDBRANCH  19  20
ENDBRANCH  17  19
ENDBRANCH  15  16
ENDBRANCH  14  15
ENDBRANCH   1  13
TORSDOF 5
ENDMDL
MODEL 9
REMARK VINA RESULT:      -4.3     25.360     28.396
REMARK  Name = 85668777_Hyaluronidase.pdbqt.pdb
REMARK  5 active torsions:
REMARK  status: ('A' for Active; 'I' for Inactive)
REMARK    1  A    between atoms: N_1  and  C_13
REMARK    2  A    between atoms: C_14  and  C_15
REMARK    3  A    between atoms: C_15  and  C_16
REMARK    4  A    between atoms: C_17  and  C_19
REMARK    5  A    between atoms: C_19  and  O_20
REMARK                            x       y       z     vdW  Elec       q    Type
REMARK                         _______ _______ _______ _____ _____    ______ ____
ROOT
ATOM      1  N   UNL     1     -50.618  95.573   3.031  0.00  0.00    +0.000 N 
ATOM      2  C   UNL     1     -49.403  97.295   1.841  0.00  0.00    +0.000 C 
ATOM      3  C   UNL     1     -50.082  96.301   0.899  0.00  0.00    +0.000 A 
ATOM      4  C   UNL     1     -49.832  96.708   3.241  0.00  0.00    +0.000 C 
ATOM      5  C   UNL     1     -50.768  95.328   1.655  0.00  0.00    +0.000 A 
ATOM      6  C   UNL     1     -47.859  97.238   1.619  0.00  0.00    +0.000 C 
ATOM      7  C   UNL     1     -49.992  98.721   1.589  0.00  0.00    +0.000 C 
ATOM      8  C   UNL     1     -50.089  96.262  -0.488  0.00  0.00    +0.000 A 
ATOM      9  C   UNL     1     -51.469  94.309   1.035  0.00  0.00    +0.000 A 
ATOM     10  C   UNL     1     -49.548  97.143   4.485  0.00  0.00    +0.000 C 
ATOM     11  C   UNL     1     -50.795  95.235  -1.112  0.00  0.00    +0.000 A 
ATOM     12  C   UNL     1     -51.477  94.269  -0.359  0.00  0.00    +0.000 A 
ENDROOT
BRANCH   1  13
ATOM     13  C   UNL     1     -51.207  94.748   4.057  0.00  0.00    +0.000 C 
ATOM     14  C   UNL     1     -51.838  93.874   5.146  0.00  0.00    +0.000 C 
BRANCH  14  15
ATOM     15  C   UNL     1     -52.469  93.000   6.234  0.00  0.00    +0.000 C 
BRANCH  15  16
ATOM     16  C   UNL     1     -53.101  92.127   7.322  0.00  0.00    +0.000 C 
ATOM     17  C   UNL     1     -53.734  91.254   8.410  0.00  0.00    +0.000 C 
BRANCH  17  19
ATOM     18  O   UNL     1     -55.498  90.106   9.423  0.00  0.00    +0.000 OA
ATOM     19  C   UNL     1     -54.325  90.436   9.425  0.00  0.00    +0.000 C 
BRANCH  19  20
ATOM     20  O   UNL     1     -53.469  90.059  10.392  0.00  0.00    +0.000 OA
ATOM     21  H   UNL     1     -52.769  89.578   9.906  0.00  0.00    +0.000 HD
ENDBRANCH  19  20
ENDBRANCH  17  19
ENDBRANCH  15  16
ENDBRANCH  14  15
ENDBRANCH   1  13
TORSDOF 5
ENDMDL
