MODEL 1
REMARK VINA RESULT:      -4.2      0.000      0.000
REMARK  Name = 86311066_OplopantriolA.pdbqt.pdb
REMARK  12 active torsions:
REMARK  status: ('A' for Active; 'I' for Inactive)
REMARK    1  A    between atoms: C_1  and  C_3
REMARK    2  A    between atoms: C_2  and  C_13
REMARK    3  A    between atoms: C_4  and  C_5
REMARK    4  A    between atoms: C_6  and  C_7
REMARK    5  A    between atoms: C_8  and  C_9
REMARK    6  A    between atoms: C_10  and  O_11
REMARK    7  A    between atoms: C_13  and  O_14
REMARK    8  A    between atoms: C_13  and  C_16
REMARK    9  A    between atoms: C_17  and  C_18
REMARK   10  A    between atoms: C_19  and  C_20
REMARK   11  A    between atoms: C_20  and  C_21
REMARK   12  A    between atoms: C_20  and  O_23
REMARK                            x       y       z     vdW  Elec       q    Type
REMARK                         _______ _______ _______ _____ _____    ______ ____
ROOT
ATOM      1  C   UNL     1     -28.558 101.284  18.495  0.00  0.00    +0.000 C 
ATOM      2  C   UNL     1     -28.836 101.800  17.447  0.00  0.00    +0.000 C 
ENDROOT
BRANCH   1   3
ATOM      3  C   UNL     1     -28.202 100.626  19.831  0.00  0.00    +0.000 C 
ATOM      4  C   UNL     1     -27.846  99.969  21.168  0.00  0.00    +0.000 C 
BRANCH   4   5
ATOM      5  C   UNL     1     -27.491  99.312  22.505  0.00  0.00    +0.000 C 
ATOM      6  C   UNL     1     -27.136  98.653  23.842  0.00  0.00    +0.000 C 
BRANCH   6   7
ATOM      7  C   UNL     1     -26.781  97.994  25.178  0.00  0.00    +0.000 C 
ATOM      8  C   UNL     1     -26.426  97.336  26.515  0.00  0.00    +0.000 C 
BRANCH   8   9
ATOM      9  C   UNL     1     -26.072  96.679  27.853  0.00  0.00    +0.000 C 
ATOM     10  C   UNL     1     -25.718  96.023  29.190  0.00  0.00    +0.000 C 
BRANCH  10  11
ATOM     11  O   UNL     1     -25.411  95.454  30.350  0.00  0.00    +0.000 OA
ATOM     12  H   UNL     1     -25.631  94.507  30.331  0.00  0.00    +0.000 HD
ENDBRANCH  10  11
ENDBRANCH   8   9
ENDBRANCH   6   7
ENDBRANCH   4   5
ENDBRANCH   1   3
BRANCH   2  13
ATOM     13  C   UNL     1     -29.165 102.407  16.210  0.00  0.00    +0.000 C 
BRANCH  13  14
ATOM     14  O   UNL     1     -28.302 103.360  15.720  0.00  0.00    +0.000 OA
ATOM     15  H   UNL     1     -27.749 103.007  15.003  0.00  0.00    +0.000 HD
ENDBRANCH  13  14
BRANCH  13  16
ATOM     16  C   UNL     1     -30.325 102.085  15.459  0.00  0.00    +0.000 C 
ATOM     17  C   UNL     1     -31.307 101.812  14.825  0.00  0.00    +0.000 C 
BRANCH  17  18
ATOM     18  C   UNL     1     -32.559 101.462  14.016  0.00  0.00    +0.000 C 
ATOM     19  C   UNL     1     -33.540 101.187  13.381  0.00  0.00    +0.000 C 
BRANCH  19  20
ATOM     20  C   UNL     1     -34.702 100.861  12.632  0.00  0.00    +0.000 C 
BRANCH  20  21
ATOM     21  C   UNL     1     -35.846 100.232  13.197  0.00  0.00    +0.000 C 
ATOM     22  C   UNL     1     -36.916  99.629  13.719  0.00  0.00    +0.000 C 
ENDBRANCH  20  21
BRANCH  20  23
ATOM     23  O   UNL     1     -34.720 101.170  11.286  0.00  0.00    +0.000 OA
ATOM     24  H   UNL     1     -34.666 100.373  10.731  0.00  0.00    +0.000 HD
ENDBRANCH  20  23
ENDBRANCH  19  20
ENDBRANCH  17  18
ENDBRANCH  13  16
ENDBRANCH   2  13
TORSDOF 12
ENDMDL
MODEL 2
REMARK VINA RESULT:      -4.2      2.080      2.496
REMARK  Name = 86311066_OplopantriolA.pdbqt.pdb
REMARK  12 active torsions:
REMARK  status: ('A' for Active; 'I' for Inactive)
REMARK    1  A    between atoms: C_1  and  C_3
REMARK    2  A    between atoms: C_2  and  C_13
REMARK    3  A    between atoms: C_4  and  C_5
REMARK    4  A    between atoms: C_6  and  C_7
REMARK    5  A    between atoms: C_8  and  C_9
REMARK    6  A    between atoms: C_10  and  O_11
REMARK    7  A    between atoms: C_13  and  O_14
REMARK    8  A    between atoms: C_13  and  C_16
REMARK    9  A    between atoms: C_17  and  C_18
REMARK   10  A    between atoms: C_19  and  C_20
REMARK   11  A    between atoms: C_20  and  C_21
REMARK   12  A    between atoms: C_20  and  O_23
REMARK                            x       y       z     vdW  Elec       q    Type
REMARK                         _______ _______ _______ _____ _____    ______ ____
ROOT
ATOM      1  C   UNL     1     -29.540 100.613  17.516  0.00  0.00    +0.000 C 
ATOM      2  C   UNL     1     -29.991 100.746  16.410  0.00  0.00    +0.000 C 
ENDROOT
BRANCH   1   3
ATOM      3  C   UNL     1     -28.964 100.444  18.924  0.00  0.00    +0.000 C 
ATOM      4  C   UNL     1     -28.389 100.273  20.333  0.00  0.00    +0.000 C 
BRANCH   4   5
ATOM      5  C   UNL     1     -27.814 100.104  21.743  0.00  0.00    +0.000 C 
ATOM      6  C   UNL     1     -27.241  99.934  23.153  0.00  0.00    +0.000 C 
BRANCH   6   7
ATOM      7  C   UNL     1     -26.667  99.764  24.563  0.00  0.00    +0.000 C 
ATOM      8  C   UNL     1     -26.093  99.594  25.973  0.00  0.00    +0.000 C 
BRANCH   8   9
ATOM      9  C   UNL     1     -25.519  99.426  27.383  0.00  0.00    +0.000 C 
ATOM     10  C   UNL     1     -24.945  99.258  28.793  0.00  0.00    +0.000 C 
BRANCH  10  11
ATOM     11  O   UNL     1     -24.448  99.112  30.015  0.00  0.00    +0.000 OA
ATOM     12  H   UNL     1     -25.163  98.959  30.656  0.00  0.00    +0.000 HD
ENDBRANCH  10  11
ENDBRANCH   8   9
ENDBRANCH   6   7
ENDBRANCH   4   5
ENDBRANCH   1   3
BRANCH   2  13
ATOM     13  C   UNL     1     -30.523 100.901  15.107  0.00  0.00    +0.000 C 
BRANCH  13  14
ATOM     14  O   UNL     1     -29.655 101.274  14.106  0.00  0.00    +0.000 OA
ATOM     15  H   UNL     1     -29.902 100.879  13.253  0.00  0.00    +0.000 HD
ENDBRANCH  13  14
BRANCH  13  16
ATOM     16  C   UNL     1     -31.890 100.694  14.785  0.00  0.00    +0.000 C 
ATOM     17  C   UNL     1     -33.046 100.520  14.513  0.00  0.00    +0.000 C 
BRANCH  17  18
ATOM     18  C   UNL     1     -34.521 100.298  14.168  0.00  0.00    +0.000 C 
ATOM     19  C   UNL     1     -35.678 100.125  13.898  0.00  0.00    +0.000 C 
BRANCH  19  20
ATOM     20  C   UNL     1     -37.046  99.918  13.578  0.00  0.00    +0.000 C 
BRANCH  20  21
ATOM     21  C   UNL     1     -37.947 100.977  13.279  0.00  0.00    +0.000 C 
ATOM     22  C   UNL     1     -38.804 101.961  12.997  0.00  0.00    +0.000 C 
ENDBRANCH  20  21
BRANCH  20  23
ATOM     23  O   UNL     1     -37.525  98.624  13.558  0.00  0.00    +0.000 OA
ATOM     24  H   UNL     1     -38.482  98.590  13.729  0.00  0.00    +0.000 HD
ENDBRANCH  20  23
ENDBRANCH  19  20
ENDBRANCH  17  18
ENDBRANCH  13  16
ENDBRANCH   2  13
TORSDOF 12
ENDMDL
MODEL 3
REMARK VINA RESULT:      -3.9     20.614     24.569
REMARK  Name = 86311066_OplopantriolA.pdbqt.pdb
REMARK  12 active torsions:
REMARK  status: ('A' for Active; 'I' for Inactive)
REMARK    1  A    between atoms: C_1  and  C_3
REMARK    2  A    between atoms: C_2  and  C_13
REMARK    3  A    between atoms: C_4  and  C_5
REMARK    4  A    between atoms: C_6  and  C_7
REMARK    5  A    between atoms: C_8  and  C_9
REMARK    6  A    between atoms: C_10  and  O_11
REMARK    7  A    between atoms: C_13  and  O_14
REMARK    8  A    between atoms: C_13  and  C_16
REMARK    9  A    between atoms: C_17  and  C_18
REMARK   10  A    between atoms: C_19  and  C_20
REMARK   11  A    between atoms: C_20  and  C_21
REMARK   12  A    between atoms: C_20  and  O_23
REMARK                            x       y       z     vdW  Elec       q    Type
REMARK                         _______ _______ _______ _____ _____    ______ ____
ROOT
ATOM      1  C   UNL     1     -31.476  80.585   8.629  0.00  0.00    +0.000 C 
ATOM      2  C   UNL     1     -30.438  81.113   8.924  0.00  0.00    +0.000 C 
ENDROOT
BRANCH   1   3
ATOM      3  C   UNL     1     -32.798  79.912   8.252  0.00  0.00    +0.000 C 
ATOM      4  C   UNL     1     -34.122  79.239   7.876  0.00  0.00    +0.000 C 
BRANCH   4   5
ATOM      5  C   UNL     1     -35.445  78.566   7.500  0.00  0.00    +0.000 C 
ATOM      6  C   UNL     1     -36.770  77.894   7.126  0.00  0.00    +0.000 C 
BRANCH   6   7
ATOM      7  C   UNL     1     -38.094  77.221   6.751  0.00  0.00    +0.000 C 
ATOM      8  C   UNL     1     -39.418  76.548   6.376  0.00  0.00    +0.000 C 
BRANCH   8   9
ATOM      9  C   UNL     1     -40.742  75.875   6.003  0.00  0.00    +0.000 C 
ATOM     10  C   UNL     1     -42.066  75.203   5.629  0.00  0.00    +0.000 C 
BRANCH  10  11
ATOM     11  O   UNL     1     -43.214  74.619   5.305  0.00  0.00    +0.000 OA
ATOM     12  H   UNL     1     -43.270  73.736   5.707  0.00  0.00    +0.000 HD
ENDBRANCH  10  11
ENDBRANCH   8   9
ENDBRANCH   6   7
ENDBRANCH   4   5
ENDBRANCH   1   3
BRANCH   2  13
ATOM     13  C   UNL     1     -29.215  81.737   9.272  0.00  0.00    +0.000 C 
BRANCH  13  14
ATOM     14  O   UNL     1     -28.066  81.256   8.686  0.00  0.00    +0.000 OA
ATOM     15  H   UNL     1     -28.258  80.539   8.058  0.00  0.00    +0.000 HD
ENDBRANCH  13  14
BRANCH  13  16
ATOM     16  C   UNL     1     -29.115  82.819  10.184  0.00  0.00    +0.000 C 
ATOM     17  C   UNL     1     -29.031  83.736  10.955  0.00  0.00    +0.000 C 
BRANCH  17  18
ATOM     18  C   UNL     1     -28.925  84.906  11.936  0.00  0.00    +0.000 C 
ATOM     19  C   UNL     1     -28.842  85.824  12.706  0.00  0.00    +0.000 C 
BRANCH  19  20
ATOM     20  C   UNL     1     -28.744  86.910  13.616  0.00  0.00    +0.000 C 
BRANCH  20  21
ATOM     21  C   UNL     1     -28.957  86.777  15.016  0.00  0.00    +0.000 C 
ATOM     22  C   UNL     1     -29.172  86.655  16.328  0.00  0.00    +0.000 C 
ENDBRANCH  20  21
BRANCH  20  23
ATOM     23  O   UNL     1     -28.429  88.157  13.115  0.00  0.00    +0.000 OA
ATOM     24  H   UNL     1     -27.504  88.204  12.817  0.00  0.00    +0.000 HD
ENDBRANCH  20  23
ENDBRANCH  19  20
ENDBRANCH  17  18
ENDBRANCH  13  16
ENDBRANCH   2  13
TORSDOF 12
ENDMDL
MODEL 4
REMARK VINA RESULT:      -3.8     26.610     28.148
REMARK  Name = 86311066_OplopantriolA.pdbqt.pdb
REMARK  12 active torsions:
REMARK  status: ('A' for Active; 'I' for Inactive)
REMARK    1  A    between atoms: C_1  and  C_3
REMARK    2  A    between atoms: C_2  and  C_13
REMARK    3  A    between atoms: C_4  and  C_5
REMARK    4  A    between atoms: C_6  and  C_7
REMARK    5  A    between atoms: C_8  and  C_9
REMARK    6  A    between atoms: C_10  and  O_11
REMARK    7  A    between atoms: C_13  and  O_14
REMARK    8  A    between atoms: C_13  and  C_16
REMARK    9  A    between atoms: C_17  and  C_18
REMARK   10  A    between atoms: C_19  and  C_20
REMARK   11  A    between atoms: C_20  and  C_21
REMARK   12  A    between atoms: C_20  and  O_23
REMARK                            x       y       z     vdW  Elec       q    Type
REMARK                         _______ _______ _______ _____ _____    ______ ____
ROOT
ATOM      1  C   UNL     1     -29.021  85.983  -5.149  0.00  0.00    +0.000 C 
ATOM      2  C   UNL     1     -30.006  85.297  -5.103  0.00  0.00    +0.000 C 
ENDROOT
BRANCH   1   3
ATOM      3  C   UNL     1     -27.766  86.858  -5.207  0.00  0.00    +0.000 C 
ATOM      4  C   UNL     1     -26.510  87.733  -5.266  0.00  0.00    +0.000 C 
BRANCH   4   5
ATOM      5  C   UNL     1     -25.254  88.609  -5.323  0.00  0.00    +0.000 C 
ATOM      6  C   UNL     1     -24.000  89.485  -5.378  0.00  0.00    +0.000 C 
BRANCH   6   7
ATOM      7  C   UNL     1     -22.745  90.362  -5.435  0.00  0.00    +0.000 C 
ATOM      8  C   UNL     1     -21.490  91.238  -5.491  0.00  0.00    +0.000 C 
BRANCH   8   9
ATOM      9  C   UNL     1     -20.234  92.113  -5.548  0.00  0.00    +0.000 C 
ATOM     10  C   UNL     1     -18.979  92.989  -5.604  0.00  0.00    +0.000 C 
BRANCH  10  11
ATOM     11  O   UNL     1     -17.890  93.747  -5.652  0.00  0.00    +0.000 OA
ATOM     12  H   UNL     1     -17.544  93.900  -4.757  0.00  0.00    +0.000 HD
ENDBRANCH  10  11
ENDBRANCH   8   9
ENDBRANCH   6   7
ENDBRANCH   4   5
ENDBRANCH   1   3
BRANCH   2  13
ATOM     13  C   UNL     1     -31.167  84.488  -5.050  0.00  0.00    +0.000 C 
BRANCH  13  14
ATOM     14  O   UNL     1     -31.162  83.321  -5.781  0.00  0.00    +0.000 OA
ATOM     15  H   UNL     1     -31.206  82.539  -5.206  0.00  0.00    +0.000 HD
ENDBRANCH  13  14
BRANCH  13  16
ATOM     16  C   UNL     1     -32.320  84.814  -4.291  0.00  0.00    +0.000 C 
ATOM     17  C   UNL     1     -33.296  85.091  -3.650  0.00  0.00    +0.000 C 
BRANCH  17  18
ATOM     18  C   UNL     1     -34.543  85.442  -2.833  0.00  0.00    +0.000 C 
ATOM     19  C   UNL     1     -35.521  85.718  -2.193  0.00  0.00    +0.000 C 
BRANCH  19  20
ATOM     20  C   UNL     1     -36.677  86.046  -1.437  0.00  0.00    +0.000 C 
BRANCH  20  21
ATOM     21  C   UNL     1     -37.862  85.259  -1.441  0.00  0.00    +0.000 C 
ATOM     22  C   UNL     1     -38.968  84.511  -1.435  0.00  0.00    +0.000 C 
ENDBRANCH  20  21
BRANCH  20  23
ATOM     23  O   UNL     1     -36.649  87.185  -0.658  0.00  0.00    +0.000 OA
ATOM     24  H   UNL     1     -36.605  87.992  -1.200  0.00  0.00    +0.000 HD
ENDBRANCH  20  23
ENDBRANCH  19  20
ENDBRANCH  17  18
ENDBRANCH  13  16
ENDBRANCH   2  13
TORSDOF 12
ENDMDL
MODEL 5
REMARK VINA RESULT:      -3.8     17.798     20.829
REMARK  Name = 86311066_OplopantriolA.pdbqt.pdb
REMARK  12 active torsions:
REMARK  status: ('A' for Active; 'I' for Inactive)
REMARK    1  A    between atoms: C_1  and  C_3
REMARK    2  A    between atoms: C_2  and  C_13
REMARK    3  A    between atoms: C_4  and  C_5
REMARK    4  A    between atoms: C_6  and  C_7
REMARK    5  A    between atoms: C_8  and  C_9
REMARK    6  A    between atoms: C_10  and  O_11
REMARK    7  A    between atoms: C_13  and  O_14
REMARK    8  A    between atoms: C_13  and  C_16
REMARK    9  A    between atoms: C_17  and  C_18
REMARK   10  A    between atoms: C_19  and  C_20
REMARK   11  A    between atoms: C_20  and  C_21
REMARK   12  A    between atoms: C_20  and  O_23
REMARK                            x       y       z     vdW  Elec       q    Type
REMARK                         _______ _______ _______ _____ _____    ______ ____
ROOT
ATOM      1  C   UNL     1     -42.128  84.975  17.823  0.00  0.00    +0.000 C 
ATOM      2  C   UNL     1     -43.231  84.502  17.784  0.00  0.00    +0.000 C 
ENDROOT
BRANCH   1   3
ATOM      3  C   UNL     1     -40.722  85.579  17.875  0.00  0.00    +0.000 C 
ATOM      4  C   UNL     1     -39.316  86.184  17.926  0.00  0.00    +0.000 C 
BRANCH   4   5
ATOM      5  C   UNL     1     -37.910  86.789  17.977  0.00  0.00    +0.000 C 
ATOM      6  C   UNL     1     -36.503  87.393  18.030  0.00  0.00    +0.000 C 
BRANCH   6   7
ATOM      7  C   UNL     1     -35.097  87.998  18.082  0.00  0.00    +0.000 C 
ATOM      8  C   UNL     1     -33.691  88.603  18.134  0.00  0.00    +0.000 C 
BRANCH   8   9
ATOM      9  C   UNL     1     -32.284  89.207  18.185  0.00  0.00    +0.000 C 
ATOM     10  C   UNL     1     -30.878  89.812  18.236  0.00  0.00    +0.000 C 
BRANCH  10  11
ATOM     11  O   UNL     1     -29.659  90.336  18.280  0.00  0.00    +0.000 OA
ATOM     12  H   UNL     1     -28.999  89.680  17.999  0.00  0.00    +0.000 HD
ENDBRANCH  10  11
ENDBRANCH   8   9
ENDBRANCH   6   7
ENDBRANCH   4   5
ENDBRANCH   1   3
BRANCH   2  13
ATOM     13  C   UNL     1     -44.533  83.944  17.735  0.00  0.00    +0.000 C 
BRANCH  13  14
ATOM     14  O   UNL     1     -45.422  84.320  18.715  0.00  0.00    +0.000 OA
ATOM     15  H   UNL     1     -46.216  84.735  18.338  0.00  0.00    +0.000 HD
ENDBRANCH  13  14
BRANCH  13  16
ATOM     16  C   UNL     1     -44.960  83.028  16.739  0.00  0.00    +0.000 C 
ATOM     17  C   UNL     1     -45.320  82.254  15.896  0.00  0.00    +0.000 C 
BRANCH  17  18
ATOM     18  C   UNL     1     -45.777  81.265  14.820  0.00  0.00    +0.000 C 
ATOM     19  C   UNL     1     -46.136  80.489  13.977  0.00  0.00    +0.000 C 
BRANCH  19  20
ATOM     20  C   UNL     1     -46.559  79.572  12.979  0.00  0.00    +0.000 C 
BRANCH  20  21
ATOM     21  C   UNL     1     -45.689  78.627  12.367  0.00  0.00    +0.000 C 
ATOM     22  C   UNL     1     -44.881  77.729  11.799  0.00  0.00    +0.000 C 
ENDBRANCH  20  21
BRANCH  20  23
ATOM     23  O   UNL     1     -47.881  79.599  12.583  0.00  0.00    +0.000 OA
ATOM     24  H   UNL     1     -48.384  80.290  13.047  0.00  0.00    +0.000 HD
ENDBRANCH  20  23
ENDBRANCH  19  20
ENDBRANCH  17  18
ENDBRANCH  13  16
ENDBRANCH   2  13
TORSDOF 12
ENDMDL
MODEL 6
REMARK VINA RESULT:      -3.7     20.648     23.837
REMARK  Name = 86311066_OplopantriolA.pdbqt.pdb
REMARK  12 active torsions:
REMARK  status: ('A' for Active; 'I' for Inactive)
REMARK    1  A    between atoms: C_1  and  C_3
REMARK    2  A    between atoms: C_2  and  C_13
REMARK    3  A    between atoms: C_4  and  C_5
REMARK    4  A    between atoms: C_6  and  C_7
REMARK    5  A    between atoms: C_8  and  C_9
REMARK    6  A    between atoms: C_10  and  O_11
REMARK    7  A    between atoms: C_13  and  O_14
REMARK    8  A    between atoms: C_13  and  C_16
REMARK    9  A    between atoms: C_17  and  C_18
REMARK   10  A    between atoms: C_19  and  C_20
REMARK   11  A    between atoms: C_20  and  C_21
REMARK   12  A    between atoms: C_20  and  O_23
REMARK                            x       y       z     vdW  Elec       q    Type
REMARK                         _______ _______ _______ _____ _____    ______ ____
ROOT
ATOM      1  C   UNL     1     -18.085  93.016   3.879  0.00  0.00    +0.000 C 
ATOM      2  C   UNL     1     -18.200  92.093   4.639  0.00  0.00    +0.000 C 
ENDROOT
BRANCH   1   3
ATOM      3  C   UNL     1     -17.939  94.191   2.909  0.00  0.00    +0.000 C 
ATOM      4  C   UNL     1     -17.792  95.367   1.939  0.00  0.00    +0.000 C 
BRANCH   4   5
ATOM      5  C   UNL     1     -17.646  96.544   0.969  0.00  0.00    +0.000 C 
ATOM      6  C   UNL     1     -17.500  97.722   0.001  0.00  0.00    +0.000 C 
BRANCH   6   7
ATOM      7  C   UNL     1     -17.355  98.900  -0.967  0.00  0.00    +0.000 C 
ATOM      8  C   UNL     1     -17.209 100.077  -1.936  0.00  0.00    +0.000 C 
BRANCH   8   9
ATOM      9  C   UNL     1     -17.062 101.254  -2.905  0.00  0.00    +0.000 C 
ATOM     10  C   UNL     1     -16.917 102.431  -3.874  0.00  0.00    +0.000 C 
BRANCH  10  11
ATOM     11  O   UNL     1     -16.790 103.452  -4.714  0.00  0.00    +0.000 OA
ATOM     12  H   UNL     1     -17.380 103.337  -5.478  0.00  0.00    +0.000 HD
ENDBRANCH  10  11
ENDBRANCH   8   9
ENDBRANCH   6   7
ENDBRANCH   4   5
ENDBRANCH   1   3
BRANCH   2  13
ATOM     13  C   UNL     1     -18.334  91.005   5.537  0.00  0.00    +0.000 C 
BRANCH  13  14
ATOM     14  O   UNL     1     -17.322  90.805   6.449  0.00  0.00    +0.000 OA
ATOM     15  H   UNL     1     -16.871  91.637   6.671  0.00  0.00    +0.000 HD
ENDBRANCH  13  14
BRANCH  13  16
ATOM     16  C   UNL     1     -19.444  90.122   5.543  0.00  0.00    +0.000 C 
ATOM     17  C   UNL     1     -20.384  89.376   5.549  0.00  0.00    +0.000 C 
BRANCH  17  18
ATOM     18  C   UNL     1     -21.584  88.425   5.557  0.00  0.00    +0.000 C 
ATOM     19  C   UNL     1     -22.525  87.679   5.564  0.00  0.00    +0.000 C 
BRANCH  19  20
ATOM     20  C   UNL     1     -23.637  86.797   5.572  0.00  0.00    +0.000 C 
BRANCH  20  21
ATOM     21  C   UNL     1     -23.853  85.820   6.583  0.00  0.00    +0.000 C 
ATOM     22  C   UNL     1     -24.040  84.900   7.533  0.00  0.00    +0.000 C 
ENDBRANCH  20  21
BRANCH  20  23
ATOM     23  O   UNL     1     -24.555  86.891   4.545  0.00  0.00    +0.000 OA
ATOM     24  H   UNL     1     -24.279  86.380   3.765  0.00  0.00    +0.000 HD
ENDBRANCH  20  23
ENDBRANCH  19  20
ENDBRANCH  17  18
ENDBRANCH  13  16
ENDBRANCH   2  13
TORSDOF 12
ENDMDL
MODEL 7
REMARK VINA RESULT:      -3.7     13.462     19.847
REMARK  Name = 86311066_OplopantriolA.pdbqt.pdb
REMARK  12 active torsions:
REMARK  status: ('A' for Active; 'I' for Inactive)
REMARK    1  A    between atoms: C_1  and  C_3
REMARK    2  A    between atoms: C_2  and  C_13
REMARK    3  A    between atoms: C_4  and  C_5
REMARK    4  A    between atoms: C_6  and  C_7
REMARK    5  A    between atoms: C_8  and  C_9
REMARK    6  A    between atoms: C_10  and  O_11
REMARK    7  A    between atoms: C_13  and  O_14
REMARK    8  A    between atoms: C_13  and  C_16
REMARK    9  A    between atoms: C_17  and  C_18
REMARK   10  A    between atoms: C_19  and  C_20
REMARK   11  A    between atoms: C_20  and  C_21
REMARK   12  A    between atoms: C_20  and  O_23
REMARK                            x       y       z     vdW  Elec       q    Type
REMARK                         _______ _______ _______ _____ _____    ______ ____
ROOT
ATOM      1  C   UNL     1     -20.745 100.133  10.881  0.00  0.00    +0.000 C 
ATOM      2  C   UNL     1     -20.447  99.849  12.010  0.00  0.00    +0.000 C 
ENDROOT
BRANCH   1   3
ATOM      3  C   UNL     1     -21.125 100.494   9.443  0.00  0.00    +0.000 C 
ATOM      4  C   UNL     1     -21.505 100.856   8.003  0.00  0.00    +0.000 C 
BRANCH   4   5
ATOM      5  C   UNL     1     -21.885 101.217   6.564  0.00  0.00    +0.000 C 
ATOM      6  C   UNL     1     -22.265 101.580   5.126  0.00  0.00    +0.000 C 
BRANCH   6   7
ATOM      7  C   UNL     1     -22.646 101.943   3.687  0.00  0.00    +0.000 C 
ATOM      8  C   UNL     1     -23.027 102.306   2.249  0.00  0.00    +0.000 C 
BRANCH   8   9
ATOM      9  C   UNL     1     -23.406 102.668   0.810  0.00  0.00    +0.000 C 
ATOM     10  C   UNL     1     -23.786 103.030  -0.629  0.00  0.00    +0.000 C 
BRANCH  10  11
ATOM     11  O   UNL     1     -24.115 103.344  -1.877  0.00  0.00    +0.000 OA
ATOM     12  H   UNL     1     -24.041 104.304  -2.014  0.00  0.00    +0.000 HD
ENDBRANCH  10  11
ENDBRANCH   8   9
ENDBRANCH   6   7
ENDBRANCH   4   5
ENDBRANCH   1   3
BRANCH   2  13
ATOM     13  C   UNL     1     -20.095  99.516  13.341  0.00  0.00    +0.000 C 
BRANCH  13  14
ATOM     14  O   UNL     1     -20.937  99.936  14.345  0.00  0.00    +0.000 OA
ATOM     15  H   UNL     1     -20.723  99.511  15.192  0.00  0.00    +0.000 HD
ENDBRANCH  13  14
BRANCH  13  16
ATOM     16  C   UNL     1     -18.932  98.781  13.686  0.00  0.00    +0.000 C 
ATOM     17  C   UNL     1     -17.948  98.158  13.979  0.00  0.00    +0.000 C 
BRANCH  17  18
ATOM     18  C   UNL     1     -16.695  97.362  14.351  0.00  0.00    +0.000 C 
ATOM     19  C   UNL     1     -15.712  96.737  14.644  0.00  0.00    +0.000 C 
BRANCH  19  20
ATOM     20  C   UNL     1     -14.550  95.998  14.988  0.00  0.00    +0.000 C 
BRANCH  20  21
ATOM     21  C   UNL     1     -14.584  94.802  15.758  0.00  0.00    +0.000 C 
ATOM     22  C   UNL     1     -14.622  93.672  16.468  0.00  0.00    +0.000 C 
ENDBRANCH  20  21
BRANCH  20  23
ATOM     23  O   UNL     1     -13.325  96.464  14.555  0.00  0.00    +0.000 OA
ATOM     24  H   UNL     1     -13.419  97.141  13.863  0.00  0.00    +0.000 HD
ENDBRANCH  20  23
ENDBRANCH  19  20
ENDBRANCH  17  18
ENDBRANCH  13  16
ENDBRANCH   2  13
TORSDOF 12
ENDMDL
MODEL 8
REMARK VINA RESULT:      -3.6     28.975     32.840
REMARK  Name = 86311066_OplopantriolA.pdbqt.pdb
REMARK  12 active torsions:
REMARK  status: ('A' for Active; 'I' for Inactive)
REMARK    1  A    between atoms: C_1  and  C_3
REMARK    2  A    between atoms: C_2  and  C_13
REMARK    3  A    between atoms: C_4  and  C_5
REMARK    4  A    between atoms: C_6  and  C_7
REMARK    5  A    between atoms: C_8  and  C_9
REMARK    6  A    between atoms: C_10  and  O_11
REMARK    7  A    between atoms: C_13  and  O_14
REMARK    8  A    between atoms: C_13  and  C_16
REMARK    9  A    between atoms: C_17  and  C_18
REMARK   10  A    between atoms: C_19  and  C_20
REMARK   11  A    between atoms: C_20  and  C_21
REMARK   12  A    between atoms: C_20  and  O_23
REMARK                            x       y       z     vdW  Elec       q    Type
REMARK                         _______ _______ _______ _____ _____    ______ ____
ROOT
ATOM      1  C   UNL     1     -35.983  92.681 -12.695  0.00  0.00    +0.000 C 
ATOM      2  C   UNL     1     -35.302  93.023 -13.624  0.00  0.00    +0.000 C 
ENDROOT
BRANCH   1   3
ATOM      3  C   UNL     1     -36.851  92.246 -11.512  0.00  0.00    +0.000 C 
ATOM      4  C   UNL     1     -37.720  91.810 -10.328  0.00  0.00    +0.000 C 
BRANCH   4   5
ATOM      5  C   UNL     1     -38.589  91.373  -9.145  0.00  0.00    +0.000 C 
ATOM      6  C   UNL     1     -39.460  90.937  -7.963  0.00  0.00    +0.000 C 
BRANCH   6   7
ATOM      7  C   UNL     1     -40.331  90.501  -6.781  0.00  0.00    +0.000 C 
ATOM      8  C   UNL     1     -41.201  90.065  -5.598  0.00  0.00    +0.000 C 
BRANCH   8   9
ATOM      9  C   UNL     1     -42.071  89.630  -4.415  0.00  0.00    +0.000 C 
ATOM     10  C   UNL     1     -42.942  89.196  -3.232  0.00  0.00    +0.000 C 
BRANCH  10  11
ATOM     11  O   UNL     1     -43.696  88.819  -2.207  0.00  0.00    +0.000 OA
ATOM     12  H   UNL     1     -44.543  89.296  -2.217  0.00  0.00    +0.000 HD
ENDBRANCH  10  11
ENDBRANCH   8   9
ENDBRANCH   6   7
ENDBRANCH   4   5
ENDBRANCH   1   3
BRANCH   2  13
ATOM     13  C   UNL     1     -34.498  93.427 -14.718  0.00  0.00    +0.000 C 
BRANCH  13  14
ATOM     14  O   UNL     1     -35.081  93.438 -15.965  0.00  0.00    +0.000 OA
ATOM     15  H   UNL     1     -36.011  93.716 -15.923  0.00  0.00    +0.000 HD
ENDBRANCH  13  14
BRANCH  13  16
ATOM     16  C   UNL     1     -33.139  93.816 -14.595  0.00  0.00    +0.000 C 
ATOM     17  C   UNL     1     -31.989  94.144 -14.491  0.00  0.00    +0.000 C 
BRANCH  17  18
ATOM     18  C   UNL     1     -30.522  94.561 -14.358  0.00  0.00    +0.000 C 
ATOM     19  C   UNL     1     -29.372  94.887 -14.254  0.00  0.00    +0.000 C 
BRANCH  19  20
ATOM     20  C   UNL     1     -28.010  95.272 -14.131  0.00  0.00    +0.000 C 
BRANCH  20  21
ATOM     21  C   UNL     1     -27.583  96.629 -14.091  0.00  0.00    +0.000 C 
ATOM     22  C   UNL     1     -27.184  97.901 -14.037  0.00  0.00    +0.000 C 
ENDBRANCH  20  21
BRANCH  20  23
ATOM     23  O   UNL     1     -27.054  94.281 -14.048  0.00  0.00    +0.000 OA
ATOM     24  H   UNL     1     -27.272  93.519 -14.613  0.00  0.00    +0.000 HD
ENDBRANCH  20  23
ENDBRANCH  19  20
ENDBRANCH  17  18
ENDBRANCH  13  16
ENDBRANCH   2  13
TORSDOF 12
ENDMDL
MODEL 9
REMARK VINA RESULT:      -3.6     27.919     29.382
REMARK  Name = 86311066_OplopantriolA.pdbqt.pdb
REMARK  12 active torsions:
REMARK  status: ('A' for Active; 'I' for Inactive)
REMARK    1  A    between atoms: C_1  and  C_3
REMARK    2  A    between atoms: C_2  and  C_13
REMARK    3  A    between atoms: C_4  and  C_5
REMARK    4  A    between atoms: C_6  and  C_7
REMARK    5  A    between atoms: C_8  and  C_9
REMARK    6  A    between atoms: C_10  and  O_11
REMARK    7  A    between atoms: C_13  and  O_14
REMARK    8  A    between atoms: C_13  and  C_16
REMARK    9  A    between atoms: C_17  and  C_18
REMARK   10  A    between atoms: C_19  and  C_20
REMARK   11  A    between atoms: C_20  and  C_21
REMARK   12  A    between atoms: C_20  and  O_23
REMARK                            x       y       z     vdW  Elec       q    Type
REMARK                         _______ _______ _______ _____ _____    ______ ____
ROOT
ATOM      1  C   UNL     1     -30.529  87.965  -8.116  0.00  0.00    +0.000 C 
ATOM      2  C   UNL     1     -31.650  87.736  -8.483  0.00  0.00    +0.000 C 
ENDROOT
BRANCH   1   3
ATOM      3  C   UNL     1     -29.102  88.258  -7.647  0.00  0.00    +0.000 C 
ATOM      4  C   UNL     1     -27.673  88.551  -7.178  0.00  0.00    +0.000 C 
BRANCH   4   5
ATOM      5  C   UNL     1     -26.245  88.844  -6.708  0.00  0.00    +0.000 C 
ATOM      6  C   UNL     1     -24.817  89.135  -6.237  0.00  0.00    +0.000 C 
BRANCH   6   7
ATOM      7  C   UNL     1     -23.389  89.427  -5.766  0.00  0.00    +0.000 C 
ATOM      8  C   UNL     1     -21.961  89.718  -5.295  0.00  0.00    +0.000 C 
BRANCH   8   9
ATOM      9  C   UNL     1     -20.533  90.011  -4.823  0.00  0.00    +0.000 C 
ATOM     10  C   UNL     1     -19.106  90.304  -4.352  0.00  0.00    +0.000 C 
BRANCH  10  11
ATOM     11  O   UNL     1     -17.869  90.558  -3.942  0.00  0.00    +0.000 OA
ATOM     12  H   UNL     1     -17.712  91.517  -3.915  0.00  0.00    +0.000 HD
ENDBRANCH  10  11
ENDBRANCH   8   9
ENDBRANCH   6   7
ENDBRANCH   4   5
ENDBRANCH   1   3
BRANCH   2  13
ATOM     13  C   UNL     1     -32.971  87.466  -8.917  0.00  0.00    +0.000 C 
BRANCH  13  14
ATOM     14  O   UNL     1     -33.227  86.217  -9.435  0.00  0.00    +0.000 OA
ATOM     15  H   UNL     1     -33.217  85.534  -8.744  0.00  0.00    +0.000 HD
ENDBRANCH  13  14
BRANCH  13  16
ATOM     16  C   UNL     1     -34.030  88.407  -8.845  0.00  0.00    +0.000 C 
ATOM     17  C   UNL     1     -34.928  89.202  -8.784  0.00  0.00    +0.000 C 
BRANCH  17  18
ATOM     18  C   UNL     1     -36.073  90.215  -8.707  0.00  0.00    +0.000 C 
ATOM     19  C   UNL     1     -36.971  91.009  -8.646  0.00  0.00    +0.000 C 
BRANCH  19  20
ATOM     20  C   UNL     1     -38.033  91.950  -8.574  0.00  0.00    +0.000 C 
BRANCH  20  21
ATOM     21  C   UNL     1     -38.960  92.164  -9.632  0.00  0.00    +0.000 C 
ATOM     22  C   UNL     1     -39.822  92.355 -10.633  0.00  0.00    +0.000 C 
ENDBRANCH  20  21
BRANCH  20  23
ATOM     23  O   UNL     1     -38.171  92.694  -7.419  0.00  0.00    +0.000 OA
ATOM     24  H   UNL     1     -37.336  92.754  -6.925  0.00  0.00    +0.000 HD
ENDBRANCH  20  23
ENDBRANCH  19  20
ENDBRANCH  17  18
ENDBRANCH  13  16
ENDBRANCH   2  13
TORSDOF 12
ENDMDL
