MODEL 1
REMARK VINA RESULT:      -7.8      0.000      0.000
REMARK  Name = 91746246_sitosterol.pdbqt.pdb
REMARK  10 active torsions:
REMARK  status: ('A' for Active; 'I' for Inactive)
REMARK    1  A    between atoms: C_5  and  C_20
REMARK    2  A    between atoms: C_19  and  O_30
REMARK    3  A    between atoms: C_20  and  C_22
REMARK    4  A    between atoms: C_23  and  C_24
REMARK    5  A    between atoms: C_24  and  C_28
REMARK    6  A    between atoms: O_30  and  C_32
REMARK    7  A    between atoms: C_32  and  C_33
REMARK    8  A    between atoms: C_34  and  C_35
REMARK    9  A    between atoms: C_38  and  O_41
REMARK   10  A    between atoms: C_40  and  O_43
REMARK                            x       y       z     vdW  Elec       q    Type
REMARK                         _______ _______ _______ _____ _____    ______ ____
ROOT
ATOM      1  C   UNL     1     -54.284  89.001   6.979  0.00  0.00    +0.000 C 
ATOM      2  C   UNL     1     -53.728  87.487   7.128  0.00  0.00    +0.000 C 
ATOM      3  C   UNL     1     -53.543  86.595   5.965  0.00  0.00    +0.000 C 
ATOM      4  C   UNL     1     -53.584  87.011   4.516  0.00  0.00    +0.000 C 
ATOM      5  C   UNL     1     -53.377  89.794   7.912  0.00  0.00    +0.000 C 
ATOM      6  C   UNL     1     -54.131  89.311   5.558  0.00  0.00    +0.000 C 
ATOM      7  C   UNL     1     -53.437  86.020   3.332  0.00  0.00    +0.000 C 
ATOM      8  C   UNL     1     -52.772  87.487   8.193  0.00  0.00    +0.000 C 
ATOM      9  C   UNL     1     -53.833  88.404   4.389  0.00  0.00    +0.000 C 
ATOM     10  C   UNL     1     -52.542  88.903   8.648  0.00  0.00    +0.000 C 
ATOM     11  C   UNL     1     -53.145  85.246   6.134  0.00  0.00    +0.000 C 
ATOM     12  C   UNL     1     -55.750  88.998   7.488  0.00  0.00    +0.000 C 
ATOM     13  C   UNL     1     -52.784  84.564   3.752  0.00  0.00    +0.000 C 
ATOM     14  C   UNL     1     -52.480  86.557   2.319  0.00  0.00    +0.000 C 
ATOM     15  C   UNL     1     -52.786  84.305   5.024  0.00  0.00    +0.000 C 
ATOM     16  C   UNL     1     -54.840  85.737   2.720  0.00  0.00    +0.000 C 
ATOM     17  C   UNL     1     -51.623  84.162   2.988  0.00  0.00    +0.000 C 
ATOM     18  C   UNL     1     -51.222  85.993   1.637  0.00  0.00    +0.000 C 
ATOM     19  C   UNL     1     -50.742  84.683   1.977  0.00  0.00    +0.000 C 
ENDROOT
BRANCH   5  20
ATOM     20  C   UNL     1     -53.531  91.186   8.191  0.00  0.00    +0.000 C 
ATOM     21  C   UNL     1     -54.329  91.687   9.365  0.00  0.00    +0.000 C 
BRANCH  20  22
ATOM     22  C   UNL     1     -53.152  92.171   7.237  0.00  0.00    +0.000 C 
ATOM     23  C   UNL     1     -52.742  93.233   6.205  0.00  0.00    +0.000 C 
BRANCH  23  24
ATOM     24  C   UNL     1     -52.351  94.208   5.239  0.00  0.00    +0.000 C 
ATOM     25  C   UNL     1     -51.715  93.820   3.998  0.00  0.00    +0.000 C 
ATOM     26  C   UNL     1     -51.243  94.814   2.959  0.00  0.00    +0.000 C 
ATOM     27  C   UNL     1     -51.465  92.374   3.624  0.00  0.00    +0.000 C 
BRANCH  24  28
ATOM     28  C   UNL     1     -52.589  95.584   5.499  0.00  0.00    +0.000 C 
ATOM     29  C   UNL     1     -52.778  97.081   5.768  0.00  0.00    +0.000 C 
ENDBRANCH  24  28
ENDBRANCH  23  24
ENDBRANCH  20  22
ENDBRANCH   5  20
BRANCH  19  30
ATOM     30  O   UNL     1     -50.282  83.816   0.990  0.00  0.00    +0.000 OA
BRANCH  30  32
ATOM     31  O   UNL     1     -48.347  84.187  -0.245  0.00  0.00    +0.000 OA
ATOM     32  C   UNL     1     -48.937  83.943   0.797  0.00  0.00    +0.000 C 
BRANCH  32  33
ATOM     33  C   UNL     1     -48.208  83.781   2.031  0.00  0.00    +0.000 C 
ATOM     34  C   UNL     1     -47.617  83.640   3.067  0.00  0.00    +0.000 C 
BRANCH  34  35
ATOM     35  C   UNL     1     -46.931  83.465   4.305  0.00  0.00    +0.000 A 
ATOM     36  C   UNL     1     -45.545  83.313   4.313  0.00  0.00    +0.000 A 
ATOM     37  C   UNL     1     -47.643  83.439   5.501  0.00  0.00    +0.000 A 
ATOM     38  C   UNL     1     -44.855  83.135   5.515  0.00  0.00    +0.000 A 
ATOM     39  C   UNL     1     -46.969  83.262   6.707  0.00  0.00    +0.000 A 
ATOM     40  C   UNL     1     -45.583  83.110   6.707  0.00  0.00    +0.000 A 
BRANCH  38  41
ATOM     41  O   UNL     1     -43.494  82.976   5.610  0.00  0.00    +0.000 OA
ATOM     42  C   UNL     1     -42.955  81.915   4.866  0.00  0.00    +0.000 C 
ENDBRANCH  38  41
BRANCH  40  43
ATOM     43  O   UNL     1     -44.926  82.934   7.895  0.00  0.00    +0.000 OA
ATOM     44  H   UNL     1     -45.585  82.896   8.613  0.00  0.00    +0.000 HD
ENDBRANCH  40  43
ENDBRANCH  34  35
ENDBRANCH  32  33
ENDBRANCH  30  32
ENDBRANCH  19  30
TORSDOF 10
ENDMDL
MODEL 2
REMARK VINA RESULT:      -7.2     31.186     33.850
REMARK  Name = 91746246_sitosterol.pdbqt.pdb
REMARK  10 active torsions:
REMARK  status: ('A' for Active; 'I' for Inactive)
REMARK    1  A    between atoms: C_5  and  C_20
REMARK    2  A    between atoms: C_19  and  O_30
REMARK    3  A    between atoms: C_20  and  C_22
REMARK    4  A    between atoms: C_23  and  C_24
REMARK    5  A    between atoms: C_24  and  C_28
REMARK    6  A    between atoms: O_30  and  C_32
REMARK    7  A    between atoms: C_32  and  C_33
REMARK    8  A    between atoms: C_34  and  C_35
REMARK    9  A    between atoms: C_38  and  O_41
REMARK   10  A    between atoms: C_40  and  O_43
REMARK                            x       y       z     vdW  Elec       q    Type
REMARK                         _______ _______ _______ _____ _____    ______ ____
ROOT
ATOM      1  C   UNL     1     -22.920 103.365  -4.536  0.00  0.00    +0.000 C 
ATOM      2  C   UNL     1     -21.653 103.397  -3.526  0.00  0.00    +0.000 C 
ATOM      3  C   UNL     1     -21.809 103.591  -2.070  0.00  0.00    +0.000 C 
ATOM      4  C   UNL     1     -23.105 103.525  -1.302  0.00  0.00    +0.000 C 
ATOM      5  C   UNL     1     -22.592 102.200  -5.462  0.00  0.00    +0.000 C 
ATOM      6  C   UNL     1     -24.078 103.157  -3.667  0.00  0.00    +0.000 C 
ATOM      7  C   UNL     1     -23.217 103.791   0.222  0.00  0.00    +0.000 C 
ATOM      8  C   UNL     1     -20.685 102.472  -4.029  0.00  0.00    +0.000 C 
ATOM      9  C   UNL     1     -24.199 103.252  -2.166  0.00  0.00    +0.000 C 
ATOM     10  C   UNL     1     -21.275 101.724  -5.194  0.00  0.00    +0.000 C 
ATOM     11  C   UNL     1     -20.679 103.708  -1.224  0.00  0.00    +0.000 C 
ATOM     12  C   UNL     1     -22.920 104.712  -5.306  0.00  0.00    +0.000 C 
ATOM     13  C   UNL     1     -21.779 103.702   1.026  0.00  0.00    +0.000 C 
ATOM     14  C   UNL     1     -24.051 102.739   0.874  0.00  0.00    +0.000 C 
ATOM     15  C   UNL     1     -20.722 103.756   0.274  0.00  0.00    +0.000 C 
ATOM     16  C   UNL     1     -23.788 105.220   0.455  0.00  0.00    +0.000 C 
ATOM     17  C   UNL     1     -21.754 102.796   2.153  0.00  0.00    +0.000 C 
ATOM     18  C   UNL     1     -23.836 101.798   2.072  0.00  0.00    +0.000 C 
ATOM     19  C   UNL     1     -22.595 101.820   2.793  0.00  0.00    +0.000 C 
ENDROOT
BRANCH   5  20
ATOM     20  C   UNL     1     -23.381 101.825  -6.591  0.00  0.00    +0.000 C 
ATOM     21  C   UNL     1     -24.886 101.870  -6.572  0.00  0.00    +0.000 C 
BRANCH  20  22
ATOM     22  C   UNL     1     -22.798 101.153  -7.701  0.00  0.00    +0.000 C 
ATOM     23  C   UNL     1     -22.166 100.429  -8.900  0.00  0.00    +0.000 C 
BRANCH  23  24
ATOM     24  C   UNL     1     -21.566  99.769 -10.015  0.00  0.00    +0.000 C 
ATOM     25  C   UNL     1     -21.997 100.045 -11.369  0.00  0.00    +0.000 C 
ATOM     26  C   UNL     1     -21.426  99.345 -12.582  0.00  0.00    +0.000 C 
ATOM     27  C   UNL     1     -23.064 101.070 -11.695  0.00  0.00    +0.000 C 
BRANCH  24  28
ATOM     28  C   UNL     1     -20.530  98.823  -9.793  0.00  0.00    +0.000 C 
ATOM     29  C   UNL     1     -19.451  97.773  -9.504  0.00  0.00    +0.000 C 
ENDBRANCH  24  28
ENDBRANCH  23  24
ENDBRANCH  20  22
ENDBRANCH   5  20
BRANCH  19  30
ATOM     30  O   UNL     1     -22.578 101.742   4.183  0.00  0.00    +0.000 OA
BRANCH  30  32
ATOM     31  O   UNL     1     -24.215 100.277   4.944  0.00  0.00    +0.000 OA
ATOM     32  C   UNL     1     -23.067 100.547   4.626  0.00  0.00    +0.000 C 
BRANCH  32  33
ATOM     33  C   UNL     1     -22.040  99.536   4.661  0.00  0.00    +0.000 C 
ATOM     34  C   UNL     1     -21.196  98.681   4.684  0.00  0.00    +0.000 C 
BRANCH  34  35
ATOM     35  C   UNL     1     -20.208  97.653   4.706  0.00  0.00    +0.000 A 
ATOM     36  C   UNL     1     -19.926  96.940   3.542  0.00  0.00    +0.000 A 
ATOM     37  C   UNL     1     -19.533  97.358   5.888  0.00  0.00    +0.000 A 
ATOM     38  C   UNL     1     -18.965  95.925   3.544  0.00  0.00    +0.000 A 
ATOM     39  C   UNL     1     -18.574  96.349   5.905  0.00  0.00    +0.000 A 
ATOM     40  C   UNL     1     -18.296  95.639   4.737  0.00  0.00    +0.000 A 
BRANCH  38  41
ATOM     41  O   UNL     1     -18.628  95.175   2.444  0.00  0.00    +0.000 OA
ATOM     42  C   UNL     1     -18.021  95.881   1.393  0.00  0.00    +0.000 C 
ENDBRANCH  38  41
BRANCH  40  43
ATOM     43  O   UNL     1     -17.354  94.647   4.761  0.00  0.00    +0.000 OA
ATOM     44  H   UNL     1     -17.599  93.967   4.106  0.00  0.00    +0.000 HD
ENDBRANCH  40  43
ENDBRANCH  34  35
ENDBRANCH  32  33
ENDBRANCH  30  32
ENDBRANCH  19  30
TORSDOF 10
ENDMDL
MODEL 3
REMARK VINA RESULT:      -7.0     26.882     30.816
REMARK  Name = 91746246_sitosterol.pdbqt.pdb
REMARK  10 active torsions:
REMARK  status: ('A' for Active; 'I' for Inactive)
REMARK    1  A    between atoms: C_5  and  C_20
REMARK    2  A    between atoms: C_19  and  O_30
REMARK    3  A    between atoms: C_20  and  C_22
REMARK    4  A    between atoms: C_23  and  C_24
REMARK    5  A    between atoms: C_24  and  C_28
REMARK    6  A    between atoms: O_30  and  C_32
REMARK    7  A    between atoms: C_32  and  C_33
REMARK    8  A    between atoms: C_34  and  C_35
REMARK    9  A    between atoms: C_38  and  O_41
REMARK   10  A    between atoms: C_40  and  O_43
REMARK                            x       y       z     vdW  Elec       q    Type
REMARK                         _______ _______ _______ _____ _____    ______ ____
ROOT
ATOM      1  C   UNL     1     -27.581 107.736  -0.239  0.00  0.00    +0.000 C 
ATOM      2  C   UNL     1     -26.448 106.744  -0.836  0.00  0.00    +0.000 C 
ATOM      3  C   UNL     1     -25.515 105.998   0.033  0.00  0.00    +0.000 C 
ATOM      4  C   UNL     1     -25.632 105.841   1.529  0.00  0.00    +0.000 C 
ATOM      5  C   UNL     1     -28.807 107.402  -1.079  0.00  0.00    +0.000 C 
ATOM      6  C   UNL     1     -27.682 107.373   1.174  0.00  0.00    +0.000 C 
ATOM      7  C   UNL     1     -24.591 105.090   2.399  0.00  0.00    +0.000 C 
ATOM      8  C   UNL     1     -26.997 106.123  -2.001  0.00  0.00    +0.000 C 
ATOM      9  C   UNL     1     -26.777 106.517   2.027  0.00  0.00    +0.000 C 
ATOM     10  C   UNL     1     -28.446 106.507  -2.128  0.00  0.00    +0.000 C 
ATOM     11  C   UNL     1     -24.474 105.211  -0.518  0.00  0.00    +0.000 C 
ATOM     12  C   UNL     1     -27.097 109.187  -0.502  0.00  0.00    +0.000 C 
ATOM     13  C   UNL     1     -23.594 104.092   1.542  0.00  0.00    +0.000 C 
ATOM     14  C   UNL     1     -25.277 104.169   3.353  0.00  0.00    +0.000 C 
ATOM     15  C   UNL     1     -23.572 104.301   0.261  0.00  0.00    +0.000 C 
ATOM     16  C   UNL     1     -23.689 106.126   3.131  0.00  0.00    +0.000 C 
ATOM     17  C   UNL     1     -23.549 102.721   1.998  0.00  0.00    +0.000 C 
ATOM     18  C   UNL     1     -25.137 102.672   3.676  0.00  0.00    +0.000 C 
ATOM     19  C   UNL     1     -24.191 101.863   2.958  0.00  0.00    +0.000 C 
ENDROOT
BRANCH   5  20
ATOM     20  C   UNL     1     -30.057 108.087  -0.984  0.00  0.00    +0.000 C 
ATOM     21  C   UNL     1     -30.199 109.549  -1.309  0.00  0.00    +0.000 C 
BRANCH  20  22
ATOM     22  C   UNL     1     -31.174 107.486  -0.340  0.00  0.00    +0.000 C 
ATOM     23  C   UNL     1     -32.381 106.840   0.358  0.00  0.00    +0.000 C 
BRANCH  23  24
ATOM     24  C   UNL     1     -33.494 106.241   1.021  0.00  0.00    +0.000 C 
ATOM     25  C   UNL     1     -33.490 106.034   2.454  0.00  0.00    +0.000 C 
ATOM     26  C   UNL     1     -34.624 105.368   3.201  0.00  0.00    +0.000 C 
ATOM     27  C   UNL     1     -32.343 106.473   3.341  0.00  0.00    +0.000 C 
BRANCH  24  28
ATOM     28  C   UNL     1     -34.627 105.840   0.263  0.00  0.00    +0.000 C 
ATOM     29  C   UNL     1     -35.834 105.340  -0.538  0.00  0.00    +0.000 C 
ENDBRANCH  24  28
ENDBRANCH  23  24
ENDBRANCH  20  22
ENDBRANCH   5  20
BRANCH  19  30
ATOM     30  O   UNL     1     -23.417 100.916   3.622  0.00  0.00    +0.000 OA
BRANCH  30  32
ATOM     31  O   UNL     1     -25.159  99.716   4.587  0.00  0.00    +0.000 OA
ATOM     32  C   UNL     1     -24.105 100.331   4.646  0.00  0.00    +0.000 C 
BRANCH  32  33
ATOM     33  C   UNL     1     -23.415 100.484   5.902  0.00  0.00    +0.000 C 
ATOM     34  C   UNL     1     -22.846 100.594   6.955  0.00  0.00    +0.000 C 
BRANCH  34  35
ATOM     35  C   UNL     1     -22.178 100.708   8.210  0.00  0.00    +0.000 A 
ATOM     36  C   UNL     1     -22.123 101.943   8.854  0.00  0.00    +0.000 A 
ATOM     37  C   UNL     1     -21.578  99.591   8.786  0.00  0.00    +0.000 A 
ATOM     38  C   UNL     1     -21.469 102.076  10.082  0.00  0.00    +0.000 A 
ATOM     39  C   UNL     1     -20.923  99.710  10.009  0.00  0.00    +0.000 A 
ATOM     40  C   UNL     1     -20.871 100.948  10.648  0.00  0.00    +0.000 A 
BRANCH  38  41
ATOM     41  O   UNL     1     -21.367 103.254  10.781  0.00  0.00    +0.000 OA
ATOM     42  C   UNL     1     -22.138 104.319  10.287  0.00  0.00    +0.000 C 
ENDBRANCH  38  41
BRANCH  40  43
ATOM     43  O   UNL     1     -20.224 101.058  11.849  0.00  0.00    +0.000 OA
ATOM     44  H   UNL     1     -20.011 100.163  12.173  0.00  0.00    +0.000 HD
ENDBRANCH  40  43
ENDBRANCH  34  35
ENDBRANCH  32  33
ENDBRANCH  30  32
ENDBRANCH  19  30
TORSDOF 10
ENDMDL
MODEL 4
REMARK VINA RESULT:      -7.0     31.585     34.163
REMARK  Name = 91746246_sitosterol.pdbqt.pdb
REMARK  10 active torsions:
REMARK  status: ('A' for Active; 'I' for Inactive)
REMARK    1  A    between atoms: C_5  and  C_20
REMARK    2  A    between atoms: C_19  and  O_30
REMARK    3  A    between atoms: C_20  and  C_22
REMARK    4  A    between atoms: C_23  and  C_24
REMARK    5  A    between atoms: C_24  and  C_28
REMARK    6  A    between atoms: O_30  and  C_32
REMARK    7  A    between atoms: C_32  and  C_33
REMARK    8  A    between atoms: C_34  and  C_35
REMARK    9  A    between atoms: C_38  and  O_41
REMARK   10  A    between atoms: C_40  and  O_43
REMARK                            x       y       z     vdW  Elec       q    Type
REMARK                         _______ _______ _______ _____ _____    ______ ____
ROOT
ATOM      1  C   UNL     1     -23.141 103.443  -4.625  0.00  0.00    +0.000 C 
ATOM      2  C   UNL     1     -21.799 103.394  -3.717  0.00  0.00    +0.000 C 
ATOM      3  C   UNL     1     -21.826 103.611  -2.257  0.00  0.00    +0.000 C 
ATOM      4  C   UNL     1     -23.060 103.645  -1.389  0.00  0.00    +0.000 C 
ATOM      5  C   UNL     1     -22.970 102.249  -5.556  0.00  0.00    +0.000 C 
ATOM      6  C   UNL     1     -24.238 103.326  -3.666  0.00  0.00    +0.000 C 
ATOM      7  C   UNL     1     -23.032 103.932   0.135  0.00  0.00    +0.000 C 
ATOM      8  C   UNL     1     -20.941 102.398  -4.280  0.00  0.00    +0.000 C 
ATOM      9  C   UNL     1     -24.234 103.443  -2.161  0.00  0.00    +0.000 C 
ATOM     10  C   UNL     1     -21.672 101.683  -5.385  0.00  0.00    +0.000 C 
ATOM     11  C   UNL     1     -20.628 103.656  -1.502  0.00  0.00    +0.000 C 
ATOM     12  C   UNL     1     -23.107 104.780  -5.412  0.00  0.00    +0.000 C 
ATOM     13  C   UNL     1     -21.545 103.748   0.826  0.00  0.00    +0.000 C 
ATOM     14  C   UNL     1     -23.885 102.948   0.865  0.00  0.00    +0.000 C 
ATOM     15  C   UNL     1     -20.549 103.720  -0.006  0.00  0.00    +0.000 C 
ATOM     16  C   UNL     1     -23.481 105.401   0.390  0.00  0.00    +0.000 C 
ATOM     17  C   UNL     1     -21.495 102.853   1.960  0.00  0.00    +0.000 C 
ATOM     18  C   UNL     1     -23.643 102.006   2.056  0.00  0.00    +0.000 C 
ATOM     19  C   UNL     1     -22.350 101.945   2.679  0.00  0.00    +0.000 C 
ENDROOT
BRANCH   5  20
ATOM     20  C   UNL     1     -23.869 101.921  -6.615  0.00  0.00    +0.000 C 
ATOM     21  C   UNL     1     -25.353 101.790  -6.399  0.00  0.00    +0.000 C 
BRANCH  20  22
ATOM     22  C   UNL     1     -23.385 101.457  -7.870  0.00  0.00    +0.000 C 
ATOM     23  C   UNL     1     -22.863 100.953  -9.224  0.00  0.00    +0.000 C 
BRANCH  23  24
ATOM     24  C   UNL     1     -22.363 100.477 -10.474  0.00  0.00    +0.000 C 
ATOM     25  C   UNL     1     -21.244  99.561 -10.534  0.00  0.00    +0.000 C 
ATOM     26  C   UNL     1     -20.649  99.058 -11.831  0.00  0.00    +0.000 C 
ATOM     27  C   UNL     1     -20.565  99.016  -9.294  0.00  0.00    +0.000 C 
BRANCH  24  28
ATOM     28  C   UNL     1     -22.974 100.910 -11.681  0.00  0.00    +0.000 C 
ATOM     29  C   UNL     1     -23.574 101.363 -13.017  0.00  0.00    +0.000 C 
ENDBRANCH  24  28
ENDBRANCH  23  24
ENDBRANCH  20  22
ENDBRANCH   5  20
BRANCH  19  30
ATOM     30  O   UNL     1     -22.230 101.879   4.064  0.00  0.00    +0.000 OA
BRANCH  30  32
ATOM     31  O   UNL     1     -21.590  99.661   3.787  0.00  0.00    +0.000 OA
ATOM     32  C   UNL     1     -21.811 100.647   4.474  0.00  0.00    +0.000 C 
BRANCH  32  33
ATOM     33  C   UNL     1     -21.602 100.608   5.901  0.00  0.00    +0.000 C 
ATOM     34  C   UNL     1     -21.410 100.582   7.086  0.00  0.00    +0.000 C 
BRANCH  34  35
ATOM     35  C   UNL     1     -21.164 100.558   8.491  0.00  0.00    +0.000 A 
ATOM     36  C   UNL     1     -20.800 101.731   9.150  0.00  0.00    +0.000 A 
ATOM     37  C   UNL     1     -21.282  99.365   9.200  0.00  0.00    +0.000 A 
ATOM     38  C   UNL     1     -20.549 101.727  10.525  0.00  0.00    +0.000 A 
ATOM     39  C   UNL     1     -21.035  99.347  10.571  0.00  0.00    +0.000 A 
ATOM     40  C   UNL     1     -20.670 100.523  11.223  0.00  0.00    +0.000 A 
BRANCH  38  41
ATOM     41  O   UNL     1     -20.184 102.836  11.248  0.00  0.00    +0.000 OA
ATOM     42  C   UNL     1     -19.482 103.820  10.534  0.00  0.00    +0.000 C 
ENDBRANCH  38  41
BRANCH  40  43
ATOM     43  O   UNL     1     -20.427 100.498  12.570  0.00  0.00    +0.000 OA
ATOM     44  H   UNL     1     -20.947 101.206  12.994  0.00  0.00    +0.000 HD
ENDBRANCH  40  43
ENDBRANCH  34  35
ENDBRANCH  32  33
ENDBRANCH  30  32
ENDBRANCH  19  30
TORSDOF 10
ENDMDL
MODEL 5
REMARK VINA RESULT:      -6.9     28.221     33.392
REMARK  Name = 91746246_sitosterol.pdbqt.pdb
REMARK  10 active torsions:
REMARK  status: ('A' for Active; 'I' for Inactive)
REMARK    1  A    between atoms: C_5  and  C_20
REMARK    2  A    between atoms: C_19  and  O_30
REMARK    3  A    between atoms: C_20  and  C_22
REMARK    4  A    between atoms: C_23  and  C_24
REMARK    5  A    between atoms: C_24  and  C_28
REMARK    6  A    between atoms: O_30  and  C_32
REMARK    7  A    between atoms: C_32  and  C_33
REMARK    8  A    between atoms: C_34  and  C_35
REMARK    9  A    between atoms: C_38  and  O_41
REMARK   10  A    between atoms: C_40  and  O_43
REMARK                            x       y       z     vdW  Elec       q    Type
REMARK                         _______ _______ _______ _____ _____    ______ ____
ROOT
ATOM      1  C   UNL     1     -18.130  91.029   3.741  0.00  0.00    +0.000 C 
ATOM      2  C   UNL     1     -17.963  91.911   5.090  0.00  0.00    +0.000 C 
ATOM      3  C   UNL     1     -17.902  93.387   5.065  0.00  0.00    +0.000 C 
ATOM      4  C   UNL     1     -18.234  94.267   3.885  0.00  0.00    +0.000 C 
ATOM      5  C   UNL     1     -19.155  89.977   4.144  0.00  0.00    +0.000 C 
ATOM      6  C   UNL     1     -18.586  91.982   2.731  0.00  0.00    +0.000 C 
ATOM      7  C   UNL     1     -18.100  95.812   3.900  0.00  0.00    +0.000 C 
ATOM      8  C   UNL     1     -18.678  91.238   6.130  0.00  0.00    +0.000 C 
ATOM      9  C   UNL     1     -18.620  93.491   2.760  0.00  0.00    +0.000 C 
ATOM     10  C   UNL     1     -19.427  90.074   5.540  0.00  0.00    +0.000 C 
ATOM     11  C   UNL     1     -17.662  94.129   6.248  0.00  0.00    +0.000 C 
ATOM     12  C   UNL     1     -16.749  90.384   3.448  0.00  0.00    +0.000 C 
ATOM     13  C   UNL     1     -18.009  96.464   5.413  0.00  0.00    +0.000 C 
ATOM     14  C   UNL     1     -19.319  96.446   3.315  0.00  0.00    +0.000 C 
ATOM     15  C   UNL     1     -17.729  95.622   6.361  0.00  0.00    +0.000 C 
ATOM     16  C   UNL     1     -16.804  96.223   3.142  0.00  0.00    +0.000 C 
ATOM     17  C   UNL     1     -18.978  97.498   5.701  0.00  0.00    +0.000 C 
ATOM     18  C   UNL     1     -20.295  97.529   3.803  0.00  0.00    +0.000 C 
ATOM     19  C   UNL     1     -20.122  98.128   5.097  0.00  0.00    +0.000 C 
ENDROOT
BRANCH   5  20
ATOM     20  C   UNL     1     -19.573  88.899   3.305  0.00  0.00    +0.000 C 
ATOM     21  C   UNL     1     -19.407  88.934   1.809  0.00  0.00    +0.000 C 
BRANCH  20  22
ATOM     22  C   UNL     1     -20.391  87.851   3.811  0.00  0.00    +0.000 C 
ATOM     23  C   UNL     1     -21.272  86.717   4.357  0.00  0.00    +0.000 C 
BRANCH  23  24
ATOM     24  C   UNL     1     -22.090  85.655   4.850  0.00  0.00    +0.000 C 
ATOM     25  C   UNL     1     -22.946  85.841   6.002  0.00  0.00    +0.000 C 
ATOM     26  C   UNL     1     -23.800  84.739   6.589  0.00  0.00    +0.000 C 
ATOM     27  C   UNL     1     -23.066  87.165   6.727  0.00  0.00    +0.000 C 
BRANCH  24  28
ATOM     28  C   UNL     1     -22.063  84.393   4.198  0.00  0.00    +0.000 C 
ATOM     29  C   UNL     1     -22.071  83.005   3.548  0.00  0.00    +0.000 C 
ENDBRANCH  24  28
ENDBRANCH  23  24
ENDBRANCH  20  22
ENDBRANCH   5  20
BRANCH  19  30
ATOM     30  O   UNL     1     -20.295  99.497   5.276  0.00  0.00    +0.000 OA
BRANCH  30  32
ATOM     31  O   UNL     1     -22.095  99.438   6.747  0.00  0.00    +0.000 OA
ATOM     32  C   UNL     1     -21.555  99.792   5.710  0.00  0.00    +0.000 C 
BRANCH  32  33
ATOM     33  C   UNL     1     -22.245 100.655   4.782  0.00  0.00    +0.000 C 
ATOM     34  C   UNL     1     -22.813 101.388   4.018  0.00  0.00    +0.000 C 
BRANCH  34  35
ATOM     35  C   UNL     1     -23.480 102.274   3.122  0.00  0.00    +0.000 A 
ATOM     36  C   UNL     1     -23.256 102.168   1.750  0.00  0.00    +0.000 A 
ATOM     37  C   UNL     1     -24.347 103.245   3.616  0.00  0.00    +0.000 A 
ATOM     38  C   UNL     1     -23.896 103.030   0.855  0.00  0.00    +0.000 A 
ATOM     39  C   UNL     1     -24.991 104.111   2.735  0.00  0.00    +0.000 A 
ATOM     40  C   UNL     1     -24.762 104.000   1.365  0.00  0.00    +0.000 A 
BRANCH  38  41
ATOM     41  O   UNL     1     -23.729 102.994  -0.508  0.00  0.00    +0.000 OA
ATOM     42  C   UNL     1     -22.496 103.472  -0.979  0.00  0.00    +0.000 C 
ENDBRANCH  38  41
BRANCH  40  43
ATOM     43  O   UNL     1     -25.397 104.855   0.505  0.00  0.00    +0.000 OA
ATOM     44  H   UNL     1     -26.135 104.380   0.080  0.00  0.00    +0.000 HD
ENDBRANCH  40  43
ENDBRANCH  34  35
ENDBRANCH  32  33
ENDBRANCH  30  32
ENDBRANCH  19  30
TORSDOF 10
ENDMDL
MODEL 6
REMARK VINA RESULT:      -6.8     28.485     33.310
REMARK  Name = 91746246_sitosterol.pdbqt.pdb
REMARK  10 active torsions:
REMARK  status: ('A' for Active; 'I' for Inactive)
REMARK    1  A    between atoms: C_5  and  C_20
REMARK    2  A    between atoms: C_19  and  O_30
REMARK    3  A    between atoms: C_20  and  C_22
REMARK    4  A    between atoms: C_23  and  C_24
REMARK    5  A    between atoms: C_24  and  C_28
REMARK    6  A    between atoms: O_30  and  C_32
REMARK    7  A    between atoms: C_32  and  C_33
REMARK    8  A    between atoms: C_34  and  C_35
REMARK    9  A    between atoms: C_38  and  O_41
REMARK   10  A    between atoms: C_40  and  O_43
REMARK                            x       y       z     vdW  Elec       q    Type
REMARK                         _______ _______ _______ _____ _____    ______ ____
ROOT
ATOM      1  C   UNL     1     -19.071  89.022   3.901  0.00  0.00    +0.000 C 
ATOM      2  C   UNL     1     -18.996  90.009   5.184  0.00  0.00    +0.000 C 
ATOM      3  C   UNL     1     -18.527  91.406   5.079  0.00  0.00    +0.000 C 
ATOM      4  C   UNL     1     -18.313  92.173   3.798  0.00  0.00    +0.000 C 
ATOM      5  C   UNL     1     -20.412  88.322   4.084  0.00  0.00    +0.000 C 
ATOM      6  C   UNL     1     -18.992  89.914   2.745  0.00  0.00    +0.000 C 
ATOM      7  C   UNL     1     -17.767  93.624   3.746  0.00  0.00    +0.000 C 
ATOM      8  C   UNL     1     -20.095  89.681   6.038  0.00  0.00    +0.000 C 
ATOM      9  C   UNL     1     -18.617  91.374   2.665  0.00  0.00    +0.000 C 
ATOM     10  C   UNL     1     -20.972  88.671   5.348  0.00  0.00    +0.000 C 
ATOM     11  C   UNL     1     -18.383  92.217   6.231  0.00  0.00    +0.000 C 
ATOM     12  C   UNL     1     -17.892  88.021   4.029  0.00  0.00    +0.000 C 
ATOM     13  C   UNL     1     -17.865  94.431   5.183  0.00  0.00    +0.000 C 
ATOM     14  C   UNL     1     -18.587  94.456   2.817  0.00  0.00    +0.000 C 
ATOM     15  C   UNL     1     -18.062  93.681   6.224  0.00  0.00    +0.000 C 
ATOM     16  C   UNL     1     -16.265  93.594   3.335  0.00  0.00    +0.000 C 
ATOM     17  C   UNL     1     -18.551  95.702   5.133  0.00  0.00    +0.000 C 
ATOM     18  C   UNL     1     -19.315  95.804   2.955  0.00  0.00    +0.000 C 
ATOM     19  C   UNL     1     -19.299  96.510   4.206  0.00  0.00    +0.000 C 
ENDROOT
BRANCH   5  20
ATOM     20  C   UNL     1     -20.896  87.280   3.237  0.00  0.00    +0.000 C 
ATOM     21  C   UNL     1     -21.126  87.482   1.763  0.00  0.00    +0.000 C 
BRANCH  20  22
ATOM     22  C   UNL     1     -21.422  86.076   3.784  0.00  0.00    +0.000 C 
ATOM     23  C   UNL     1     -21.991  84.778   4.377  0.00  0.00    +0.000 C 
BRANCH  23  24
ATOM     24  C   UNL     1     -22.514  83.577   4.944  0.00  0.00    +0.000 C 
ATOM     25  C   UNL     1     -23.323  83.604   6.144  0.00  0.00    +0.000 C 
ATOM     26  C   UNL     1     -23.867  82.359   6.810  0.00  0.00    +0.000 C 
ATOM     27  C   UNL     1     -23.702  84.892   6.846  0.00  0.00    +0.000 C 
BRANCH  24  28
ATOM     28  C   UNL     1     -22.237  82.331   4.320  0.00  0.00    +0.000 C 
ATOM     29  C   UNL     1     -21.944  81.018   3.585  0.00  0.00    +0.000 C 
ENDBRANCH  24  28
ENDBRANCH  23  24
ENDBRANCH  20  22
ENDBRANCH   5  20
BRANCH  19  30
ATOM     30  O   UNL     1     -19.126  97.890   4.241  0.00  0.00    +0.000 OA
BRANCH  30  32
ATOM     31  O   UNL     1     -21.212  98.831   3.825  0.00  0.00    +0.000 OA
ATOM     32  C   UNL     1     -20.286  98.534   4.565  0.00  0.00    +0.000 C 
BRANCH  32  33
ATOM     33  C   UNL     1     -20.350  98.831   5.974  0.00  0.00    +0.000 C 
ATOM     34  C   UNL     1     -20.388  99.069   7.152  0.00  0.00    +0.000 C 
BRANCH  34  35
ATOM     35  C   UNL     1     -20.417  99.339   8.551  0.00  0.00    +0.000 A 
ATOM     36  C   UNL     1     -19.239  99.274   9.293  0.00  0.00    +0.000 A 
ATOM     37  C   UNL     1     -21.620  99.660   9.175  0.00  0.00    +0.000 A 
ATOM     38  C   UNL     1     -19.248  99.530  10.667  0.00  0.00    +0.000 A 
ATOM     39  C   UNL     1     -21.643  99.918  10.544  0.00  0.00    +0.000 A 
ATOM     40  C   UNL     1     -20.462  99.850  11.281  0.00  0.00    +0.000 A 
BRANCH  38  41
ATOM     41  O   UNL     1     -18.135  99.485  11.470  0.00  0.00    +0.000 OA
ATOM     42  C   UNL     1     -16.909  99.352  10.799  0.00  0.00    +0.000 C 
ENDBRANCH  38  41
BRANCH  40  43
ATOM     43  O   UNL     1     -20.492 100.102  12.625  0.00  0.00    +0.000 OA
ATOM     44  H   UNL     1     -19.889 100.845  12.817  0.00  0.00    +0.000 HD
ENDBRANCH  40  43
ENDBRANCH  34  35
ENDBRANCH  32  33
ENDBRANCH  30  32
ENDBRANCH  19  30
TORSDOF 10
ENDMDL
MODEL 7
REMARK VINA RESULT:      -6.6     29.056     33.732
REMARK  Name = 91746246_sitosterol.pdbqt.pdb
REMARK  10 active torsions:
REMARK  status: ('A' for Active; 'I' for Inactive)
REMARK    1  A    between atoms: C_5  and  C_20
REMARK    2  A    between atoms: C_19  and  O_30
REMARK    3  A    between atoms: C_20  and  C_22
REMARK    4  A    between atoms: C_23  and  C_24
REMARK    5  A    between atoms: C_24  and  C_28
REMARK    6  A    between atoms: O_30  and  C_32
REMARK    7  A    between atoms: C_32  and  C_33
REMARK    8  A    between atoms: C_34  and  C_35
REMARK    9  A    between atoms: C_38  and  O_41
REMARK   10  A    between atoms: C_40  and  O_43
REMARK                            x       y       z     vdW  Elec       q    Type
REMARK                         _______ _______ _______ _____ _____    ______ ____
ROOT
ATOM      1  C   UNL     1     -19.830  88.255   3.207  0.00  0.00    +0.000 C 
ATOM      2  C   UNL     1     -19.729  89.056   4.612  0.00  0.00    +0.000 C 
ATOM      3  C   UNL     1     -18.984  90.324   4.745  0.00  0.00    +0.000 C 
ATOM      4  C   UNL     1     -18.457  91.165   3.609  0.00  0.00    +0.000 C 
ATOM      5  C   UNL     1     -21.295  87.840   3.153  0.00  0.00    +0.000 C 
ATOM      6  C   UNL     1     -19.427  89.232   2.196  0.00  0.00    +0.000 C 
ATOM      7  C   UNL     1     -17.633  92.463   3.810  0.00  0.00    +0.000 C 
ATOM      8  C   UNL     1     -20.973  88.877   5.294  0.00  0.00    +0.000 C 
ATOM      9  C   UNL     1     -18.763  90.578   2.353  0.00  0.00    +0.000 C 
ATOM     10  C   UNL     1     -21.935  88.158   4.387  0.00  0.00    +0.000 C 
ATOM     11  C   UNL     1     -18.833  90.954   6.005  0.00  0.00    +0.000 C 
ATOM     12  C   UNL     1     -18.900  87.018   3.322  0.00  0.00    +0.000 C 
ATOM     13  C   UNL     1     -17.756  93.109   5.324  0.00  0.00    +0.000 C 
ATOM     14  C   UNL     1     -18.145  93.548   2.921  0.00  0.00    +0.000 C 
ATOM     15  C   UNL     1     -18.231  92.309   6.229  0.00  0.00    +0.000 C 
ATOM     16  C   UNL     1     -16.126  92.161   3.559  0.00  0.00    +0.000 C 
ATOM     17  C   UNL     1     -18.164  94.495   5.375  0.00  0.00    +0.000 C 
ATOM     18  C   UNL     1     -18.603  94.996   3.162  0.00  0.00    +0.000 C 
ATOM     19  C   UNL     1     -18.611  95.540   4.491  0.00  0.00    +0.000 C 
ENDROOT
BRANCH   5  20
ATOM     20  C   UNL     1     -21.862  87.024   2.127  0.00  0.00    +0.000 C 
ATOM     21  C   UNL     1     -23.173  86.306   2.302  0.00  0.00    +0.000 C 
BRANCH  20  22
ATOM     22  C   UNL     1     -21.099  86.645   0.987  0.00  0.00    +0.000 C 
ATOM     23  C   UNL     1     -20.273  86.237  -0.242  0.00  0.00    +0.000 C 
BRANCH  23  24
ATOM     24  C   UNL     1     -19.494  85.869  -1.381  0.00  0.00    +0.000 C 
ATOM     25  C   UNL     1     -18.252  86.546  -1.689  0.00  0.00    +0.000 C 
ATOM     26  C   UNL     1     -17.409  86.225  -2.904  0.00  0.00    +0.000 C 
ATOM     27  C   UNL     1     -17.679  87.643  -0.815  0.00  0.00    +0.000 C 
BRANCH  24  28
ATOM     28  C   UNL     1     -19.944  84.821  -2.227  0.00  0.00    +0.000 C 
ATOM     29  C   UNL     1     -20.489  83.726  -3.151  0.00  0.00    +0.000 C 
ENDBRANCH  24  28
ENDBRANCH  23  24
ENDBRANCH  20  22
ENDBRANCH   5  20
BRANCH  19  30
ATOM     30  O   UNL     1     -18.175  96.840   4.730  0.00  0.00    +0.000 OA
BRANCH  30  32
ATOM     31  O   UNL     1     -19.908  98.099   3.826  0.00  0.00    +0.000 OA
ATOM     32  C   UNL     1     -19.216  97.722   4.760  0.00  0.00    +0.000 C 
BRANCH  32  33
ATOM     33  C   UNL     1     -19.476  98.188   6.100  0.00  0.00    +0.000 C 
ATOM     34  C   UNL     1     -19.676  98.570   7.221  0.00  0.00    +0.000 C 
BRANCH  34  35
ATOM     35  C   UNL     1     -19.894  99.018   8.557  0.00  0.00    +0.000 A 
ATOM     36  C   UNL     1     -18.817  99.127   9.435  0.00  0.00    +0.000 A 
ATOM     37  C   UNL     1     -21.180  99.339   8.984  0.00  0.00    +0.000 A 
ATOM     38  C   UNL     1     -19.012  99.559  10.750  0.00  0.00    +0.000 A 
ATOM     39  C   UNL     1     -21.389  99.771  10.292  0.00  0.00    +0.000 A 
ATOM     40  C   UNL     1     -20.307  99.876  11.166  0.00  0.00    +0.000 A 
BRANCH  38  41
ATOM     41  O   UNL     1     -18.008  99.691  11.678  0.00  0.00    +0.000 OA
ATOM     42  C   UNL     1     -16.701  99.592  11.174  0.00  0.00    +0.000 C 
ENDBRANCH  38  41
BRANCH  40  43
ATOM     43  O   UNL     1     -20.519 100.299  12.450  0.00  0.00    +0.000 OA
ATOM     44  H   UNL     1     -20.074  99.680  13.059  0.00  0.00    +0.000 HD
ENDBRANCH  40  43
ENDBRANCH  34  35
ENDBRANCH  32  33
ENDBRANCH  30  32
ENDBRANCH  19  30
TORSDOF 10
ENDMDL
MODEL 8
REMARK VINA RESULT:      -6.5     28.277     32.374
REMARK  Name = 91746246_sitosterol.pdbqt.pdb
REMARK  10 active torsions:
REMARK  status: ('A' for Active; 'I' for Inactive)
REMARK    1  A    between atoms: C_5  and  C_20
REMARK    2  A    between atoms: C_19  and  O_30
REMARK    3  A    between atoms: C_20  and  C_22
REMARK    4  A    between atoms: C_23  and  C_24
REMARK    5  A    between atoms: C_24  and  C_28
REMARK    6  A    between atoms: O_30  and  C_32
REMARK    7  A    between atoms: C_32  and  C_33
REMARK    8  A    between atoms: C_34  and  C_35
REMARK    9  A    between atoms: C_38  and  O_41
REMARK   10  A    between atoms: C_40  and  O_43
REMARK                            x       y       z     vdW  Elec       q    Type
REMARK                         _______ _______ _______ _____ _____    ______ ____
ROOT
ATOM      1  C   UNL     1     -17.650  94.705   4.272  0.00  0.00    +0.000 C 
ATOM      2  C   UNL     1     -18.042  93.628   3.126  0.00  0.00    +0.000 C 
ATOM      3  C   UNL     1     -18.245  92.196   3.425  0.00  0.00    +0.000 C 
ATOM      4  C   UNL     1     -18.377  91.589   4.799  0.00  0.00    +0.000 C 
ATOM      5  C   UNL     1     -18.540  95.897   3.943  0.00  0.00    +0.000 C 
ATOM      6  C   UNL     1     -17.961  94.031   5.532  0.00  0.00    +0.000 C 
ATOM      7  C   UNL     1     -18.535  90.067   5.056  0.00  0.00    +0.000 C 
ATOM      8  C   UNL     1     -18.891  94.295   2.189  0.00  0.00    +0.000 C 
ATOM      9  C   UNL     1     -18.275  92.581   5.810  0.00  0.00    +0.000 C 
ATOM     10  C   UNL     1     -19.215  95.670   2.707  0.00  0.00    +0.000 C 
ATOM     11  C   UNL     1     -18.494  91.262   2.390  0.00  0.00    +0.000 C 
ATOM     12  C   UNL     1     -16.150  95.051   4.075  0.00  0.00    +0.000 C 
ATOM     13  C   UNL     1     -19.004  89.207   3.727  0.00  0.00    +0.000 C 
ATOM     14  C   UNL     1     -19.627  89.816   6.042  0.00  0.00    +0.000 C 
ATOM     15  C   UNL     1     -18.860  89.822   2.593  0.00  0.00    +0.000 C 
ATOM     16  C   UNL     1     -17.172  89.480   5.528  0.00  0.00    +0.000 C 
ATOM     17  C   UNL     1     -20.184  88.392   3.903  0.00  0.00    +0.000 C 
ATOM     18  C   UNL     1     -20.882  88.927   6.040  0.00  0.00    +0.000 C 
ATOM     19  C   UNL     1     -21.200  88.130   4.888  0.00  0.00    +0.000 C 
ENDROOT
BRANCH   5  20
ATOM     20  C   UNL     1     -18.496  97.147   4.631  0.00  0.00    +0.000 C 
ATOM     21  C   UNL     1     -18.493  98.465   3.905  0.00  0.00    +0.000 C 
BRANCH  20  22
ATOM     22  C   UNL     1     -18.199  97.208   6.021  0.00  0.00    +0.000 C 
ATOM     23  C   UNL     1     -17.876  97.273   7.522  0.00  0.00    +0.000 C 
BRANCH  23  24
ATOM     24  C   UNL     1     -17.568  97.319   8.915  0.00  0.00    +0.000 C 
ATOM     25  C   UNL     1     -16.914  96.208   9.575  0.00  0.00    +0.000 C 
ATOM     26  C   UNL     1     -16.602  96.187  11.055  0.00  0.00    +0.000 C 
ATOM     27  C   UNL     1     -16.478  94.960   8.836  0.00  0.00    +0.000 C 
BRANCH  24  28
ATOM     28  C   UNL     1     -17.909  98.473   9.669  0.00  0.00    +0.000 C 
ATOM     29  C   UNL     1     -18.219  99.710  10.521  0.00  0.00    +0.000 C 
ENDBRANCH  24  28
ENDBRANCH  23  24
ENDBRANCH  20  22
ENDBRANCH   5  20
BRANCH  19  30
ATOM     30  O   UNL     1     -21.663  86.826   5.031  0.00  0.00    +0.000 OA
BRANCH  30  32
ATOM     31  O   UNL     1     -23.954  86.689   4.658  0.00  0.00    +0.000 OA
ATOM     32  C   UNL     1     -22.790  86.608   4.294  0.00  0.00    +0.000 C 
BRANCH  32  33
ATOM     33  C   UNL     1     -22.472  86.277   2.927  0.00  0.00    +0.000 C 
ATOM     34  C   UNL     1     -22.193  86.014   1.788  0.00  0.00    +0.000 C 
BRANCH  34  35
ATOM     35  C   UNL     1     -21.850  85.717   0.436  0.00  0.00    +0.000 A 
ATOM     36  C   UNL     1     -22.800  85.148  -0.410  0.00  0.00    +0.000 A 
ATOM     37  C   UNL     1     -20.568  85.989  -0.034  0.00  0.00    +0.000 A 
ATOM     38  C   UNL     1     -22.481  84.844  -1.737  0.00  0.00    +0.000 A 
ATOM     39  C   UNL     1     -20.236  85.691  -1.354  0.00  0.00    +0.000 A 
ATOM     40  C   UNL     1     -21.190  85.121  -2.195  0.00  0.00    +0.000 A 
BRANCH  38  41
ATOM     41  O   UNL     1     -23.355  84.282  -2.634  0.00  0.00    +0.000 OA
ATOM     42  C   UNL     1     -24.339  85.145  -3.143  0.00  0.00    +0.000 C 
ENDBRANCH  38  41
BRANCH  40  43
ATOM     43  O   UNL     1     -20.858  84.829  -3.490  0.00  0.00    +0.000 OA
ATOM     44  H   UNL     1     -21.044  83.886  -3.655  0.00  0.00    +0.000 HD
ENDBRANCH  40  43
ENDBRANCH  34  35
ENDBRANCH  32  33
ENDBRANCH  30  32
ENDBRANCH  19  30
TORSDOF 10
ENDMDL
MODEL 9
REMARK VINA RESULT:      -6.5      3.261      6.110
REMARK  Name = 91746246_sitosterol.pdbqt.pdb
REMARK  10 active torsions:
REMARK  status: ('A' for Active; 'I' for Inactive)
REMARK    1  A    between atoms: C_5  and  C_20
REMARK    2  A    between atoms: C_19  and  O_30
REMARK    3  A    between atoms: C_20  and  C_22
REMARK    4  A    between atoms: C_23  and  C_24
REMARK    5  A    between atoms: C_24  and  C_28
REMARK    6  A    between atoms: O_30  and  C_32
REMARK    7  A    between atoms: C_32  and  C_33
REMARK    8  A    between atoms: C_34  and  C_35
REMARK    9  A    between atoms: C_38  and  O_41
REMARK   10  A    between atoms: C_40  and  O_43
REMARK                            x       y       z     vdW  Elec       q    Type
REMARK                         _______ _______ _______ _____ _____    ______ ____
ROOT
ATOM      1  C   UNL     1     -52.767  93.861   3.776  0.00  0.00    +0.000 C 
ATOM      2  C   UNL     1     -52.578  93.392   5.316  0.00  0.00    +0.000 C 
ATOM      3  C   UNL     1     -53.226  92.181   5.858  0.00  0.00    +0.000 C 
ATOM      4  C   UNL     1     -53.908  91.105   5.050  0.00  0.00    +0.000 C 
ATOM      5  C   UNL     1     -51.357  94.262   3.363  0.00  0.00    +0.000 C 
ATOM      6  C   UNL     1     -53.299  92.681   3.095  0.00  0.00    +0.000 C 
ATOM      7  C   UNL     1     -54.621  89.879   5.677  0.00  0.00    +0.000 C 
ATOM      8  C   UNL     1     -51.241  93.726   5.701  0.00  0.00    +0.000 C 
ATOM      9  C   UNL     1     -53.860  91.400   3.661  0.00  0.00    +0.000 C 
ATOM     10  C   UNL     1     -50.492  94.231   4.497  0.00  0.00    +0.000 C 
ATOM     11  C   UNL     1     -53.119  91.847   7.230  0.00  0.00    +0.000 C 
ATOM     12  C   UNL     1     -53.720  95.086   3.790  0.00  0.00    +0.000 C 
ATOM     13  C   UNL     1     -54.199  89.587   7.246  0.00  0.00    +0.000 C 
ATOM     14  C   UNL     1     -54.226  88.627   4.967  0.00  0.00    +0.000 C 
ATOM     15  C   UNL     1     -53.607  90.572   7.850  0.00  0.00    +0.000 C 
ATOM     16  C   UNL     1     -56.160  90.109   5.649  0.00  0.00    +0.000 C 
ATOM     17  C   UNL     1     -53.723  88.250   7.520  0.00  0.00    +0.000 C 
ATOM     18  C   UNL     1     -53.664  87.272   5.428  0.00  0.00    +0.000 C 
ATOM     19  C   UNL     1     -53.393  87.037   6.818  0.00  0.00    +0.000 C 
ENDROOT
BRANCH   5  20
ATOM     20  C   UNL     1     -51.023  94.833   2.098  0.00  0.00    +0.000 C 
ATOM     21  C   UNL     1     -51.242  94.101   0.801  0.00  0.00    +0.000 C 
BRANCH  20  22
ATOM     22  C   UNL     1     -50.237  96.016   2.013  0.00  0.00    +0.000 C 
ATOM     23  C   UNL     1     -49.390  97.295   1.919  0.00  0.00    +0.000 C 
BRANCH  23  24
ATOM     24  C   UNL     1     -48.604  98.482   1.815  0.00  0.00    +0.000 C 
ATOM     25  C   UNL     1     -48.140  98.963   0.531  0.00  0.00    +0.000 C 
ATOM     26  C   UNL     1     -47.271 100.191   0.367  0.00  0.00    +0.000 C 
ATOM     27  C   UNL     1     -48.487  98.277  -0.774  0.00  0.00    +0.000 C 
BRANCH  24  28
ATOM     28  C   UNL     1     -48.271  99.206   2.991  0.00  0.00    +0.000 C 
ATOM     29  C   UNL     1     -47.852 100.007   4.229  0.00  0.00    +0.000 C 
ENDBRANCH  24  28
ENDBRANCH  23  24
ENDBRANCH  20  22
ENDBRANCH   5  20
BRANCH  19  30
ATOM     30  O   UNL     1     -53.718  85.821   7.411  0.00  0.00    +0.000 OA
BRANCH  30  32
ATOM     31  O   UNL     1     -53.258  85.560   9.676  0.00  0.00    +0.000 OA
ATOM     32  C   UNL     1     -52.932  85.566   8.498  0.00  0.00    +0.000 C 
BRANCH  32  33
ATOM     33  C   UNL     1     -51.581  85.246   8.110  0.00  0.00    +0.000 C 
ATOM     34  C   UNL     1     -50.448  84.987   7.804  0.00  0.00    +0.000 C 
BRANCH  34  35
ATOM     35  C   UNL     1     -49.098  84.688   7.456  0.00  0.00    +0.000 A 
ATOM     36  C   UNL     1     -48.822  83.602   6.627  0.00  0.00    +0.000 A 
ATOM     37  C   UNL     1     -48.059  85.474   7.949  0.00  0.00    +0.000 A 
ATOM     38  C   UNL     1     -47.505  83.289   6.279  0.00  0.00    +0.000 A 
ATOM     39  C   UNL     1     -46.742  85.173   7.611  0.00  0.00    +0.000 A 
ATOM     40  C   UNL     1     -46.472  84.085   6.782  0.00  0.00    +0.000 A 
BRANCH  38  41
ATOM     41  O   UNL     1     -47.146  82.237   5.471  0.00  0.00    +0.000 OA
ATOM     42  C   UNL     1     -47.026  80.994   6.113  0.00  0.00    +0.000 C 
ENDBRANCH  38  41
BRANCH  40  43
ATOM     43  O   UNL     1     -45.176  83.793   6.455  0.00  0.00    +0.000 OA
ATOM     44  H   UNL     1     -44.905  84.365   5.712  0.00  0.00    +0.000 HD
ENDBRANCH  40  43
ENDBRANCH  34  35
ENDBRANCH  32  33
ENDBRANCH  30  32
ENDBRANCH  19  30
TORSDOF 10
ENDMDL
