MODEL 1
REMARK VINA RESULT:      -3.7      0.000      0.000
REMARK  Name = 92041_2Ethoxy5fluorouracil.pdbqt.pdb
REMARK  2 active torsions:
REMARK  status: ('A' for Active; 'I' for Inactive)
REMARK    1  A    between atoms: C_5  and  O_10
REMARK    2  A    between atoms: O_10  and  C_11
REMARK                            x       y       z     vdW  Elec       q    Type
REMARK                         _______ _______ _______ _____ _____    ______ ____
ROOT
ATOM      1  F   UNL     1     -38.129 100.758  12.078  0.00  0.00    +0.000 F 
ATOM      2  O   UNL     1     -35.308 101.169  12.090  0.00  0.00    +0.000 OA
ATOM      3  N   UNL     1     -35.202  99.950  14.036  0.00  0.00    +0.000 N 
ATOM      4  N   UNL     1     -37.074  98.862  14.986  0.00  0.00    +0.000 NA
ATOM      5  C   UNL     1     -35.818  99.202  15.035  0.00  0.00    +0.000 C 
ATOM      6  C   UNL     1     -35.858 100.440  12.904  0.00  0.00    +0.000 C 
ATOM      7  C   UNL     1     -37.287 100.004  12.804  0.00  0.00    +0.000 C 
ATOM      8  C   UNL     1     -37.620  99.336  13.858  0.00  0.00    +0.000 C 
ATOM      9  H   UNL     1     -34.235 100.219  14.143  0.00  0.00    +0.000 HD
ENDROOT
BRANCH   5  10
ATOM     10  O   UNL     1     -34.970  98.880  16.040  0.00  0.00    +0.000 OA
BRANCH  10  11
ATOM     11  C   UNL     1     -35.439  98.036  16.954  0.00  0.00    +0.000 C 
ATOM     12  C   UNL     1     -36.031  97.056  17.971  0.00  0.00    +0.000 C 
ENDBRANCH  10  11
ENDBRANCH   5  10
TORSDOF 2
ENDMDL
MODEL 2
REMARK VINA RESULT:      -3.7     24.417     25.388
REMARK  Name = 92041_2Ethoxy5fluorouracil.pdbqt.pdb
REMARK  2 active torsions:
REMARK  status: ('A' for Active; 'I' for Inactive)
REMARK    1  A    between atoms: C_5  and  O_10
REMARK    2  A    between atoms: O_10  and  C_11
REMARK                            x       y       z     vdW  Elec       q    Type
REMARK                         _______ _______ _______ _____ _____    ______ ____
ROOT
ATOM      1  F   UNL     1     -30.393  88.428  -9.497  0.00  0.00    +0.000 F 
ATOM      2  O   UNL     1     -28.782  86.850  -7.752  0.00  0.00    +0.000 OA
ATOM      3  N   UNL     1     -27.702  88.776  -7.111  0.00  0.00    +0.000 N 
ATOM      4  N   UNL     1     -28.349  90.929  -7.845  0.00  0.00    +0.000 NA
ATOM      5  C   UNL     1     -27.537  90.156  -7.181  0.00  0.00    +0.000 C 
ATOM      6  C   UNL     1     -28.719  88.073  -7.762  0.00  0.00    +0.000 C 
ATOM      7  C   UNL     1     -29.695  88.954  -8.478  0.00  0.00    +0.000 C 
ATOM      8  C   UNL     1     -29.312  90.186  -8.406  0.00  0.00    +0.000 C 
ATOM      9  H   UNL     1     -27.022  88.220  -6.615  0.00  0.00    +0.000 HD
ENDROOT
BRANCH   5  10
ATOM     10  O   UNL     1     -26.455  90.585  -6.490  0.00  0.00    +0.000 OA
BRANCH  10  11
ATOM     11  C   UNL     1     -26.272  90.040  -5.292  0.00  0.00    +0.000 C 
ATOM     12  C   UNL     1     -26.123  89.410  -3.903  0.00  0.00    +0.000 C 
ENDBRANCH  10  11
ENDBRANCH   5  10
TORSDOF 2
ENDMDL
MODEL 3
REMARK VINA RESULT:      -3.7      2.899      3.827
REMARK  Name = 92041_2Ethoxy5fluorouracil.pdbqt.pdb
REMARK  2 active torsions:
REMARK  status: ('A' for Active; 'I' for Inactive)
REMARK    1  A    between atoms: C_5  and  O_10
REMARK    2  A    between atoms: O_10  and  C_11
REMARK                            x       y       z     vdW  Elec       q    Type
REMARK                         _______ _______ _______ _____ _____    ______ ____
ROOT
ATOM      1  F   UNL     1     -32.382 101.815  13.934  0.00  0.00    +0.000 F 
ATOM      2  O   UNL     1     -33.205  99.545  15.452  0.00  0.00    +0.000 OA
ATOM      3  N   UNL     1     -35.167  99.535  14.255  0.00  0.00    +0.000 N 
ATOM      4  N   UNL     1     -35.586 100.995  12.442  0.00  0.00    +0.000 NA
ATOM      5  C   UNL     1     -35.985 100.060  13.258  0.00  0.00    +0.000 C 
ATOM      6  C   UNL     1     -33.863  99.966  14.510  0.00  0.00    +0.000 C 
ATOM      7  C   UNL     1     -33.371 100.995  13.540  0.00  0.00    +0.000 C 
ATOM      8  C   UNL     1     -34.320 101.325  12.727  0.00  0.00    +0.000 C 
ATOM      9  H   UNL     1     -35.539  98.840  14.886  0.00  0.00    +0.000 HD
ENDROOT
BRANCH   5  10
ATOM     10  O   UNL     1     -37.214  99.494  13.243  0.00  0.00    +0.000 OA
BRANCH  10  11
ATOM     11  C   UNL     1     -37.907  99.569  14.375  0.00  0.00    +0.000 C 
ATOM     12  C   UNL     1     -38.724  99.713  15.663  0.00  0.00    +0.000 C 
ENDBRANCH  10  11
ENDBRANCH   5  10
TORSDOF 2
ENDMDL
MODEL 4
REMARK VINA RESULT:      -3.5      2.747      3.259
REMARK  Name = 92041_2Ethoxy5fluorouracil.pdbqt.pdb
REMARK  2 active torsions:
REMARK  status: ('A' for Active; 'I' for Inactive)
REMARK    1  A    between atoms: C_5  and  O_10
REMARK    2  A    between atoms: O_10  and  C_11
REMARK                            x       y       z     vdW  Elec       q    Type
REMARK                         _______ _______ _______ _____ _____    ______ ____
ROOT
ATOM      1  F   UNL     1     -32.234 101.224  13.290  0.00  0.00    +0.000 F 
ATOM      2  O   UNL     1     -34.742 101.859  12.090  0.00  0.00    +0.000 OA
ATOM      3  N   UNL     1     -35.723 100.301  13.464  0.00  0.00    +0.000 N 
ATOM      4  N   UNL     1     -34.545  99.142  15.157  0.00  0.00    +0.000 NA
ATOM      5  C   UNL     1     -35.638  99.351  14.479  0.00  0.00    +0.000 C 
ATOM      6  C   UNL     1     -34.656 101.098  13.044  0.00  0.00    +0.000 C 
ATOM      7  C   UNL     1     -33.412 100.912  13.856  0.00  0.00    +0.000 C 
ATOM      8  C   UNL     1     -33.585  99.968  14.720  0.00  0.00    +0.000 C 
ATOM      9  H   UNL     1     -36.583 100.395  12.945  0.00  0.00    +0.000 HD
ENDROOT
BRANCH   5  10
ATOM     10  O   UNL     1     -36.803  98.688  14.669  0.00  0.00    +0.000 OA
BRANCH  10  11
ATOM     11  C   UNL     1     -37.756  99.352  15.316  0.00  0.00    +0.000 C 
ATOM     12  C   UNL     1     -38.875 100.063  16.083  0.00  0.00    +0.000 C 
ENDBRANCH  10  11
ENDBRANCH   5  10
TORSDOF 2
ENDMDL
MODEL 5
REMARK VINA RESULT:      -3.4      2.460      2.861
REMARK  Name = 92041_2Ethoxy5fluorouracil.pdbqt.pdb
REMARK  2 active torsions:
REMARK  status: ('A' for Active; 'I' for Inactive)
REMARK    1  A    between atoms: C_5  and  O_10
REMARK    2  A    between atoms: O_10  and  C_11
REMARK                            x       y       z     vdW  Elec       q    Type
REMARK                         _______ _______ _______ _____ _____    ______ ____
ROOT
ATOM      1  F   UNL     1     -40.009 101.784  14.459  0.00  0.00    +0.000 F 
ATOM      2  O   UNL     1     -38.538 101.597  12.023  0.00  0.00    +0.000 OA
ATOM      3  N   UNL     1     -36.993 100.305  13.129  0.00  0.00    +0.000 N 
ATOM      4  N   UNL     1     -37.265  99.593  15.368  0.00  0.00    +0.000 NA
ATOM      5  C   UNL     1     -36.549  99.661  14.281  0.00  0.00    +0.000 C 
ATOM      6  C   UNL     1     -38.219 100.966  13.022  0.00  0.00    +0.000 C 
ATOM      7  C   UNL     1     -39.077 100.842  14.243  0.00  0.00    +0.000 C 
ATOM      8  C   UNL     1     -38.434 100.216  15.172  0.00  0.00    +0.000 C 
ATOM      9  H   UNL     1     -36.383 100.362  12.328  0.00  0.00    +0.000 HD
ENDROOT
BRANCH   5  10
ATOM     10  O   UNL     1     -35.313  99.129  14.136  0.00  0.00    +0.000 OA
BRANCH  10  11
ATOM     11  C   UNL     1     -34.294  99.925  14.444  0.00  0.00    +0.000 C 
ATOM     12  C   UNL     1     -33.080 100.799  14.775  0.00  0.00    +0.000 C 
ENDBRANCH  10  11
ENDBRANCH   5  10
TORSDOF 2
ENDMDL
MODEL 6
REMARK VINA RESULT:      -3.4     11.074     12.407
REMARK  Name = 92041_2Ethoxy5fluorouracil.pdbqt.pdb
REMARK  2 active torsions:
REMARK  status: ('A' for Active; 'I' for Inactive)
REMARK    1  A    between atoms: C_5  and  O_10
REMARK    2  A    between atoms: O_10  and  C_11
REMARK                            x       y       z     vdW  Elec       q    Type
REMARK                         _______ _______ _______ _____ _____    ______ ____
ROOT
ATOM      1  F   UNL     1     -31.369  92.086  19.999  0.00  0.00    +0.000 F 
ATOM      2  O   UNL     1     -29.666  89.876  20.588  0.00  0.00    +0.000 OA
ATOM      3  N   UNL     1     -29.784  89.276  18.373  0.00  0.00    +0.000 N 
ATOM      4  N   UNL     1     -30.885  90.579  16.735  0.00  0.00    +0.000 NA
ATOM      5  C   UNL     1     -30.236  89.502  17.076  0.00  0.00    +0.000 C 
ATOM      6  C   UNL     1     -30.000  90.148  19.443  0.00  0.00    +0.000 C 
ATOM      7  C   UNL     1     -30.691  91.418  19.052  0.00  0.00    +0.000 C 
ATOM      8  C   UNL     1     -31.019  91.376  17.803  0.00  0.00    +0.000 C 
ATOM      9  H   UNL     1     -29.320  88.407  18.591  0.00  0.00    +0.000 HD
ENDROOT
BRANCH   5  10
ATOM     10  O   UNL     1     -29.926  88.489  16.234  0.00  0.00    +0.000 OA
BRANCH  10  11
ATOM     11  C   UNL     1     -28.863  88.677  15.458  0.00  0.00    +0.000 C 
ATOM     12  C   UNL     1     -27.609  88.922  14.612  0.00  0.00    +0.000 C 
ENDBRANCH  10  11
ENDBRANCH   5  10
TORSDOF 2
ENDMDL
MODEL 7
REMARK VINA RESULT:      -3.4      2.748      3.876
REMARK  Name = 92041_2Ethoxy5fluorouracil.pdbqt.pdb
REMARK  2 active torsions:
REMARK  status: ('A' for Active; 'I' for Inactive)
REMARK    1  A    between atoms: C_5  and  O_10
REMARK    2  A    between atoms: O_10  and  C_11
REMARK                            x       y       z     vdW  Elec       q    Type
REMARK                         _______ _______ _______ _____ _____    ______ ____
ROOT
ATOM      1  F   UNL     1     -39.201  99.382  15.661  0.00  0.00    +0.000 F 
ATOM      2  O   UNL     1     -39.134 102.118  14.859  0.00  0.00    +0.000 OA
ATOM      3  N   UNL     1     -37.277 101.635  13.594  0.00  0.00    +0.000 N 
ATOM      4  N   UNL     1     -36.422  99.446  13.330  0.00  0.00    +0.000 NA
ATOM      5  C   UNL     1     -36.337 100.728  13.112  0.00  0.00    +0.000 C 
ATOM      6  C   UNL     1     -38.378 101.284  14.378  0.00  0.00    +0.000 C 
ATOM      7  C   UNL     1     -38.521  99.808  14.584  0.00  0.00    +0.000 C 
ATOM      8  C   UNL     1     -37.519  99.189  14.054  0.00  0.00    +0.000 C 
ATOM      9  H   UNL     1     -37.142 102.622  13.429  0.00  0.00    +0.000 HD
ENDROOT
BRANCH   5  10
ATOM     10  O   UNL     1     -35.349 101.328  12.408  0.00  0.00    +0.000 OA
BRANCH  10  11
ATOM     11  C   UNL     1     -34.154 101.360  12.988  0.00  0.00    +0.000 C 
ATOM     12  C   UNL     1     -32.796 101.354  13.698  0.00  0.00    +0.000 C 
ENDBRANCH  10  11
ENDBRANCH   5  10
TORSDOF 2
ENDMDL
MODEL 8
REMARK VINA RESULT:      -3.4      6.325      7.047
REMARK  Name = 92041_2Ethoxy5fluorouracil.pdbqt.pdb
REMARK  2 active torsions:
REMARK  status: ('A' for Active; 'I' for Inactive)
REMARK    1  A    between atoms: C_5  and  O_10
REMARK    2  A    between atoms: O_10  and  C_11
REMARK                            x       y       z     vdW  Elec       q    Type
REMARK                         _______ _______ _______ _____ _____    ______ ____
ROOT
ATOM      1  F   UNL     1     -30.017 102.035  14.286  0.00  0.00    +0.000 F 
ATOM      2  O   UNL     1     -31.542  99.676  14.777  0.00  0.00    +0.000 OA
ATOM      3  N   UNL     1     -30.182  99.249  16.580  0.00  0.00    +0.000 N 
ATOM      4  N   UNL     1     -28.501 100.740  17.316  0.00  0.00    +0.000 NA
ATOM      5  C   UNL     1     -29.122  99.598  17.412  0.00  0.00    +0.000 C 
ATOM      6  C   UNL     1     -30.667 100.053  15.546  0.00  0.00    +0.000 C 
ATOM      7  C   UNL     1     -30.003 101.392  15.465  0.00  0.00    +0.000 C 
ATOM      8  C   UNL     1     -29.047 101.464  16.331  0.00  0.00    +0.000 C 
ATOM      9  H   UNL     1     -30.603  98.336  16.671  0.00  0.00    +0.000 HD
ENDROOT
BRANCH   5  10
ATOM     10  O   UNL     1     -28.825  98.630  18.310  0.00  0.00    +0.000 OA
BRANCH  10  11
ATOM     11  C   UNL     1     -29.859  97.960  18.811  0.00  0.00    +0.000 C 
ATOM     12  C   UNL     1     -31.016  97.135  19.381  0.00  0.00    +0.000 C 
ENDBRANCH  10  11
ENDBRANCH   5  10
TORSDOF 2
ENDMDL
MODEL 9
REMARK VINA RESULT:      -3.3     21.495     22.089
REMARK  Name = 92041_2Ethoxy5fluorouracil.pdbqt.pdb
REMARK  2 active torsions:
REMARK  status: ('A' for Active; 'I' for Inactive)
REMARK    1  A    between atoms: C_5  and  O_10
REMARK    2  A    between atoms: O_10  and  C_11
REMARK                            x       y       z     vdW  Elec       q    Type
REMARK                         _______ _______ _______ _____ _____    ______ ____
ROOT
ATOM      1  F   UNL     1     -22.789  88.487   6.082  0.00  0.00    +0.000 F 
ATOM      2  O   UNL     1     -23.895  85.865   5.906  0.00  0.00    +0.000 OA
ATOM      3  N   UNL     1     -23.481  85.910   3.646  0.00  0.00    +0.000 N 
ATOM      4  N   UNL     1     -22.336  87.681   2.575  0.00  0.00    +0.000 NA
ATOM      5  C   UNL     1     -22.985  86.552   2.515  0.00  0.00    +0.000 C 
ATOM      6  C   UNL     1     -23.369  86.411   4.945  0.00  0.00    +0.000 C 
ATOM      7  C   UNL     1     -22.571  87.675   5.035  0.00  0.00    +0.000 C 
ATOM      8  C   UNL     1     -22.240  88.073   3.851  0.00  0.00    +0.000 C 
ATOM      9  H   UNL     1     -24.011  85.058   3.540  0.00  0.00    +0.000 HD
ENDROOT
BRANCH   5  10
ATOM     10  O   UNL     1     -23.255  85.876   1.374  0.00  0.00    +0.000 OA
BRANCH  10  11
ATOM     11  C   UNL     1     -22.223  85.660   0.564  0.00  0.00    +0.000 C 
ATOM     12  C   UNL     1     -20.997  85.439  -0.328  0.00  0.00    +0.000 C 
ENDBRANCH  10  11
ENDBRANCH   5  10
TORSDOF 2
ENDMDL
