MODEL 1
REMARK VINA RESULT:      -5.1      0.000      0.000
REMARK  Name = 95716_6Bromoisatin.pdbqt.pdb
REMARK  0 active torsions:
REMARK  status: ('A' for Active; 'I' for Inactive)
REMARK                            x       y       z     vdW  Elec       q    Type
REMARK                         _______ _______ _______ _____ _____    ______ ____
ROOT
ATOM      1 BR   UNL     1     -30.838  99.542  15.633  0.00  0.00    +0.000 Br
ATOM      2  O   UNL     1     -36.771 101.322  12.413  0.00  0.00    +0.000 OA
ATOM      3  O   UNL     1     -38.167  99.071  13.847  0.00  0.00    +0.000 OA
ATOM      4  N   UNL     1     -36.022  98.786  14.718  0.00  0.00    +0.000 N 
ATOM      5  C   UNL     1     -34.799  99.429  14.552  0.00  0.00    +0.000 A 
ATOM      6  C   UNL     1     -34.897 100.489  13.653  0.00  0.00    +0.000 A 
ATOM      7  C   UNL     1     -36.286 100.542  13.197  0.00  0.00    +0.000 C 
ATOM      8  C   UNL     1     -33.605  99.114  15.165  0.00  0.00    +0.000 A 
ATOM      9  C   UNL     1     -33.823 101.286  13.316  0.00  0.00    +0.000 A 
ATOM     10  C   UNL     1     -37.001  99.377  13.941  0.00  0.00    +0.000 C 
ATOM     11  C   UNL     1     -32.506  99.911  14.836  0.00  0.00    +0.000 A 
ATOM     12  C   UNL     1     -32.606 100.979  13.929  0.00  0.00    +0.000 A 
ATOM     13  H   UNL     1     -36.203  97.992  15.316  0.00  0.00    +0.000 HD
ENDROOT
TORSDOF 0
ENDMDL
MODEL 2
REMARK VINA RESULT:      -4.4      2.343      2.866
REMARK  Name = 95716_6Bromoisatin.pdbqt.pdb
REMARK  0 active torsions:
REMARK  status: ('A' for Active; 'I' for Inactive)
REMARK                            x       y       z     vdW  Elec       q    Type
REMARK                         _______ _______ _______ _____ _____    ______ ____
ROOT
ATOM      1 BR   UNL     1     -35.059  98.094  18.645  0.00  0.00    +0.000 Br
ATOM      2  O   UNL     1     -36.237 100.283  12.121  0.00  0.00    +0.000 OA
ATOM      3  O   UNL     1     -39.194 100.236  12.692  0.00  0.00    +0.000 OA
ATOM      4  N   UNL     1     -38.409  99.520  14.768  0.00  0.00    +0.000 N 
ATOM      5  C   UNL     1     -37.152  99.281  15.316  0.00  0.00    +0.000 A 
ATOM      6  C   UNL     1     -36.137  99.534  14.396  0.00  0.00    +0.000 A 
ATOM      7  C   UNL     1     -36.778  99.970  13.155  0.00  0.00    +0.000 C 
ATOM      8  C   UNL     1     -36.872  98.850  16.595  0.00  0.00    +0.000 A 
ATOM      9  C   UNL     1     -34.800  99.373  14.694  0.00  0.00    +0.000 A 
ATOM     10  C   UNL     1     -38.304  99.944  13.456  0.00  0.00    +0.000 C 
ATOM     11  C   UNL     1     -35.523  98.681  16.914  0.00  0.00    +0.000 A 
ATOM     12  C   UNL     1     -34.500  98.937  15.985  0.00  0.00    +0.000 A 
ATOM     13  H   UNL     1     -39.296  99.408  15.238  0.00  0.00    +0.000 HD
ENDROOT
TORSDOF 0
ENDMDL
MODEL 3
REMARK VINA RESULT:      -4.3     21.380     22.432
REMARK  Name = 95716_6Bromoisatin.pdbqt.pdb
REMARK  0 active torsions:
REMARK  status: ('A' for Active; 'I' for Inactive)
REMARK                            x       y       z     vdW  Elec       q    Type
REMARK                         _______ _______ _______ _____ _____    ______ ____
ROOT
ATOM      1 BR   UNL     1     -47.215  84.662   7.526  0.00  0.00    +0.000 Br
ATOM      2  O   UNL     1     -43.261  79.237   5.609  0.00  0.00    +0.000 OA
ATOM      3  O   UNL     1     -41.477  81.136   4.097  0.00  0.00    +0.000 OA
ATOM      4  N   UNL     1     -43.021  82.671   4.932  0.00  0.00    +0.000 N 
ATOM      5  C   UNL     1     -44.159  82.588   5.729  0.00  0.00    +0.000 A 
ATOM      6  C   UNL     1     -44.423  81.274   6.107  0.00  0.00    +0.000 A 
ATOM      7  C   UNL     1     -43.382  80.436   5.514  0.00  0.00    +0.000 C 
ATOM      8  C   UNL     1     -44.968  83.629   6.132  0.00  0.00    +0.000 A 
ATOM      9  C   UNL     1     -45.497  80.925   6.899  0.00  0.00    +0.000 A 
ATOM     10  C   UNL     1     -42.463  81.422   4.734  0.00  0.00    +0.000 C 
ATOM     11  C   UNL     1     -46.061  83.294   6.935  0.00  0.00    +0.000 A 
ATOM     12  C   UNL     1     -46.326  81.967   7.315  0.00  0.00    +0.000 A 
ATOM     13  H   UNL     1     -42.629  83.514   4.537  0.00  0.00    +0.000 HD
ENDROOT
TORSDOF 0
ENDMDL
MODEL 4
REMARK VINA RESULT:      -4.0     24.759     25.049
REMARK  Name = 95716_6Bromoisatin.pdbqt.pdb
REMARK  0 active torsions:
REMARK  status: ('A' for Active; 'I' for Inactive)
REMARK                            x       y       z     vdW  Elec       q    Type
REMARK                         _______ _______ _______ _____ _____    ______ ____
ROOT
ATOM      1 BR   UNL     1     -23.603  84.661  -5.975  0.00  0.00    +0.000 Br
ATOM      2  O   UNL     1     -27.316  90.471  -7.071  0.00  0.00    +0.000 OA
ATOM      3  O   UNL     1     -26.232  91.591  -4.493  0.00  0.00    +0.000 OA
ATOM      4  N   UNL     1     -25.153  89.523  -4.477  0.00  0.00    +0.000 N 
ATOM      5  C   UNL     1     -25.128  88.419  -5.324  0.00  0.00    +0.000 A 
ATOM      6  C   UNL     1     -25.944  88.610  -6.437  0.00  0.00    +0.000 A 
ATOM      7  C   UNL     1     -26.547  89.937  -6.307  0.00  0.00    +0.000 C 
ATOM      8  C   UNL     1     -24.412  87.254  -5.149  0.00  0.00    +0.000 A 
ATOM      9  C   UNL     1     -26.093  87.662  -7.427  0.00  0.00    +0.000 A 
ATOM     10  C   UNL     1     -25.984  90.510  -4.975  0.00  0.00    +0.000 C 
ATOM     11  C   UNL     1     -24.550  86.282  -6.143  0.00  0.00    +0.000 A 
ATOM     12  C   UNL     1     -25.375  86.477  -7.265  0.00  0.00    +0.000 A 
ATOM     13  H   UNL     1     -24.644  89.622  -3.610  0.00  0.00    +0.000 HD
ENDROOT
TORSDOF 0
ENDMDL
MODEL 5
REMARK VINA RESULT:      -4.0     14.612     15.687
REMARK  Name = 95716_6Bromoisatin.pdbqt.pdb
REMARK  0 active torsions:
REMARK  status: ('A' for Active; 'I' for Inactive)
REMARK                            x       y       z     vdW  Elec       q    Type
REMARK                         _______ _______ _______ _____ _____    ______ ____
ROOT
ATOM      1 BR   UNL     1     -18.578  96.731   4.956  0.00  0.00    +0.000 Br
ATOM      2  O   UNL     1     -23.430 101.090   7.445  0.00  0.00    +0.000 OA
ATOM      3  O   UNL     1     -24.521 101.391   4.653  0.00  0.00    +0.000 OA
ATOM      4  N   UNL     1     -22.773  99.912   4.207  0.00  0.00    +0.000 N 
ATOM      5  C   UNL     1     -21.792  99.287   4.971  0.00  0.00    +0.000 A 
ATOM      6  C   UNL     1     -21.892  99.639   6.316  0.00  0.00    +0.000 A 
ATOM      7  C   UNL     1     -23.021 100.561   6.439  0.00  0.00    +0.000 C 
ATOM      8  C   UNL     1     -20.817  98.422   4.525  0.00  0.00    +0.000 A 
ATOM      9  C   UNL     1     -21.035  99.154   7.281  0.00  0.00    +0.000 A 
ATOM     10  C   UNL     1     -23.580 100.712   4.994  0.00  0.00    +0.000 C 
ATOM     11  C   UNL     1     -19.939  97.921   5.489  0.00  0.00    +0.000 A 
ATOM     12  C   UNL     1     -20.041  98.276   6.845  0.00  0.00    +0.000 A 
ATOM     13  H   UNL     1     -22.905  99.814   3.210  0.00  0.00    +0.000 HD
ENDROOT
TORSDOF 0
ENDMDL
MODEL 6
REMARK VINA RESULT:      -3.9     22.195     22.696
REMARK  Name = 95716_6Bromoisatin.pdbqt.pdb
REMARK  0 active torsions:
REMARK  status: ('A' for Active; 'I' for Inactive)
REMARK                            x       y       z     vdW  Elec       q    Type
REMARK                         _______ _______ _______ _____ _____    ______ ____
ROOT
ATOM      1 BR   UNL     1     -35.414  86.969  -4.424  0.00  0.00    +0.000 Br
ATOM      2  O   UNL     1     -38.117  92.985  -6.714  0.00  0.00    +0.000 OA
ATOM      3  O   UNL     1     -40.546  91.476  -7.661  0.00  0.00    +0.000 OA
ATOM      4  N   UNL     1     -39.328  89.694  -6.778  0.00  0.00    +0.000 N 
ATOM      5  C   UNL     1     -38.092  89.560  -6.152  0.00  0.00    +0.000 A 
ATOM      6  C   UNL     1     -37.445  90.788  -6.032  0.00  0.00    +0.000 A 
ATOM      7  C   UNL     1     -38.322  91.798  -6.623  0.00  0.00    +0.000 C 
ATOM      8  C   UNL     1     -37.520  88.397  -5.684  0.00  0.00    +0.000 A 
ATOM      9  C   UNL     1     -36.204  90.925  -5.446  0.00  0.00    +0.000 A 
ATOM     10  C   UNL     1     -39.574  91.013  -7.111  0.00  0.00    +0.000 C 
ATOM     11  C   UNL     1     -36.263  88.516  -5.088  0.00  0.00    +0.000 A 
ATOM     12  C   UNL     1     -35.611  89.756  -4.967  0.00  0.00    +0.000 A 
ATOM     13  H   UNL     1     -39.980  88.948  -6.978  0.00  0.00    +0.000 HD
ENDROOT
TORSDOF 0
ENDMDL
MODEL 7
REMARK VINA RESULT:      -3.9      5.994      7.096
REMARK  Name = 95716_6Bromoisatin.pdbqt.pdb
REMARK  0 active torsions:
REMARK  status: ('A' for Active; 'I' for Inactive)
REMARK                            x       y       z     vdW  Elec       q    Type
REMARK                         _______ _______ _______ _____ _____    ______ ____
ROOT
ATOM      1 BR   UNL     1     -29.274  99.130  22.095  0.00  0.00    +0.000 Br
ATOM      2  O   UNL     1     -30.914  97.554  15.494  0.00  0.00    +0.000 OA
ATOM      3  O   UNL     1     -29.459 100.033  14.593  0.00  0.00    +0.000 OA
ATOM      4  N   UNL     1     -29.113 100.220  16.892  0.00  0.00    +0.000 N 
ATOM      5  C   UNL     1     -29.472  99.466  18.006  0.00  0.00    +0.000 A 
ATOM      6  C   UNL     1     -30.209  98.341  17.645  0.00  0.00    +0.000 A 
ATOM      7  C   UNL     1     -30.342  98.360  16.189  0.00  0.00    +0.000 C 
ATOM      8  C   UNL     1     -29.171  99.738  19.323  0.00  0.00    +0.000 A 
ATOM      9  C   UNL     1     -30.684  97.432  18.567  0.00  0.00    +0.000 A 
ATOM     10  C   UNL     1     -29.589  99.642  15.730  0.00  0.00    +0.000 C 
ATOM     11  C   UNL     1     -29.644  98.827  20.271  0.00  0.00    +0.000 A 
ATOM     12  C   UNL     1     -30.388  97.692  19.906  0.00  0.00    +0.000 A 
ATOM     13  H   UNL     1     -28.578 101.077  16.898  0.00  0.00    +0.000 HD
ENDROOT
TORSDOF 0
ENDMDL
MODEL 8
REMARK VINA RESULT:      -3.7      4.199      5.145
REMARK  Name = 95716_6Bromoisatin.pdbqt.pdb
REMARK  0 active torsions:
REMARK  status: ('A' for Active; 'I' for Inactive)
REMARK                            x       y       z     vdW  Elec       q    Type
REMARK                         _______ _______ _______ _____ _____    ______ ____
ROOT
ATOM      1 BR   UNL     1     -39.806  99.697  19.289  0.00  0.00    +0.000 Br
ATOM      2  O   UNL     1     -36.440  99.491  13.175  0.00  0.00    +0.000 OA
ATOM      3  O   UNL     1     -38.541 101.310  12.013  0.00  0.00    +0.000 OA
ATOM      4  N   UNL     1     -39.370 101.134  14.186  0.00  0.00    +0.000 N 
ATOM      5  C   UNL     1     -38.969 100.470  15.342  0.00  0.00    +0.000 A 
ATOM      6  C   UNL     1     -37.797  99.746  15.134  0.00  0.00    +0.000 A 
ATOM      7  C   UNL     1     -37.403  99.951  13.741  0.00  0.00    +0.000 C 
ATOM      8  C   UNL     1     -39.599 100.482  16.568  0.00  0.00    +0.000 A 
ATOM      9  C   UNL     1     -37.194  99.000  16.125  0.00  0.00    +0.000 A 
ATOM     10  C   UNL     1     -38.491 100.892  13.147  0.00  0.00    +0.000 C 
ATOM     11  C   UNL     1     -39.002  99.732  17.583  0.00  0.00    +0.000 A 
ATOM     12  C   UNL     1     -37.820  99.001  17.372  0.00  0.00    +0.000 A 
ATOM     13  H   UNL     1     -40.186 101.721  14.088  0.00  0.00    +0.000 HD
ENDROOT
TORSDOF 0
ENDMDL
MODEL 9
REMARK VINA RESULT:      -3.6     29.752     30.303
REMARK  Name = 95716_6Bromoisatin.pdbqt.pdb
REMARK  0 active torsions:
REMARK  status: ('A' for Active; 'I' for Inactive)
REMARK                            x       y       z     vdW  Elec       q    Type
REMARK                         _______ _______ _______ _____ _____    ______ ____
ROOT
ATOM      1 BR   UNL     1     -22.324  95.461 -15.825  0.00  0.00    +0.000 Br
ATOM      2  O   UNL     1     -28.761  97.610 -14.187  0.00  0.00    +0.000 OA
ATOM      3  O   UNL     1     -29.540  94.742 -13.697  0.00  0.00    +0.000 OA
ATOM      4  N   UNL     1     -27.312  94.418 -14.303  0.00  0.00    +0.000 N 
ATOM      5  C   UNL     1     -26.263  95.252 -14.680  0.00  0.00    +0.000 A 
ATOM      6  C   UNL     1     -26.653  96.589 -14.694  0.00  0.00    +0.000 A 
ATOM      7  C   UNL     1     -28.060  96.633 -14.296  0.00  0.00    +0.000 C 
ATOM      8  C   UNL     1     -24.980  94.873 -15.011  0.00  0.00    +0.000 A 
ATOM      9  C   UNL     1     -25.796  97.614 -15.034  0.00  0.00    +0.000 A 
ATOM     10  C   UNL     1     -28.456  95.149 -14.044  0.00  0.00    +0.000 C 
ATOM     11  C   UNL     1     -24.097  95.899 -15.359  0.00  0.00    +0.000 A 
ATOM     12  C   UNL     1     -24.492  97.248 -15.372  0.00  0.00    +0.000 A 
ATOM     13  H   UNL     1     -27.274  93.412 -14.220  0.00  0.00    +0.000 HD
ENDROOT
TORSDOF 0
ENDMDL
