MODEL 1
REMARK VINA RESULT:      -6.0      0.000      0.000
REMARK  Name = 969516_Curcumin.pdbqt.pdb
REMARK  8 active torsions:
REMARK  status: ('A' for Active; 'I' for Inactive)
REMARK    1  A    between atoms: C_3  and  C_5
REMARK    2  A    between atoms: C_4  and  C_6
REMARK    3  A    between atoms: C_8  and  O_12
REMARK    4  A    between atoms: C_10  and  O_14
REMARK    5  A    between atoms: C_17  and  C_19
REMARK    6  A    between atoms: C_18  and  C_20
REMARK    7  A    between atoms: C_22  and  O_26
REMARK    8  A    between atoms: C_24  and  O_28
REMARK                            x       y       z     vdW  Elec       q    Type
REMARK                         _______ _______ _______ _____ _____    ______ ____
ROOT
ATOM      1  C   UNL     1     -30.617  99.302  18.318  0.00  0.00    +0.000 C 
ATOM      2  O   UNL     1     -29.674 101.383  18.504  0.00  0.00    +0.000 OA
ATOM      3  C   UNL     1     -29.790 100.262  18.974  0.00  0.00    +0.000 C 
ATOM      4  O   UNL     1     -31.332  97.159  17.936  0.00  0.00    +0.000 OA
ATOM      5  C   UNL     1     -31.440  98.345  17.659  0.00  0.00    +0.000 C 
ENDROOT
BRANCH   3   7
ATOM      6  C   UNL     1     -28.525  99.603  21.198  0.00  0.00    +0.000 C 
ATOM      7  C   UNL     1     -29.101  99.902  20.187  0.00  0.00    +0.000 C 
BRANCH   6   8
ATOM      8  C   UNL     1     -27.841  99.249  22.400  0.00  0.00    +0.000 A 
ATOM      9  C   UNL     1     -27.328 100.248  23.226  0.00  0.00    +0.000 A 
ATOM     10  C   UNL     1     -26.656  99.919  24.407  0.00  0.00    +0.000 A 
ATOM     11  C   UNL     1     -27.687  97.909  22.744  0.00  0.00    +0.000 A 
ATOM     12  C   UNL     1     -26.507  98.570  24.743  0.00  0.00    +0.000 A 
ATOM     13  C   UNL     1     -27.020  97.570  23.917  0.00  0.00    +0.000 A 
BRANCH  10  14
ATOM     14  O   UNL     1     -26.125 100.846  25.270  0.00  0.00    +0.000 OA
ATOM     15  C   UNL     1     -27.044 101.544  26.064  0.00  0.00    +0.000 C 
ENDBRANCH  10  14
BRANCH  12  16
ATOM     16  O   UNL     1     -25.865  98.152  25.876  0.00  0.00    +0.000 OA
ATOM     17  H   UNL     1     -26.310  98.495  26.669  0.00  0.00    +0.000 HD
ENDBRANCH  12  16
ENDBRANCH   6   8
ENDBRANCH   3   7
BRANCH   5  19
ATOM     18  C   UNL     1     -33.195  99.145  15.854  0.00  0.00    +0.000 C 
ATOM     19  C   UNL     1     -32.396  98.780  16.673  0.00  0.00    +0.000 C 
BRANCH  18  20
ATOM     20  C   UNL     1     -34.147  99.577  14.884  0.00  0.00    +0.000 A 
ATOM     21  C   UNL     1     -35.426  99.022  14.871  0.00  0.00    +0.000 A 
ATOM     22  C   UNL     1     -36.371  99.435  13.928  0.00  0.00    +0.000 A 
ATOM     23  C   UNL     1     -33.799 100.552  13.952  0.00  0.00    +0.000 A 
ATOM     24  C   UNL     1     -36.008 100.414  12.999  0.00  0.00    +0.000 A 
ATOM     25  C   UNL     1     -34.731 100.972  13.007  0.00  0.00    +0.000 A 
BRANCH  22  26
ATOM     26  O   UNL     1     -37.650  98.941  13.845  0.00  0.00    +0.000 OA
ATOM     27  C   UNL     1     -38.575  99.503  14.739  0.00  0.00    +0.000 C 
ENDBRANCH  22  26
BRANCH  24  28
ATOM     28  O   UNL     1     -36.918 100.831  12.067  0.00  0.00    +0.000 OA
ATOM     29  H   UNL     1     -37.682 100.224  12.083  0.00  0.00    +0.000 HD
ENDBRANCH  24  28
ENDBRANCH  18  20
ENDBRANCH   5  19
TORSDOF 8
ENDMDL
MODEL 2
REMARK VINA RESULT:      -6.0     18.319     23.109
REMARK  Name = 969516_Curcumin.pdbqt.pdb
REMARK  8 active torsions:
REMARK  status: ('A' for Active; 'I' for Inactive)
REMARK    1  A    between atoms: C_3  and  C_5
REMARK    2  A    between atoms: C_4  and  C_6
REMARK    3  A    between atoms: C_8  and  O_12
REMARK    4  A    between atoms: C_10  and  O_14
REMARK    5  A    between atoms: C_17  and  C_19
REMARK    6  A    between atoms: C_18  and  C_20
REMARK    7  A    between atoms: C_22  and  O_26
REMARK    8  A    between atoms: C_24  and  O_28
REMARK                            x       y       z     vdW  Elec       q    Type
REMARK                         _______ _______ _______ _____ _____    ______ ____
ROOT
ATOM      1  C   UNL     1     -43.742 101.019   2.510  0.00  0.00    +0.000 C 
ATOM      2  O   UNL     1     -44.670 101.628   0.504  0.00  0.00    +0.000 OA
ATOM      3  C   UNL     1     -44.768 100.958   1.521  0.00  0.00    +0.000 C 
ATOM      4  O   UNL     1     -42.937 100.670   4.627  0.00  0.00    +0.000 OA
ATOM      5  C   UNL     1     -42.719 101.085   3.498  0.00  0.00    +0.000 C 
ENDROOT
BRANCH   3   7
ATOM      6  C   UNL     1     -46.863  99.393   1.899  0.00  0.00    +0.000 C 
ATOM      7  C   UNL     1     -45.911 100.105   1.726  0.00  0.00    +0.000 C 
BRANCH   6   8
ATOM      8  C   UNL     1     -47.994  98.548   2.105  0.00  0.00    +0.000 A 
ATOM      9  C   UNL     1     -48.896  98.833   3.129  0.00  0.00    +0.000 A 
ATOM     10  C   UNL     1     -50.010  98.016   3.346  0.00  0.00    +0.000 A 
ATOM     11  C   UNL     1     -48.194  97.441   1.286  0.00  0.00    +0.000 A 
ATOM     12  C   UNL     1     -50.201  96.907   2.516  0.00  0.00    +0.000 A 
ATOM     13  C   UNL     1     -49.300  96.620   1.492  0.00  0.00    +0.000 A 
BRANCH  10  14
ATOM     14  O   UNL     1     -50.940  98.234   4.331  0.00  0.00    +0.000 OA
ATOM     15  C   UNL     1     -50.459  98.802   5.517  0.00  0.00    +0.000 C 
ENDBRANCH  10  14
BRANCH  12  16
ATOM     16  O   UNL     1     -51.260  96.051   2.651  0.00  0.00    +0.000 OA
ATOM     17  H   UNL     1     -51.233  95.606   3.515  0.00  0.00    +0.000 HD
ENDBRANCH  12  16
ENDBRANCH   6   8
ENDBRANCH   3   7
BRANCH   5  19
ATOM     18  C   UNL     1     -40.358 102.098   2.882  0.00  0.00    +0.000 C 
ATOM     19  C   UNL     1     -41.432 101.639   3.160  0.00  0.00    +0.000 C 
BRANCH  18  20
ATOM     20  C   UNL     1     -39.082 102.647   2.556  0.00  0.00    +0.000 A 
ATOM     21  C   UNL     1     -38.985 103.665   1.609  0.00  0.00    +0.000 A 
ATOM     22  C   UNL     1     -37.742 104.213   1.280  0.00  0.00    +0.000 A 
ATOM     23  C   UNL     1     -37.936 102.165   3.186  0.00  0.00    +0.000 A 
ATOM     24  C   UNL     1     -36.601 103.720   1.919  0.00  0.00    +0.000 A 
ATOM     25  C   UNL     1     -36.693 102.702   2.867  0.00  0.00    +0.000 A 
BRANCH  22  26
ATOM     26  O   UNL     1     -37.558 105.216   0.360  0.00  0.00    +0.000 OA
ATOM     27  C   UNL     1     -38.593 105.378  -0.575  0.00  0.00    +0.000 C 
ENDBRANCH  22  26
BRANCH  24  28
ATOM     28  O   UNL     1     -35.376 104.244   1.610  0.00  0.00    +0.000 OA
ATOM     29  H   UNL     1     -34.689 103.589   1.838  0.00  0.00    +0.000 HD
ENDBRANCH  24  28
ENDBRANCH  18  20
ENDBRANCH   5  19
TORSDOF 8
ENDMDL
MODEL 3
REMARK VINA RESULT:      -5.9      5.323      9.905
REMARK  Name = 969516_Curcumin.pdbqt.pdb
REMARK  8 active torsions:
REMARK  status: ('A' for Active; 'I' for Inactive)
REMARK    1  A    between atoms: C_3  and  C_5
REMARK    2  A    between atoms: C_4  and  C_6
REMARK    3  A    between atoms: C_8  and  O_12
REMARK    4  A    between atoms: C_10  and  O_14
REMARK    5  A    between atoms: C_17  and  C_19
REMARK    6  A    between atoms: C_18  and  C_20
REMARK    7  A    between atoms: C_22  and  O_26
REMARK    8  A    between atoms: C_24  and  O_28
REMARK                            x       y       z     vdW  Elec       q    Type
REMARK                         _______ _______ _______ _____ _____    ______ ____
ROOT
ATOM      1  C   UNL     1     -38.426 101.175  14.491  0.00  0.00    +0.000 C 
ATOM      2  O   UNL     1     -38.365  98.945  13.967  0.00  0.00    +0.000 OA
ATOM      3  C   UNL     1     -37.734  99.951  14.254  0.00  0.00    +0.000 C 
ATOM      4  O   UNL     1     -38.550 103.316  15.301  0.00  0.00    +0.000 OA
ATOM      5  C   UNL     1     -39.119 102.396  14.730  0.00  0.00    +0.000 C 
ENDROOT
BRANCH   3   7
ATOM      6  C   UNL     1     -35.099  99.877  14.434  0.00  0.00    +0.000 C 
ATOM      7  C   UNL     1     -36.297  99.910  14.352  0.00  0.00    +0.000 C 
BRANCH   6   8
ATOM      8  C   UNL     1     -33.676  99.838  14.533  0.00  0.00    +0.000 A 
ATOM      9  C   UNL     1     -33.058  98.818  15.256  0.00  0.00    +0.000 A 
ATOM     10  C   UNL     1     -31.666  98.765  15.364  0.00  0.00    +0.000 A 
ATOM     11  C   UNL     1     -32.908 100.817  13.910  0.00  0.00    +0.000 A 
ATOM     12  C   UNL     1     -30.904  99.753  14.733  0.00  0.00    +0.000 A 
ATOM     13  C   UNL     1     -31.520 100.773  14.009  0.00  0.00    +0.000 A 
BRANCH  10  14
ATOM     14  O   UNL     1     -30.987  97.792  16.056  0.00  0.00    +0.000 OA
ATOM     15  C   UNL     1     -30.973  97.926  17.450  0.00  0.00    +0.000 C 
ENDBRANCH  10  14
BRANCH  12  16
ATOM     16  O   UNL     1     -29.537  99.783  14.782  0.00  0.00    +0.000 OA
ATOM     17  H   UNL     1     -29.220  99.516  15.661  0.00  0.00    +0.000 HD
ENDBRANCH  12  16
ENDBRANCH   6   8
ENDBRANCH   3   7
BRANCH   5  19
ATOM     18  C   UNL     1     -41.625 102.665  13.936  0.00  0.00    +0.000 C 
ATOM     19  C   UNL     1     -40.486 102.541  14.297  0.00  0.00    +0.000 C 
BRANCH  18  20
ATOM     20  C   UNL     1     -42.978 102.816  13.511  0.00  0.00    +0.000 A 
ATOM     21  C   UNL     1     -44.013 102.326  14.305  0.00  0.00    +0.000 A 
ATOM     22  C   UNL     1     -45.344 102.467  13.902  0.00  0.00    +0.000 A 
ATOM     23  C   UNL     1     -43.262 103.454  12.306  0.00  0.00    +0.000 A 
ATOM     24  C   UNL     1     -45.615 103.108  12.691  0.00  0.00    +0.000 A 
ATOM     25  C   UNL     1     -44.583 103.600  11.894  0.00  0.00    +0.000 A 
BRANCH  22  26
ATOM     26  O   UNL     1     -46.423 102.013  14.623  0.00  0.00    +0.000 OA
ATOM     27  C   UNL     1     -46.540 100.617  14.723  0.00  0.00    +0.000 C 
ENDBRANCH  22  26
BRANCH  24  28
ATOM     28  O   UNL     1     -46.911 103.256  12.280  0.00  0.00    +0.000 OA
ATOM     29  H   UNL     1     -47.394 102.428  12.463  0.00  0.00    +0.000 HD
ENDBRANCH  24  28
ENDBRANCH  18  20
ENDBRANCH   5  19
TORSDOF 8
ENDMDL
MODEL 4
REMARK VINA RESULT:      -5.9     18.154     21.434
REMARK  Name = 969516_Curcumin.pdbqt.pdb
REMARK  8 active torsions:
REMARK  status: ('A' for Active; 'I' for Inactive)
REMARK    1  A    between atoms: C_3  and  C_5
REMARK    2  A    between atoms: C_4  and  C_6
REMARK    3  A    between atoms: C_8  and  O_12
REMARK    4  A    between atoms: C_10  and  O_14
REMARK    5  A    between atoms: C_17  and  C_19
REMARK    6  A    between atoms: C_18  and  C_20
REMARK    7  A    between atoms: C_22  and  O_26
REMARK    8  A    between atoms: C_24  and  O_28
REMARK                            x       y       z     vdW  Elec       q    Type
REMARK                         _______ _______ _______ _____ _____    ______ ____
ROOT
ATOM      1  C   UNL     1     -43.648 101.017   2.590  0.00  0.00    +0.000 C 
ATOM      2  O   UNL     1     -42.839 100.602   4.694  0.00  0.00    +0.000 OA
ATOM      3  C   UNL     1     -42.623 101.055   3.580  0.00  0.00    +0.000 C 
ATOM      4  O   UNL     1     -44.585 101.683   0.608  0.00  0.00    +0.000 OA
ATOM      5  C   UNL     1     -44.675 100.980   1.604  0.00  0.00    +0.000 C 
ENDROOT
BRANCH   3   7
ATOM      6  C   UNL     1     -40.268 102.098   2.990  0.00  0.00    +0.000 C 
ATOM      7  C   UNL     1     -41.339 101.625   3.259  0.00  0.00    +0.000 C 
BRANCH   6   8
ATOM      8  C   UNL     1     -38.996 102.661   2.670  0.00  0.00    +0.000 A 
ATOM      9  C   UNL     1     -38.894 103.616   1.659  0.00  0.00    +0.000 A 
ATOM     10  C   UNL     1     -37.656 104.177   1.332  0.00  0.00    +0.000 A 
ATOM     11  C   UNL     1     -37.861 102.255   3.365  0.00  0.00    +0.000 A 
ATOM     12  C   UNL     1     -36.522 103.762   2.038  0.00  0.00    +0.000 A 
ATOM     13  C   UNL     1     -36.623 102.807   3.049  0.00  0.00    +0.000 A 
BRANCH  10  14
ATOM     14  O   UNL     1     -37.477 105.121   0.352  0.00  0.00    +0.000 OA
ATOM     15  C   UNL     1     -37.876 106.424   0.674  0.00  0.00    +0.000 C 
ENDBRANCH  10  14
BRANCH  12  16
ATOM     16  O   UNL     1     -35.270 104.254   1.790  0.00  0.00    +0.000 OA
ATOM     17  H   UNL     1     -34.701 104.152   2.571  0.00  0.00    +0.000 HD
ENDBRANCH  12  16
ENDBRANCH   6   8
ENDBRANCH   3   7
BRANCH   5  19
ATOM     18  C   UNL     1     -46.760  99.391   1.937  0.00  0.00    +0.000 C 
ATOM     19  C   UNL     1     -45.813 100.115   1.787  0.00  0.00    +0.000 C 
BRANCH  18  20
ATOM     20  C   UNL     1     -47.883  98.530   2.109  0.00  0.00    +0.000 A 
ATOM     21  C   UNL     1     -48.611  98.569   3.298  0.00  0.00    +0.000 A 
ATOM     22  C   UNL     1     -49.716  97.732   3.482  0.00  0.00    +0.000 A 
ATOM     23  C   UNL     1     -48.252  97.653   1.091  0.00  0.00    +0.000 A 
ATOM     24  C   UNL     1     -50.074  96.858   2.453  0.00  0.00    +0.000 A 
ATOM     25  C   UNL     1     -49.350  96.815   1.263  0.00  0.00    +0.000 A 
BRANCH  22  26
ATOM     26  O   UNL     1     -50.486  97.706   4.619  0.00  0.00    +0.000 OA
ATOM     27  C   UNL     1     -50.533  98.906   5.346  0.00  0.00    +0.000 C 
ENDBRANCH  22  26
BRANCH  24  28
ATOM     28  O   UNL     1     -51.152  96.031   2.614  0.00  0.00    +0.000 OA
ATOM     29  H   UNL     1     -51.064  95.279   1.999  0.00  0.00    +0.000 HD
ENDBRANCH  24  28
ENDBRANCH  18  20
ENDBRANCH   5  19
TORSDOF 8
ENDMDL
MODEL 5
REMARK VINA RESULT:      -5.7      5.483     14.218
REMARK  Name = 969516_Curcumin.pdbqt.pdb
REMARK  8 active torsions:
REMARK  status: ('A' for Active; 'I' for Inactive)
REMARK    1  A    between atoms: C_3  and  C_5
REMARK    2  A    between atoms: C_4  and  C_6
REMARK    3  A    between atoms: C_8  and  O_12
REMARK    4  A    between atoms: C_10  and  O_14
REMARK    5  A    between atoms: C_17  and  C_19
REMARK    6  A    between atoms: C_18  and  C_20
REMARK    7  A    between atoms: C_22  and  O_26
REMARK    8  A    between atoms: C_24  and  O_28
REMARK                            x       y       z     vdW  Elec       q    Type
REMARK                         _______ _______ _______ _____ _____    ______ ____
ROOT
ATOM      1  C   UNL     1     -38.610 101.234  14.337  0.00  0.00    +0.000 C 
ATOM      2  O   UNL     1     -38.791 103.411  15.032  0.00  0.00    +0.000 OA
ATOM      3  C   UNL     1     -39.337 102.448  14.516  0.00  0.00    +0.000 C 
ATOM      4  O   UNL     1     -38.482  98.982  13.934  0.00  0.00    +0.000 OA
ATOM      5  C   UNL     1     -37.882 100.022  14.162  0.00  0.00    +0.000 C 
ENDROOT
BRANCH   3   7
ATOM      6  C   UNL     1     -41.853 102.597  13.724  0.00  0.00    +0.000 C 
ATOM      7  C   UNL     1     -40.709 102.530  14.084  0.00  0.00    +0.000 C 
BRANCH   6   8
ATOM      8  C   UNL     1     -43.213 102.675  13.297  0.00  0.00    +0.000 A 
ATOM      9  C   UNL     1     -44.232 102.241  14.143  0.00  0.00    +0.000 A 
ATOM     10  C   UNL     1     -45.570 102.311  13.741  0.00  0.00    +0.000 A 
ATOM     11  C   UNL     1     -43.519 103.185  12.039  0.00  0.00    +0.000 A 
ATOM     12  C   UNL     1     -45.865 102.825  12.475  0.00  0.00    +0.000 A 
ATOM     13  C   UNL     1     -44.847 103.260  11.628  0.00  0.00    +0.000 A 
BRANCH  10  14
ATOM     14  O   UNL     1     -46.625 101.904  14.518  0.00  0.00    +0.000 OA
ATOM     15  C   UNL     1     -46.815 100.521  14.623  0.00  0.00    +0.000 C 
ENDBRANCH  10  14
BRANCH  12  16
ATOM     16  O   UNL     1     -47.142 102.932  11.995  0.00  0.00    +0.000 OA
ATOM     17  H   UNL     1     -47.644 103.592  12.503  0.00  0.00    +0.000 HD
ENDBRANCH  12  16
ENDBRANCH   6   8
ENDBRANCH   3   7
BRANCH   5  19
ATOM     18  C   UNL     1     -35.245 100.034  14.333  0.00  0.00    +0.000 C 
ATOM     19  C   UNL     1     -36.444 100.031  14.254  0.00  0.00    +0.000 C 
BRANCH  18  20
ATOM     20  C   UNL     1     -33.823 100.037  14.431  0.00  0.00    +0.000 A 
ATOM     21  C   UNL     1     -33.180  99.096  15.234  0.00  0.00    +0.000 A 
ATOM     22  C   UNL     1     -31.786  99.086  15.339  0.00  0.00    +0.000 A 
ATOM     23  C   UNL     1     -33.078 100.979  13.724  0.00  0.00    +0.000 A 
ATOM     24  C   UNL     1     -31.052 100.036  14.625  0.00  0.00    +0.000 A 
ATOM     25  C   UNL     1     -31.690 100.979  13.821  0.00  0.00    +0.000 A 
BRANCH  22  26
ATOM     26  O   UNL     1     -31.075  98.196  16.107  0.00  0.00    +0.000 OA
ATOM     27  C   UNL     1     -31.592  97.954  17.389  0.00  0.00    +0.000 C 
ENDBRANCH  22  26
BRANCH  24  28
ATOM     28  O   UNL     1     -29.687 100.042  14.716  0.00  0.00    +0.000 OA
ATOM     29  H   UNL     1     -29.412  99.350  15.346  0.00  0.00    +0.000 HD
ENDBRANCH  24  28
ENDBRANCH  18  20
ENDBRANCH   5  19
TORSDOF 8
ENDMDL
MODEL 6
REMARK VINA RESULT:      -5.7     25.652     27.407
REMARK  Name = 969516_Curcumin.pdbqt.pdb
REMARK  8 active torsions:
REMARK  status: ('A' for Active; 'I' for Inactive)
REMARK    1  A    between atoms: C_3  and  C_5
REMARK    2  A    between atoms: C_4  and  C_6
REMARK    3  A    between atoms: C_8  and  O_12
REMARK    4  A    between atoms: C_10  and  O_14
REMARK    5  A    between atoms: C_17  and  C_19
REMARK    6  A    between atoms: C_18  and  C_20
REMARK    7  A    between atoms: C_22  and  O_26
REMARK    8  A    between atoms: C_24  and  O_28
REMARK                            x       y       z     vdW  Elec       q    Type
REMARK                         _______ _______ _______ _____ _____    ______ ____
ROOT
ATOM      1  C   UNL     1     -42.918  88.212  -2.085  0.00  0.00    +0.000 C 
ATOM      2  O   UNL     1     -42.923  87.258  -0.001  0.00  0.00    +0.000 OA
ATOM      3  C   UNL     1     -42.302  87.477  -1.030  0.00  0.00    +0.000 C 
ATOM      4  O   UNL     1     -42.848  89.429  -4.025  0.00  0.00    +0.000 OA
ATOM      5  C   UNL     1     -43.535  88.950  -3.136  0.00  0.00    +0.000 C 
ENDROOT
BRANCH   3   7
ATOM      6  C   UNL     1     -39.828  86.594  -1.317  0.00  0.00    +0.000 C 
ATOM      7  C   UNL     1     -40.953  86.995  -1.187  0.00  0.00    +0.000 C 
BRANCH   6   8
ATOM      8  C   UNL     1     -38.491  86.119  -1.471  0.00  0.00    +0.000 A 
ATOM      9  C   UNL     1     -38.204  84.772  -1.257  0.00  0.00    +0.000 A 
ATOM     10  C   UNL     1     -36.900  84.289  -1.403  0.00  0.00    +0.000 A 
ATOM     11  C   UNL     1     -37.477  87.001  -1.833  0.00  0.00    +0.000 A 
ATOM     12  C   UNL     1     -35.889  85.184  -1.768  0.00  0.00    +0.000 A 
ATOM     13  C   UNL     1     -36.175  86.532  -1.982  0.00  0.00    +0.000 A 
BRANCH  10  14
ATOM     14  O   UNL     1     -36.542  82.978  -1.211  0.00  0.00    +0.000 OA
ATOM     15  C   UNL     1     -36.470  82.549   0.120  0.00  0.00    +0.000 C 
ENDBRANCH  10  14
BRANCH  12  16
ATOM     16  O   UNL     1     -34.585  84.805  -1.934  0.00  0.00    +0.000 OA
ATOM     17  H   UNL     1     -34.033  85.151  -1.213  0.00  0.00    +0.000 HD
ENDBRANCH  12  16
ENDBRANCH   6   8
ENDBRANCH   3   7
BRANCH   5  19
ATOM     18  C   UNL     1     -46.157  89.273  -3.147  0.00  0.00    +0.000 C 
ATOM     19  C   UNL     1     -44.965  89.125  -3.144  0.00  0.00    +0.000 C 
BRANCH  18  20
ATOM     20  C   UNL     1     -47.573  89.447  -3.147  0.00  0.00    +0.000 A 
ATOM     21  C   UNL     1     -48.350  88.811  -2.179  0.00  0.00    +0.000 A 
ATOM     22  C   UNL     1     -49.738  88.973  -2.165  0.00  0.00    +0.000 A 
ATOM     23  C   UNL     1     -48.176  90.251  -4.111  0.00  0.00    +0.000 A 
ATOM     24  C   UNL     1     -50.330  89.782  -3.138  0.00  0.00    +0.000 A 
ATOM     25  C   UNL     1     -49.558  90.419  -4.108  0.00  0.00    +0.000 A 
BRANCH  22  26
ATOM     26  O   UNL     1     -50.577  88.383  -1.250  0.00  0.00    +0.000 OA
ATOM     27  C   UNL     1     -50.789  87.006  -1.423  0.00  0.00    +0.000 C 
ENDBRANCH  22  26
BRANCH  24  28
ATOM     28  O   UNL     1     -51.687  89.952  -3.141  0.00  0.00    +0.000 OA
ATOM     29  H   UNL     1     -52.002  89.970  -2.217  0.00  0.00    +0.000 HD
ENDBRANCH  24  28
ENDBRANCH  18  20
ENDBRANCH   5  19
TORSDOF 8
ENDMDL
MODEL 7
REMARK VINA RESULT:      -5.7     17.156     22.889
REMARK  Name = 969516_Curcumin.pdbqt.pdb
REMARK  8 active torsions:
REMARK  status: ('A' for Active; 'I' for Inactive)
REMARK    1  A    between atoms: C_3  and  C_5
REMARK    2  A    between atoms: C_4  and  C_6
REMARK    3  A    between atoms: C_8  and  O_12
REMARK    4  A    between atoms: C_10  and  O_14
REMARK    5  A    between atoms: C_17  and  C_19
REMARK    6  A    between atoms: C_18  and  C_20
REMARK    7  A    between atoms: C_22  and  O_26
REMARK    8  A    between atoms: C_24  and  O_28
REMARK                            x       y       z     vdW  Elec       q    Type
REMARK                         _______ _______ _______ _____ _____    ______ ____
ROOT
ATOM      1  C   UNL     1     -44.108 101.153   3.001  0.00  0.00    +0.000 C 
ATOM      2  O   UNL     1     -44.296 101.191   0.717  0.00  0.00    +0.000 OA
ATOM      3  C   UNL     1     -44.769 100.823   1.782  0.00  0.00    +0.000 C 
ATOM      4  O   UNL     1     -44.047 101.395   5.279  0.00  0.00    +0.000 OA
ATOM      5  C   UNL     1     -43.447 101.487   4.218  0.00  0.00    +0.000 C 
ENDROOT
BRANCH   3   7
ATOM      6  C   UNL     1     -47.005  99.417   1.842  0.00  0.00    +0.000 C 
ATOM      7  C   UNL     1     -45.989 100.056   1.814  0.00  0.00    +0.000 C 
BRANCH   6   8
ATOM      8  C   UNL     1     -48.213  98.659   1.876  0.00  0.00    +0.000 A 
ATOM      9  C   UNL     1     -48.719  98.211   3.096  0.00  0.00    +0.000 A 
ATOM     10  C   UNL     1     -49.901  97.467   3.148  0.00  0.00    +0.000 A 
ATOM     11  C   UNL     1     -48.885  98.366   0.693  0.00  0.00    +0.000 A 
ATOM     12  C   UNL     1     -50.568  97.180   1.953  0.00  0.00    +0.000 A 
ATOM     13  C   UNL     1     -50.064  97.627   0.732  0.00  0.00    +0.000 A 
BRANCH  10  14
ATOM     14  O   UNL     1     -50.459  96.995   4.310  0.00  0.00    +0.000 OA
ATOM     15  C   UNL     1     -51.181  97.925   5.068  0.00  0.00    +0.000 C 
ENDBRANCH  10  14
BRANCH  12  16
ATOM     16  O   UNL     1     -51.730  96.460   1.903  0.00  0.00    +0.000 OA
ATOM     17  H   UNL     1     -52.247  96.589   2.716  0.00  0.00    +0.000 HD
ENDBRANCH  12  16
ENDBRANCH   6   8
ENDBRANCH   3   7
BRANCH   5  19
ATOM     18  C   UNL     1     -40.934 102.299   4.164  0.00  0.00    +0.000 C 
ATOM     19  C   UNL     1     -42.076 101.930   4.191  0.00  0.00    +0.000 C 
BRANCH  18  20
ATOM     20  C   UNL     1     -39.576 102.734   4.128  0.00  0.00    +0.000 A 
ATOM     21  C   UNL     1     -39.173 103.817   4.908  0.00  0.00    +0.000 A 
ATOM     22  C   UNL     1     -37.845 104.255   4.884  0.00  0.00    +0.000 A 
ATOM     23  C   UNL     1     -38.655 102.076   3.316  0.00  0.00    +0.000 A 
ATOM     24  C   UNL     1     -36.933 103.585   4.065  0.00  0.00    +0.000 A 
ATOM     25  C   UNL     1     -37.331 102.502   3.283  0.00  0.00    +0.000 A 
BRANCH  22  26
ATOM     26  O   UNL     1     -37.366 105.312   5.619  0.00  0.00    +0.000 OA
ATOM     27  C   UNL     1     -37.707 106.586   5.140  0.00  0.00    +0.000 C 
ENDBRANCH  22  26
BRANCH  24  28
ATOM     28  O   UNL     1     -35.629 103.998   4.029  0.00  0.00    +0.000 OA
ATOM     29  H   UNL     1     -35.597 104.951   4.240  0.00  0.00    +0.000 HD
ENDBRANCH  24  28
ENDBRANCH  18  20
ENDBRANCH   5  19
TORSDOF 8
ENDMDL
MODEL 8
REMARK VINA RESULT:      -5.6     22.475     26.043
REMARK  Name = 969516_Curcumin.pdbqt.pdb
REMARK  8 active torsions:
REMARK  status: ('A' for Active; 'I' for Inactive)
REMARK    1  A    between atoms: C_3  and  C_5
REMARK    2  A    between atoms: C_4  and  C_6
REMARK    3  A    between atoms: C_8  and  O_12
REMARK    4  A    between atoms: C_10  and  O_14
REMARK    5  A    between atoms: C_17  and  C_19
REMARK    6  A    between atoms: C_18  and  C_20
REMARK    7  A    between atoms: C_22  and  O_26
REMARK    8  A    between atoms: C_24  and  O_28
REMARK                            x       y       z     vdW  Elec       q    Type
REMARK                         _______ _______ _______ _____ _____    ______ ____
ROOT
ATOM      1  C   UNL     1     -22.660 102.486  -5.158  0.00  0.00    +0.000 C 
ATOM      2  O   UNL     1     -24.293 104.028  -5.611  0.00  0.00    +0.000 OA
ATOM      3  C   UNL     1     -23.665 103.416  -4.761  0.00  0.00    +0.000 C 
ATOM      4  O   UNL     1     -20.827 101.174  -4.743  0.00  0.00    +0.000 OA
ATOM      5  C   UNL     1     -21.653 101.560  -5.557  0.00  0.00    +0.000 C 
ENDROOT
BRANCH   3   7
ATOM      6  C   UNL     1     -24.161 103.798  -2.194  0.00  0.00    +0.000 C 
ATOM      7  C   UNL     1     -23.936 103.623  -3.361  0.00  0.00    +0.000 C 
BRANCH   6   8
ATOM      8  C   UNL     1     -24.431 104.005  -0.809  0.00  0.00    +0.000 A 
ATOM      9  C   UNL     1     -23.935 103.109   0.137  0.00  0.00    +0.000 A 
ATOM     10  C   UNL     1     -24.189 103.297   1.499  0.00  0.00    +0.000 A 
ATOM     11  C   UNL     1     -25.189 105.099  -0.403  0.00  0.00    +0.000 A 
ATOM     12  C   UNL     1     -24.952 104.400   1.895  0.00  0.00    +0.000 A 
ATOM     13  C   UNL     1     -25.449 105.297   0.950  0.00  0.00    +0.000 A 
BRANCH  10  14
ATOM     14  O   UNL     1     -23.734 102.459   2.487  0.00  0.00    +0.000 OA
ATOM     15  C   UNL     1     -23.592 101.111   2.134  0.00  0.00    +0.000 C 
ENDBRANCH  10  14
BRANCH  12  16
ATOM     16  O   UNL     1     -25.253 104.666   3.202  0.00  0.00    +0.000 OA
ATOM     17  H   UNL     1     -24.672 104.162   3.797  0.00  0.00    +0.000 HD
ENDBRANCH  12  16
ENDBRANCH   6   8
ENDBRANCH   3   7
BRANCH   5  19
ATOM     18  C   UNL     1     -21.587 100.691  -8.051  0.00  0.00    +0.000 C 
ATOM     19  C   UNL     1     -21.616 101.084  -6.916  0.00  0.00    +0.000 C 
BRANCH  18  20
ATOM     20  C   UNL     1     -21.558 100.224  -9.398  0.00  0.00    +0.000 A 
ATOM     21  C   UNL     1     -22.310 100.875 -10.375  0.00  0.00    +0.000 A 
ATOM     22  C   UNL     1     -22.292 100.430 -11.700  0.00  0.00    +0.000 A 
ATOM     23  C   UNL     1     -20.779  99.120  -9.736  0.00  0.00    +0.000 A 
ATOM     24  C   UNL     1     -21.506  99.322 -12.024  0.00  0.00    +0.000 A 
ATOM     25  C   UNL     1     -20.752  98.667 -11.052  0.00  0.00    +0.000 A 
BRANCH  22  26
ATOM     26  O   UNL     1     -23.002 101.012 -12.722  0.00  0.00    +0.000 OA
ATOM     27  C   UNL     1     -24.399 100.951 -12.600  0.00  0.00    +0.000 C 
ENDBRANCH  22  26
BRANCH  24  28
ATOM     28  O   UNL     1     -21.474  98.871 -13.316  0.00  0.00    +0.000 OA
ATOM     29  H   UNL     1     -20.598  99.071 -13.696  0.00  0.00    +0.000 HD
ENDBRANCH  24  28
ENDBRANCH  18  20
ENDBRANCH   5  19
TORSDOF 8
ENDMDL
MODEL 9
REMARK VINA RESULT:      -5.6     16.003     18.119
REMARK  Name = 969516_Curcumin.pdbqt.pdb
REMARK  8 active torsions:
REMARK  status: ('A' for Active; 'I' for Inactive)
REMARK    1  A    between atoms: C_3  and  C_5
REMARK    2  A    between atoms: C_4  and  C_6
REMARK    3  A    between atoms: C_8  and  O_12
REMARK    4  A    between atoms: C_10  and  O_14
REMARK    5  A    between atoms: C_17  and  C_19
REMARK    6  A    between atoms: C_18  and  C_20
REMARK    7  A    between atoms: C_22  and  O_26
REMARK    8  A    between atoms: C_24  and  O_28
REMARK                            x       y       z     vdW  Elec       q    Type
REMARK                         _______ _______ _______ _____ _____    ______ ____
ROOT
ATOM      1  C   UNL     1     -23.850 102.531   3.348  0.00  0.00    +0.000 C 
ATOM      2  O   UNL     1     -22.886 100.491   2.947  0.00  0.00    +0.000 OA
ATOM      3  C   UNL     1     -23.143 101.364   3.761  0.00  0.00    +0.000 C 
ATOM      4  O   UNL     1     -25.080 104.418   3.771  0.00  0.00    +0.000 OA
ATOM      5  C   UNL     1     -24.561 103.694   2.934  0.00  0.00    +0.000 C 
ENDROOT
BRANCH   3   7
ATOM      6  C   UNL     1     -22.389 101.111   6.281  0.00  0.00    +0.000 C 
ATOM      7  C   UNL     1     -22.732 101.225   5.136  0.00  0.00    +0.000 C 
BRANCH   6   8
ATOM      8  C   UNL     1     -21.982 100.976   7.642  0.00  0.00    +0.000 A 
ATOM      9  C   UNL     1     -22.079 102.065   8.507  0.00  0.00    +0.000 A 
ATOM     10  C   UNL     1     -21.685 101.950   9.844  0.00  0.00    +0.000 A 
ATOM     11  C   UNL     1     -21.488  99.759   8.104  0.00  0.00    +0.000 A 
ATOM     12  C   UNL     1     -21.191 100.723  10.296  0.00  0.00    +0.000 A 
ATOM     13  C   UNL     1     -21.092  99.633   9.432  0.00  0.00    +0.000 A 
BRANCH  10  14
ATOM     14  O   UNL     1     -21.753 102.976  10.753  0.00  0.00    +0.000 OA
ATOM     15  C   UNL     1     -22.061 104.240  10.234  0.00  0.00    +0.000 C 
ENDBRANCH  10  14
BRANCH  12  16
ATOM     16  O   UNL     1     -20.781 100.515  11.585  0.00  0.00    +0.000 OA
ATOM     17  H   UNL     1     -21.538 100.542  12.194  0.00  0.00    +0.000 HD
ENDBRANCH  12  16
ENDBRANCH   6   8
ENDBRANCH   3   7
BRANCH   5  19
ATOM     18  C   UNL     1     -24.748 104.270   0.362  0.00  0.00    +0.000 C 
ATOM     19  C   UNL     1     -24.662 104.010   1.532  0.00  0.00    +0.000 C 
BRANCH  18  20
ATOM     20  C   UNL     1     -24.848 104.574  -1.028  0.00  0.00    +0.000 A 
ATOM     21  C   UNL     1     -24.272 103.720  -1.968  0.00  0.00    +0.000 A 
ATOM     22  C   UNL     1     -24.362 104.005  -3.334  0.00  0.00    +0.000 A 
ATOM     23  C   UNL     1     -25.520 105.721  -1.443  0.00  0.00    +0.000 A 
ATOM     24  C   UNL     1     -25.039 105.158  -3.736  0.00  0.00    +0.000 A 
ATOM     25  C   UNL     1     -25.616 106.015  -2.800  0.00  0.00    +0.000 A 
BRANCH  22  26
ATOM     26  O   UNL     1     -23.825 103.219  -4.325  0.00  0.00    +0.000 OA
ATOM     27  C   UNL     1     -22.422 103.184  -4.375  0.00  0.00    +0.000 C 
ENDBRANCH  22  26
BRANCH  24  28
ATOM     28  O   UNL     1     -25.138 105.453  -5.068  0.00  0.00    +0.000 OA
ATOM     29  H   UNL     1     -24.240 105.503  -5.445  0.00  0.00    +0.000 HD
ENDBRANCH  24  28
ENDBRANCH  18  20
ENDBRANCH   5  19
TORSDOF 8
ENDMDL
