MODEL 1
REMARK VINA RESULT:      -4.4      0.000      0.000
REMARK  Name = 971_OxalicAcid.pdbqt.pdb
REMARK  3 active torsions:
REMARK  status: ('A' for Active; 'I' for Inactive)
REMARK    1  A    between atoms: C_2  and  O_3
REMARK    2  A    between atoms: C_2  and  C_6
REMARK    3  A    between atoms: C_6  and  O_7
REMARK                            x       y       z     vdW  Elec       q    Type
REMARK                         _______ _______ _______ _____ _____    ______ ____
ROOT
ATOM      1  O   UNL     1     -34.128  98.517 -11.902  0.00  0.00    +0.000 OA
ATOM      2  C   UNL     1     -34.644  98.695 -10.816  0.00  0.00    +0.000 C 
ENDROOT
BRANCH   2   3
ATOM      3  O   UNL     1     -34.109  98.206  -9.689  0.00  0.00    +0.000 OA
ATOM      4  H   UNL     1     -34.474  97.302  -9.617  0.00  0.00    +0.000 HD
ENDBRANCH   2   3
BRANCH   2   6
ATOM      5  O   UNL     1     -36.743  99.851 -11.420  0.00  0.00    +0.000 OA
ATOM      6  C   UNL     1     -35.962  99.490 -10.562  0.00  0.00    +0.000 C 
BRANCH   6   7
ATOM      7  O   UNL     1     -36.166  99.750  -9.263  0.00  0.00    +0.000 OA
ATOM      8  H   UNL     1     -36.881 100.418  -9.256  0.00  0.00    +0.000 HD
ENDBRANCH   6   7
ENDBRANCH   2   6
TORSDOF 3
ENDMDL
MODEL 2
REMARK VINA RESULT:      -3.7     13.006     14.302
REMARK  Name = 971_OxalicAcid.pdbqt.pdb
REMARK  3 active torsions:
REMARK  status: ('A' for Active; 'I' for Inactive)
REMARK    1  A    between atoms: C_2  and  O_3
REMARK    2  A    between atoms: C_2  and  C_6
REMARK    3  A    between atoms: C_6  and  O_7
REMARK                            x       y       z     vdW  Elec       q    Type
REMARK                         _______ _______ _______ _____ _____    ______ ____
ROOT
ATOM      1  O   UNL     1     -27.008  90.846  -6.152  0.00  0.00    +0.000 OA
ATOM      2  C   UNL     1     -26.087  90.243  -5.638  0.00  0.00    +0.000 C 
ENDROOT
BRANCH   2   3
ATOM      3  O   UNL     1     -25.218  89.523  -6.362  0.00  0.00    +0.000 OA
ATOM      4  H   UNL     1     -25.781  88.966  -6.936  0.00  0.00    +0.000 HD
ENDBRANCH   2   3
BRANCH   2   6
ATOM      5  O   UNL     1     -26.254  89.429  -3.310  0.00  0.00    +0.000 OA
ATOM      6  C   UNL     1     -25.772  90.207  -4.110  0.00  0.00    +0.000 C 
BRANCH   6   7
ATOM      7  O   UNL     1     -24.889  91.146  -3.742  0.00  0.00    +0.000 OA
ATOM      8  H   UNL     1     -24.800  91.721  -4.528  0.00  0.00    +0.000 HD
ENDBRANCH   6   7
ENDBRANCH   2   6
TORSDOF 3
ENDMDL
MODEL 3
REMARK VINA RESULT:      -3.7     13.080     14.396
REMARK  Name = 971_OxalicAcid.pdbqt.pdb
REMARK  3 active torsions:
REMARK  status: ('A' for Active; 'I' for Inactive)
REMARK    1  A    between atoms: C_2  and  O_3
REMARK    2  A    between atoms: C_2  and  C_6
REMARK    3  A    between atoms: C_6  and  O_7
REMARK                            x       y       z     vdW  Elec       q    Type
REMARK                         _______ _______ _______ _____ _____    ______ ____
ROOT
ATOM      1  O   UNL     1     -25.488  88.566  -4.941  0.00  0.00    +0.000 OA
ATOM      2  C   UNL     1     -25.973  89.439  -4.248  0.00  0.00    +0.000 C 
ENDROOT
BRANCH   2   3
ATOM      3  O   UNL     1     -26.572  89.166  -3.080  0.00  0.00    +0.000 OA
ATOM      4  H   UNL     1     -27.002  90.007  -2.824  0.00  0.00    +0.000 HD
ENDBRANCH   2   3
BRANCH   2   6
ATOM      5  O   UNL     1     -26.965  91.623  -4.840  0.00  0.00    +0.000 OA
ATOM      6  C   UNL     1     -25.978  90.962  -4.585  0.00  0.00    +0.000 C 
BRANCH   6   7
ATOM      7  O   UNL     1     -24.750  91.499  -4.570  0.00  0.00    +0.000 OA
ATOM      8  H   UNL     1     -24.602  91.798  -5.490  0.00  0.00    +0.000 HD
ENDBRANCH   6   7
ENDBRANCH   2   6
TORSDOF 3
ENDMDL
MODEL 4
REMARK VINA RESULT:      -3.6     11.002     11.235
REMARK  Name = 971_OxalicAcid.pdbqt.pdb
REMARK  3 active torsions:
REMARK  status: ('A' for Active; 'I' for Inactive)
REMARK    1  A    between atoms: C_2  and  O_3
REMARK    2  A    between atoms: C_2  and  C_6
REMARK    3  A    between atoms: C_6  and  O_7
REMARK                            x       y       z     vdW  Elec       q    Type
REMARK                         _______ _______ _______ _____ _____    ______ ____
ROOT
ATOM      1  O   UNL     1     -25.078 102.102  -7.952  0.00  0.00    +0.000 OA
ATOM      2  C   UNL     1     -24.976 101.301  -7.044  0.00  0.00    +0.000 C 
ENDROOT
BRANCH   2   3
ATOM      3  O   UNL     1     -24.292 100.157  -7.181  0.00  0.00    +0.000 OA
ATOM      4  H   UNL     1     -23.693 100.136  -6.408  0.00  0.00    +0.000 HD
ENDBRANCH   2   3
BRANCH   2   6
ATOM      5  O   UNL     1     -25.733 102.514  -5.028  0.00  0.00    +0.000 OA
ATOM      6  C   UNL     1     -25.600 101.462  -5.623  0.00  0.00    +0.000 C 
BRANCH   6   7
ATOM      7  O   UNL     1     -25.992 100.294  -5.095  0.00  0.00    +0.000 OA
ATOM      8  H   UNL     1     -26.116 100.485  -4.143  0.00  0.00    +0.000 HD
ENDBRANCH   6   7
ENDBRANCH   2   6
TORSDOF 3
ENDMDL
MODEL 5
REMARK VINA RESULT:      -3.4     23.251     23.703
REMARK  Name = 971_OxalicAcid.pdbqt.pdb
REMARK  3 active torsions:
REMARK  status: ('A' for Active; 'I' for Inactive)
REMARK    1  A    between atoms: C_2  and  O_3
REMARK    2  A    between atoms: C_2  and  C_6
REMARK    3  A    between atoms: C_6  and  O_7
REMARK                            x       y       z     vdW  Elec       q    Type
REMARK                         _______ _______ _______ _____ _____    ______ ____
ROOT
ATOM      1  O   UNL     1     -36.044 100.119  12.777  0.00  0.00    +0.000 OA
ATOM      2  C   UNL     1     -37.190  99.806  13.031  0.00  0.00    +0.000 C 
ENDROOT
BRANCH   2   3
ATOM      3  O   UNL     1     -37.490  98.652  13.645  0.00  0.00    +0.000 OA
ATOM      4  H   UNL     1     -37.442  98.863  14.599  0.00  0.00    +0.000 HD
ENDBRANCH   2   3
BRANCH   2   6
ATOM      5  O   UNL     1     -38.464 101.674  12.035  0.00  0.00    +0.000 OA
ATOM      6  C   UNL     1     -38.455 100.658  12.701  0.00  0.00    +0.000 C 
BRANCH   6   7
ATOM      7  O   UNL     1     -39.574 100.152  13.237  0.00  0.00    +0.000 OA
ATOM      8  H   UNL     1     -40.279 100.388  12.601  0.00  0.00    +0.000 HD
ENDBRANCH   6   7
ENDBRANCH   2   6
TORSDOF 3
ENDMDL
MODEL 6
REMARK VINA RESULT:      -3.4     23.252     23.817
REMARK  Name = 971_OxalicAcid.pdbqt.pdb
REMARK  3 active torsions:
REMARK  status: ('A' for Active; 'I' for Inactive)
REMARK    1  A    between atoms: C_2  and  O_3
REMARK    2  A    between atoms: C_2  and  C_6
REMARK    3  A    between atoms: C_6  and  O_7
REMARK                            x       y       z     vdW  Elec       q    Type
REMARK                         _______ _______ _______ _____ _____    ______ ____
ROOT
ATOM      1  O   UNL     1     -38.483 101.669  12.031  0.00  0.00    +0.000 OA
ATOM      2  C   UNL     1     -38.462 100.657  12.704  0.00  0.00    +0.000 C 
ENDROOT
BRANCH   2   3
ATOM      3  O   UNL     1     -39.572 100.154  13.262  0.00  0.00    +0.000 OA
ATOM      4  H   UNL     1     -39.322  99.247  13.530  0.00  0.00    +0.000 HD
ENDBRANCH   2   3
BRANCH   2   6
ATOM      5  O   UNL     1     -36.049 100.124  12.753  0.00  0.00    +0.000 OA
ATOM      6  C   UNL     1     -37.192  99.808  13.019  0.00  0.00    +0.000 C 
BRANCH   6   7
ATOM      7  O   UNL     1     -37.482  98.653  13.634  0.00  0.00    +0.000 OA
ATOM      8  H   UNL     1     -36.622  98.330  13.969  0.00  0.00    +0.000 HD
ENDBRANCH   6   7
ENDBRANCH   2   6
TORSDOF 3
ENDMDL
MODEL 7
REMARK VINA RESULT:      -3.3     28.348     29.164
REMARK  Name = 971_OxalicAcid.pdbqt.pdb
REMARK  3 active torsions:
REMARK  status: ('A' for Active; 'I' for Inactive)
REMARK    1  A    between atoms: C_2  and  O_3
REMARK    2  A    between atoms: C_2  and  C_6
REMARK    3  A    between atoms: C_6  and  O_7
REMARK                            x       y       z     vdW  Elec       q    Type
REMARK                         _______ _______ _______ _____ _____    ______ ____
ROOT
ATOM      1  O   UNL     1     -29.040  88.903  16.175  0.00  0.00    +0.000 OA
ATOM      2  C   UNL     1     -29.203  90.108  16.172  0.00  0.00    +0.000 C 
ENDROOT
BRANCH   2   3
ATOM      3  O   UNL     1     -28.552  90.909  15.317  0.00  0.00    +0.000 OA
ATOM      4  H   UNL     1     -28.580  91.791  15.739  0.00  0.00    +0.000 HD
ENDBRANCH   2   3
BRANCH   2   6
ATOM      5  O   UNL     1     -31.231  91.369  16.808  0.00  0.00    +0.000 OA
ATOM      6  C   UNL     1     -30.159  90.892  17.124  0.00  0.00    +0.000 C 
BRANCH   6   7
ATOM      7  O   UNL     1     -29.675  90.999  18.369  0.00  0.00    +0.000 OA
ATOM      8  H   UNL     1     -29.635  91.962  18.535  0.00  0.00    +0.000 HD
ENDBRANCH   6   7
ENDBRANCH   2   6
TORSDOF 3
ENDMDL
MODEL 8
REMARK VINA RESULT:      -3.2     12.978     14.223
REMARK  Name = 971_OxalicAcid.pdbqt.pdb
REMARK  3 active torsions:
REMARK  status: ('A' for Active; 'I' for Inactive)
REMARK    1  A    between atoms: C_2  and  O_3
REMARK    2  A    between atoms: C_2  and  C_6
REMARK    3  A    between atoms: C_6  and  O_7
REMARK                            x       y       z     vdW  Elec       q    Type
REMARK                         _______ _______ _______ _____ _____    ______ ____
ROOT
ATOM      1  O   UNL     1     -26.508  89.091  -3.064  0.00  0.00    +0.000 OA
ATOM      2  C   UNL     1     -26.105  89.818  -3.950  0.00  0.00    +0.000 C 
ENDROOT
BRANCH   2   3
ATOM      3  O   UNL     1     -25.047  90.622  -3.782  0.00  0.00    +0.000 OA
ATOM      4  H   UNL     1     -24.360  90.250  -4.370  0.00  0.00    +0.000 HD
ENDBRANCH   2   3
BRANCH   2   6
ATOM      5  O   UNL     1     -27.088  88.999  -6.065  0.00  0.00    +0.000 OA
ATOM      6  C   UNL     1     -26.727  89.933  -5.376  0.00  0.00    +0.000 C 
BRANCH   6   7
ATOM      7  O   UNL     1     -26.834  91.203  -5.793  0.00  0.00    +0.000 OA
ATOM      8  H   UNL     1     -25.911  91.484  -5.959  0.00  0.00    +0.000 HD
ENDBRANCH   6   7
ENDBRANCH   2   6
TORSDOF 3
ENDMDL
MODEL 9
REMARK VINA RESULT:      -3.2      8.120      8.972
REMARK  Name = 971_OxalicAcid.pdbqt.pdb
REMARK  3 active torsions:
REMARK  status: ('A' for Active; 'I' for Inactive)
REMARK    1  A    between atoms: C_2  and  O_3
REMARK    2  A    between atoms: C_2  and  C_6
REMARK    3  A    between atoms: C_6  and  O_7
REMARK                            x       y       z     vdW  Elec       q    Type
REMARK                         _______ _______ _______ _____ _____    ______ ____
ROOT
ATOM      1  O   UNL     1     -33.685 102.217  -2.602  0.00  0.00    +0.000 OA
ATOM      2  C   UNL     1     -33.209 103.313  -2.824  0.00  0.00    +0.000 C 
ENDROOT
BRANCH   2   3
ATOM      3  O   UNL     1     -32.450 103.952  -1.922  0.00  0.00    +0.000 OA
ATOM      4  H   UNL     1     -31.948 104.608  -2.445  0.00  0.00    +0.000 HD
ENDBRANCH   2   3
BRANCH   2   6
ATOM      5  O   UNL     1     -34.140 105.074  -4.286  0.00  0.00    +0.000 OA
ATOM      6  C   UNL     1     -33.391 104.128  -4.142  0.00  0.00    +0.000 C 
BRANCH   6   7
ATOM      7  O   UNL     1     -32.619 103.676  -5.140  0.00  0.00    +0.000 OA
ATOM      8  H   UNL     1     -33.239 103.533  -5.883  0.00  0.00    +0.000 HD
ENDBRANCH   6   7
ENDBRANCH   2   6
TORSDOF 3
ENDMDL
