MODEL 1
REMARK VINA RESULT:      -6.7      0.000      0.000
REMARK  Name = 9852185_GambogicAcid.pdbqt.pdb
REMARK  10 active torsions:
REMARK  status: ('A' for Active; 'I' for Inactive)
REMARK    1  A    between atoms: C_8  and  C_30
REMARK    2  A    between atoms: C_20  and  C_38
REMARK    3  A    between atoms: C_21  and  O_28
REMARK    4  A    between atoms: C_25  and  C_43
REMARK    5  A    between atoms: C_31  and  C_32
REMARK    6  A    between atoms: C_32  and  C_35
REMARK    7  A    between atoms: C_35  and  O_36
REMARK    8  A    between atoms: C_39  and  C_40
REMARK    9  A    between atoms: C_43  and  C_44
REMARK   10  A    between atoms: C_45  and  C_46
REMARK                            x       y       z     vdW  Elec       q    Type
REMARK                         _______ _______ _______ _____ _____    ______ ____
ROOT
ATOM      1  O   UNL     1     -27.704  83.866  15.274  0.00  0.00    +0.000 OA
ATOM      2  O   UNL     1     -28.328  86.476  16.319  0.00  0.00    +0.000 OA
ATOM      3  O   UNL     1     -25.540  84.133  12.967  0.00  0.00    +0.000 OA
ATOM      4  O   UNL     1     -27.627  89.788  13.975  0.00  0.00    +0.000 OA
ATOM      5  O   UNL     1     -30.648  89.045  19.576  0.00  0.00    +0.000 OA
ATOM      6  C   UNL     1     -27.927  86.230  14.978  0.00  0.00    +0.000 C 
ATOM      7  C   UNL     1     -29.025  85.477  14.145  0.00  0.00    +0.000 C 
ATOM      8  C   UNL     1     -26.925  85.010  14.890  0.00  0.00    +0.000 C 
ATOM      9  C   UNL     1     -29.045  84.096  14.810  0.00  0.00    +0.000 C 
ATOM     10  C   UNL     1     -28.617  85.548  12.742  0.00  0.00    +0.000 C 
ATOM     11  C   UNL     1     -27.224  85.819  12.431  0.00  0.00    +0.000 C 
ATOM     12  C   UNL     1     -27.363  87.465  14.255  0.00  0.00    +0.000 C 
ATOM     13  C   UNL     1     -26.416  84.881  13.372  0.00  0.00    +0.000 C 
ATOM     14  C   UNL     1     -26.961  87.147  12.921  0.00  0.00    +0.000 C 
ATOM     15  C   UNL     1     -29.405  82.982  13.816  0.00  0.00    +0.000 C 
ATOM     16  C   UNL     1     -30.020  84.094  15.998  0.00  0.00    +0.000 C 
ATOM     17  C   UNL     1     -27.827  88.791  14.656  0.00  0.00    +0.000 C 
ATOM     18  C   UNL     1     -28.791  87.715  16.673  0.00  0.00    +0.000 A 
ATOM     19  C   UNL     1     -28.582  88.875  15.914  0.00  0.00    +0.000 A 
ATOM     20  C   UNL     1     -29.476  87.793  17.905  0.00  0.00    +0.000 A 
ATOM     21  C   UNL     1     -29.075  90.114  16.354  0.00  0.00    +0.000 A 
ATOM     22  C   UNL     1     -29.967  89.023  18.356  0.00  0.00    +0.000 A 
ATOM     23  C   UNL     1     -29.762  90.181  17.563  0.00  0.00    +0.000 A 
ATOM     24  C   UNL     1     -30.300  91.363  18.129  0.00  0.00    +0.000 C 
ATOM     25  C   UNL     1     -31.128  90.327  20.146  0.00  0.00    +0.000 C 
ATOM     26  C   UNL     1     -30.849  91.397  19.187  0.00  0.00    +0.000 C 
ATOM     27  C   UNL     1     -30.372  90.531  21.482  0.00  0.00    +0.000 C 
ENDROOT
BRANCH  21  28
ATOM     28  O   UNL     1     -28.910  91.273  15.644  0.00  0.00    +0.000 OA
ATOM     29  H   UNL     1     -28.533  91.971  16.226  0.00  0.00    +0.000 HD
ENDBRANCH  21  28
BRANCH   8  30
ATOM     30  C   UNL     1     -25.785  85.154  15.805  0.00  0.00    +0.000 C 
ATOM     31  C   UNL     1     -24.603  85.358  16.766  0.00  0.00    +0.000 C 
BRANCH  31  32
ATOM     32  C   UNL     1     -23.598  85.584  17.564  0.00  0.00    +0.000 C 
ATOM     33  C   UNL     1     -22.631  84.425  17.716  0.00  0.00    +0.000 C 
BRANCH  32  35
ATOM     34  O   UNL     1     -23.800  87.170  19.374  0.00  0.00    +0.000 OA
ATOM     35  C   UNL     1     -23.453  86.906  18.232  0.00  0.00    +0.000 C 
BRANCH  35  36
ATOM     36  O   UNL     1     -22.881  87.857  17.464  0.00  0.00    +0.000 OA
ATOM     37  H   UNL     1     -23.544  88.060  16.771  0.00  0.00    +0.000 HD
ENDBRANCH  35  36
ENDBRANCH  32  35
ENDBRANCH  31  32
ENDBRANCH   8  30
BRANCH  20  38
ATOM     38  C   UNL     1     -29.672  86.610  18.692  0.00  0.00    +0.000 C 
ATOM     39  C   UNL     1     -29.913  85.343  19.526  0.00  0.00    +0.000 C 
BRANCH  39  40
ATOM     40  C   UNL     1     -30.134  84.271  20.221  0.00  0.00    +0.000 C 
ATOM     41  C   UNL     1     -31.069  84.334  21.391  0.00  0.00    +0.000 C 
ATOM     42  C   UNL     1     -29.659  82.945  19.713  0.00  0.00    +0.000 C 
ENDBRANCH  39  40
ENDBRANCH  20  38
BRANCH  25  43
ATOM     43  C   UNL     1     -32.575  90.175  20.387  0.00  0.00    +0.000 C 
BRANCH  43  44
ATOM     44  C   UNL     1     -34.079  90.021  20.644  0.00  0.00    +0.000 C 
ATOM     45  C   UNL     1     -35.585  89.866  20.904  0.00  0.00    +0.000 C 
BRANCH  45  46
ATOM     46  C   UNL     1     -36.855  89.727  21.120  0.00  0.00    +0.000 C 
ATOM     47  C   UNL     1     -37.534  88.446  20.744  0.00  0.00    +0.000 C 
ATOM     48  C   UNL     1     -37.670  90.899  21.573  0.00  0.00    +0.000 C 
ENDBRANCH  45  46
ENDBRANCH  43  44
ENDBRANCH  25  43
TORSDOF 10
ENDMDL
MODEL 2
REMARK VINA RESULT:      -6.6     23.552     26.585
REMARK  Name = 9852185_GambogicAcid.pdbqt.pdb
REMARK  10 active torsions:
REMARK  status: ('A' for Active; 'I' for Inactive)
REMARK    1  A    between atoms: C_8  and  C_30
REMARK    2  A    between atoms: C_20  and  C_38
REMARK    3  A    between atoms: C_21  and  O_28
REMARK    4  A    between atoms: C_25  and  C_43
REMARK    5  A    between atoms: C_31  and  C_32
REMARK    6  A    between atoms: C_32  and  C_35
REMARK    7  A    between atoms: C_35  and  O_36
REMARK    8  A    between atoms: C_39  and  C_40
REMARK    9  A    between atoms: C_43  and  C_44
REMARK   10  A    between atoms: C_45  and  C_46
REMARK                            x       y       z     vdW  Elec       q    Type
REMARK                         _______ _______ _______ _____ _____    ______ ____
ROOT
ATOM      1  O   UNL     1     -35.798 107.739  -0.391  0.00  0.00    +0.000 OA
ATOM      2  O   UNL     1     -37.210 105.462   0.667  0.00  0.00    +0.000 OA
ATOM      3  O   UNL     1     -32.716 107.510   0.332  0.00  0.00    +0.000 OA
ATOM      4  O   UNL     1     -35.570 103.383   3.820  0.00  0.00    +0.000 OA
ATOM      5  O   UNL     1     -41.304 103.069   0.978  0.00  0.00    +0.000 OA
ATOM      6  C   UNL     1     -36.043 106.020   1.255  0.00  0.00    +0.000 C 
ATOM      7  C   UNL     1     -36.303 107.427   1.903  0.00  0.00    +0.000 C 
ATOM      8  C   UNL     1     -35.077 106.626   0.160  0.00  0.00    +0.000 C 
ATOM      9  C   UNL     1     -36.581 108.302   0.675  0.00  0.00    +0.000 C 
ATOM     10  C   UNL     1     -35.126 107.747   2.711  0.00  0.00    +0.000 C 
ATOM     11  C   UNL     1     -33.877 107.058   2.433  0.00  0.00    +0.000 C 
ATOM     12  C   UNL     1     -35.288 105.057   2.188  0.00  0.00    +0.000 C 
ATOM     13  C   UNL     1     -33.729 107.112   0.886  0.00  0.00    +0.000 C 
ATOM     14  C   UNL     1     -34.118 105.670   2.731  0.00  0.00    +0.000 C 
ATOM     15  C   UNL     1     -36.128 109.754   0.887  0.00  0.00    +0.000 C 
ATOM     16  C   UNL     1     -38.074 108.249   0.315  0.00  0.00    +0.000 C 
ATOM     17  C   UNL     1     -36.041 104.014   2.882  0.00  0.00    +0.000 C 
ATOM     18  C   UNL     1     -37.922 104.508   1.342  0.00  0.00    +0.000 A 
ATOM     19  C   UNL     1     -37.414 103.771   2.422  0.00  0.00    +0.000 A 
ATOM     20  C   UNL     1     -39.225 104.251   0.864  0.00  0.00    +0.000 A 
ATOM     21  C   UNL     1     -38.204 102.796   3.053  0.00  0.00    +0.000 A 
ATOM     22  C   UNL     1     -40.018 103.278   1.482  0.00  0.00    +0.000 A 
ATOM     23  C   UNL     1     -39.492 102.558   2.585  0.00  0.00    +0.000 A 
ATOM     24  C   UNL     1     -40.388 101.598   3.119  0.00  0.00    +0.000 C 
ATOM     25  C   UNL     1     -42.167 102.002   1.539  0.00  0.00    +0.000 C 
ATOM     26  C   UNL     1     -41.472 101.387   2.671  0.00  0.00    +0.000 C 
ATOM     27  C   UNL     1     -42.426 100.990   0.395  0.00  0.00    +0.000 C 
ENDROOT
BRANCH  21  28
ATOM     28  O   UNL     1     -37.760 102.059   4.118  0.00  0.00    +0.000 OA
ATOM     29  H   UNL     1     -38.518 101.820   4.698  0.00  0.00    +0.000 HD
ENDBRANCH  21  28
BRANCH   8  30
ATOM     30  C   UNL     1     -34.769 105.666  -0.909  0.00  0.00    +0.000 C 
ATOM     31  C   UNL     1     -34.398 104.685  -2.032  0.00  0.00    +0.000 C 
BRANCH  31  32
ATOM     32  C   UNL     1     -34.045 103.891  -3.003  0.00  0.00    +0.000 C 
ATOM     33  C   UNL     1     -34.091 102.412  -2.666  0.00  0.00    +0.000 C 
BRANCH  32  35
ATOM     34  O   UNL     1     -34.109 105.463  -4.834  0.00  0.00    +0.000 OA
ATOM     35  C   UNL     1     -33.655 104.449  -4.326  0.00  0.00    +0.000 C 
BRANCH  35  36
ATOM     36  O   UNL     1     -32.712 103.733  -4.974  0.00  0.00    +0.000 OA
ATOM     37  H   UNL     1     -32.993 102.799  -4.884  0.00  0.00    +0.000 HD
ENDBRANCH  35  36
ENDBRANCH  32  35
ENDBRANCH  31  32
ENDBRANCH   8  30
BRANCH  20  38
ATOM     38  C   UNL     1     -39.737 104.991  -0.253  0.00  0.00    +0.000 C 
ATOM     39  C   UNL     1     -40.264 105.805  -1.444  0.00  0.00    +0.000 C 
BRANCH  39  40
ATOM     40  C   UNL     1     -40.691 106.504  -2.449  0.00  0.00    +0.000 C 
ATOM     41  C   UNL     1     -39.700 107.098  -3.405  0.00  0.00    +0.000 C 
ATOM     42  C   UNL     1     -42.150 106.506  -2.786  0.00  0.00    +0.000 C 
ENDBRANCH  39  40
ENDBRANCH  20  38
BRANCH  25  43
ATOM     43  C   UNL     1     -43.427 102.645   1.958  0.00  0.00    +0.000 C 
BRANCH  43  44
ATOM     44  C   UNL     1     -44.734 103.317   2.399  0.00  0.00    +0.000 C 
ATOM     45  C   UNL     1     -46.042 103.989   2.838  0.00  0.00    +0.000 C 
BRANCH  45  46
ATOM     46  C   UNL     1     -47.146 104.562   3.204  0.00  0.00    +0.000 C 
ATOM     47  C   UNL     1     -47.792 105.568   2.301  0.00  0.00    +0.000 C 
ATOM     48  C   UNL     1     -47.673 104.357   4.590  0.00  0.00    +0.000 C 
ENDBRANCH  45  46
ENDBRANCH  43  44
ENDBRANCH  25  43
TORSDOF 10
ENDMDL
MODEL 3
REMARK VINA RESULT:      -6.6      2.548      9.182
REMARK  Name = 9852185_GambogicAcid.pdbqt.pdb
REMARK  10 active torsions:
REMARK  status: ('A' for Active; 'I' for Inactive)
REMARK    1  A    between atoms: C_8  and  C_30
REMARK    2  A    between atoms: C_20  and  C_38
REMARK    3  A    between atoms: C_21  and  O_28
REMARK    4  A    between atoms: C_25  and  C_43
REMARK    5  A    between atoms: C_31  and  C_32
REMARK    6  A    between atoms: C_32  and  C_35
REMARK    7  A    between atoms: C_35  and  O_36
REMARK    8  A    between atoms: C_39  and  C_40
REMARK    9  A    between atoms: C_43  and  C_44
REMARK   10  A    between atoms: C_45  and  C_46
REMARK                            x       y       z     vdW  Elec       q    Type
REMARK                         _______ _______ _______ _____ _____    ______ ____
ROOT
ATOM      1  O   UNL     1     -31.595  87.332  20.891  0.00  0.00    +0.000 OA
ATOM      2  O   UNL     1     -30.257  87.771  18.378  0.00  0.00    +0.000 OA
ATOM      3  O   UNL     1     -33.903  89.480  21.257  0.00  0.00    +0.000 OA
ATOM      4  O   UNL     1     -30.451  91.497  16.635  0.00  0.00    +0.000 OA
ATOM      5  O   UNL     1     -27.022  86.267  15.237  0.00  0.00    +0.000 OA
ATOM      6  C   UNL     1     -30.866  88.800  19.147  0.00  0.00    +0.000 C 
ATOM      7  C   UNL     1     -30.084  89.109  20.473  0.00  0.00    +0.000 C 
ATOM      8  C   UNL     1     -32.127  88.263  19.935  0.00  0.00    +0.000 C 
ATOM      9  C   UNL     1     -30.304  87.828  21.286  0.00  0.00    +0.000 C 
ATOM     10  C   UNL     1     -30.632  90.355  21.010  0.00  0.00    +0.000 C 
ATOM     11  C   UNL     1     -31.952  90.782  20.577  0.00  0.00    +0.000 C 
ATOM     12  C   UNL     1     -31.212  90.064  18.342  0.00  0.00    +0.000 C 
ATOM     13  C   UNL     1     -32.834  89.505  20.667  0.00  0.00    +0.000 C 
ATOM     14  C   UNL     1     -31.837  91.049  19.167  0.00  0.00    +0.000 C 
ATOM     15  C   UNL     1     -30.338  88.101  22.796  0.00  0.00    +0.000 C 
ATOM     16  C   UNL     1     -29.218  86.794  20.948  0.00  0.00    +0.000 C 
ATOM     17  C   UNL     1     -30.406  90.396  17.169  0.00  0.00    +0.000 C 
ATOM     18  C   UNL     1     -29.479  88.098  17.300  0.00  0.00    +0.000 A 
ATOM     19  C   UNL     1     -29.504  89.350  16.669  0.00  0.00    +0.000 A 
ATOM     20  C   UNL     1     -28.649  87.072  16.799  0.00  0.00    +0.000 A 
ATOM     21  C   UNL     1     -28.686  89.603  15.555  0.00  0.00    +0.000 A 
ATOM     22  C   UNL     1     -27.834  87.312  15.687  0.00  0.00    +0.000 A 
ATOM     23  C   UNL     1     -27.860  88.591  15.076  0.00  0.00    +0.000 A 
ATOM     24  C   UNL     1     -26.996  88.706  13.958  0.00  0.00    +0.000 C 
ATOM     25  C   UNL     1     -26.192  86.432  14.021  0.00  0.00    +0.000 C 
ATOM     26  C   UNL     1     -26.329  87.809  13.545  0.00  0.00    +0.000 C 
ATOM     27  C   UNL     1     -26.710  85.403  12.985  0.00  0.00    +0.000 C 
ENDROOT
BRANCH  21  28
ATOM     28  O   UNL     1     -28.663  90.811  14.911  0.00  0.00    +0.000 OA
ATOM     29  H   UNL     1     -28.712  90.672  13.939  0.00  0.00    +0.000 HD
ENDBRANCH  21  28
BRANCH   8  30
ATOM     30  C   UNL     1     -33.082  87.569  19.059  0.00  0.00    +0.000 C 
ATOM     31  C   UNL     1     -34.057  86.797  18.157  0.00  0.00    +0.000 C 
BRANCH  31  32
ATOM     32  C   UNL     1     -34.845  86.101  17.387  0.00  0.00    +0.000 C 
ATOM     33  C   UNL     1     -36.322  86.223  17.711  0.00  0.00    +0.000 C 
BRANCH  32  35
ATOM     34  O   UNL     1     -34.924  84.757  15.383  0.00  0.00    +0.000 OA
ATOM     35  C   UNL     1     -34.282  85.281  16.280  0.00  0.00    +0.000 C 
BRANCH  35  36
ATOM     36  O   UNL     1     -32.940  85.140  16.321  0.00  0.00    +0.000 OA
ATOM     37  H   UNL     1     -32.724  84.528  15.586  0.00  0.00    +0.000 HD
ENDBRANCH  35  36
ENDBRANCH  32  35
ENDBRANCH  31  32
ENDBRANCH   8  30
BRANCH  20  38
ATOM     38  C   UNL     1     -28.638  85.786  17.433  0.00  0.00    +0.000 C 
ATOM     39  C   UNL     1     -28.618  84.395  18.084  0.00  0.00    +0.000 C 
BRANCH  39  40
ATOM     40  C   UNL     1     -28.590  83.214  18.617  0.00  0.00    +0.000 C 
ATOM     41  C   UNL     1     -28.871  83.062  20.082  0.00  0.00    +0.000 C 
ATOM     42  C   UNL     1     -28.525  82.003  17.738  0.00  0.00    +0.000 C 
ENDBRANCH  39  40
ENDBRANCH  20  38
BRANCH  25  43
ATOM     43  C   UNL     1     -24.801  86.125  14.405  0.00  0.00    +0.000 C 
BRANCH  43  44
ATOM     44  C   UNL     1     -23.356  85.799  14.802  0.00  0.00    +0.000 C 
ATOM     45  C   UNL     1     -21.910  85.472  15.202  0.00  0.00    +0.000 C 
BRANCH  45  46
ATOM     46  C   UNL     1     -20.687  85.204  15.539  0.00  0.00    +0.000 C 
ATOM     47  C   UNL     1     -19.656  86.290  15.504  0.00  0.00    +0.000 C 
ATOM     48  C   UNL     1     -20.271  83.788  15.786  0.00  0.00    +0.000 C 
ENDBRANCH  45  46
ENDBRANCH  43  44
ENDBRANCH  25  43
TORSDOF 10
ENDMDL
MODEL 4
REMARK VINA RESULT:      -6.1      1.985      2.413
REMARK  Name = 9852185_GambogicAcid.pdbqt.pdb
REMARK  10 active torsions:
REMARK  status: ('A' for Active; 'I' for Inactive)
REMARK    1  A    between atoms: C_8  and  C_30
REMARK    2  A    between atoms: C_20  and  C_38
REMARK    3  A    between atoms: C_21  and  O_28
REMARK    4  A    between atoms: C_25  and  C_43
REMARK    5  A    between atoms: C_31  and  C_32
REMARK    6  A    between atoms: C_32  and  C_35
REMARK    7  A    between atoms: C_35  and  O_36
REMARK    8  A    between atoms: C_39  and  C_40
REMARK    9  A    between atoms: C_43  and  C_44
REMARK   10  A    between atoms: C_45  and  C_46
REMARK                            x       y       z     vdW  Elec       q    Type
REMARK                         _______ _______ _______ _____ _____    ______ ____
ROOT
ATOM      1  O   UNL     1     -27.329  83.581  14.388  0.00  0.00    +0.000 OA
ATOM      2  O   UNL     1     -28.594  85.782  15.748  0.00  0.00    +0.000 OA
ATOM      3  O   UNL     1     -24.582  84.546  13.125  0.00  0.00    +0.000 OA
ATOM      4  O   UNL     1     -27.595  89.631  14.678  0.00  0.00    +0.000 OA
ATOM      5  O   UNL     1     -32.164  87.279  18.504  0.00  0.00    +0.000 OA
ATOM      6  C   UNL     1     -27.746  85.926  14.617  0.00  0.00    +0.000 C 
ATOM      7  C   UNL     1     -28.403  85.388  13.295  0.00  0.00    +0.000 C 
ATOM      8  C   UNL     1     -26.622  84.814  14.591  0.00  0.00    +0.000 C 
ATOM      9  C   UNL     1     -28.462  83.879  13.553  0.00  0.00    +0.000 C 
ATOM     10  C   UNL     1     -27.570  85.854  12.186  0.00  0.00    +0.000 C 
ATOM     11  C   UNL     1     -26.199  86.251  12.459  0.00  0.00    +0.000 C 
ATOM     12  C   UNL     1     -27.140  87.331  14.460  0.00  0.00    +0.000 C 
ATOM     13  C   UNL     1     -25.631  85.123  13.366  0.00  0.00    +0.000 C 
ATOM     14  C   UNL     1     -26.285  87.404  13.317  0.00  0.00    +0.000 C 
ATOM     15  C   UNL     1     -28.329  83.066  12.258  0.00  0.00    +0.000 C 
ATOM     16  C   UNL     1     -29.763  83.517  14.286  0.00  0.00    +0.000 C 
ATOM     17  C   UNL     1     -27.878  88.480  14.982  0.00  0.00    +0.000 C 
ATOM     18  C   UNL     1     -29.302  86.860  16.207  0.00  0.00    +0.000 A 
ATOM     19  C   UNL     1     -29.007  88.189  15.875  0.00  0.00    +0.000 A 
ATOM     20  C   UNL     1     -30.358  86.574  17.100  0.00  0.00    +0.000 A 
ATOM     21  C   UNL     1     -29.773  89.242  16.402  0.00  0.00    +0.000 A 
ATOM     22  C   UNL     1     -31.124  87.616  17.634  0.00  0.00    +0.000 A 
ATOM     23  C   UNL     1     -30.821  88.952  17.270  0.00  0.00    +0.000 A 
ATOM     24  C   UNL     1     -31.663  89.914  17.880  0.00  0.00    +0.000 C 
ATOM     25  C   UNL     1     -32.965  88.338  19.163  0.00  0.00    +0.000 C 
ATOM     26  C   UNL     1     -32.528  89.639  18.653  0.00  0.00    +0.000 C 
ATOM     27  C   UNL     1     -32.723  88.199  20.686  0.00  0.00    +0.000 C 
ENDROOT
BRANCH  21  28
ATOM     28  O   UNL     1     -29.535  90.557  16.099  0.00  0.00    +0.000 OA
ATOM     29  H   UNL     1     -29.310  91.053  16.918  0.00  0.00    +0.000 HD
ENDBRANCH  21  28
BRANCH   8  30
ATOM     30  C   UNL     1     -25.874  84.745  15.854  0.00  0.00    +0.000 C 
ATOM     31  C   UNL     1     -25.056  84.638  17.151  0.00  0.00    +0.000 C 
BRANCH  31  32
ATOM     32  C   UNL     1     -24.345  84.497  18.233  0.00  0.00    +0.000 C 
ATOM     33  C   UNL     1     -22.860  84.288  17.997  0.00  0.00    +0.000 C 
BRANCH  32  35
ATOM     34  O   UNL     1     -24.863  83.741  20.467  0.00  0.00    +0.000 OA
ATOM     35  C   UNL     1     -24.991  84.562  19.571  0.00  0.00    +0.000 C 
BRANCH  35  36
ATOM     36  O   UNL     1     -25.776  85.645  19.757  0.00  0.00    +0.000 OA
ATOM     37  H   UNL     1     -25.156  86.385  19.927  0.00  0.00    +0.000 HD
ENDBRANCH  35  36
ENDBRANCH  32  35
ENDBRANCH  31  32
ENDBRANCH   8  30
BRANCH  20  38
ATOM     38  C   UNL     1     -30.647  85.215  17.456  0.00  0.00    +0.000 C 
ATOM     39  C   UNL     1     -30.937  83.750  17.814  0.00  0.00    +0.000 C 
BRANCH  39  40
ATOM     40  C   UNL     1     -31.165  82.507  18.106  0.00  0.00    +0.000 C 
ATOM     41  C   UNL     1     -32.578  82.042  18.286  0.00  0.00    +0.000 C 
ATOM     42  C   UNL     1     -30.053  81.507  18.017  0.00  0.00    +0.000 C 
ENDBRANCH  39  40
ENDBRANCH  20  38
BRANCH  25  43
ATOM     43  C   UNL     1     -34.379  88.073  18.836  0.00  0.00    +0.000 C 
BRANCH  43  44
ATOM     44  C   UNL     1     -35.850  87.805  18.494  0.00  0.00    +0.000 C 
ATOM     45  C   UNL     1     -37.323  87.535  18.152  0.00  0.00    +0.000 C 
BRANCH  45  46
ATOM     46  C   UNL     1     -38.564  87.302  17.859  0.00  0.00    +0.000 C 
ATOM     47  C   UNL     1     -39.462  88.441  17.485  0.00  0.00    +0.000 C 
ATOM     48  C   UNL     1     -39.138  85.935  18.065  0.00  0.00    +0.000 C 
ENDBRANCH  45  46
ENDBRANCH  43  44
ENDBRANCH  25  43
TORSDOF 10
ENDMDL
MODEL 5
REMARK VINA RESULT:      -6.0      3.403      4.403
REMARK  Name = 9852185_GambogicAcid.pdbqt.pdb
REMARK  10 active torsions:
REMARK  status: ('A' for Active; 'I' for Inactive)
REMARK    1  A    between atoms: C_8  and  C_30
REMARK    2  A    between atoms: C_20  and  C_38
REMARK    3  A    between atoms: C_21  and  O_28
REMARK    4  A    between atoms: C_25  and  C_43
REMARK    5  A    between atoms: C_31  and  C_32
REMARK    6  A    between atoms: C_32  and  C_35
REMARK    7  A    between atoms: C_35  and  O_36
REMARK    8  A    between atoms: C_39  and  C_40
REMARK    9  A    between atoms: C_43  and  C_44
REMARK   10  A    between atoms: C_45  and  C_46
REMARK                            x       y       z     vdW  Elec       q    Type
REMARK                         _______ _______ _______ _____ _____    ______ ____
ROOT
ATOM      1  O   UNL     1     -26.831  84.859  15.059  0.00  0.00    +0.000 OA
ATOM      2  O   UNL     1     -29.153  86.052  16.277  0.00  0.00    +0.000 OA
ATOM      3  O   UNL     1     -24.550  87.045  14.749  0.00  0.00    +0.000 OA
ATOM      4  O   UNL     1     -29.670  90.129  16.023  0.00  0.00    +0.000 OA
ATOM      5  O   UNL     1     -33.502  85.426  18.087  0.00  0.00    +0.000 OA
ATOM      6  C   UNL     1     -28.233  86.758  15.455  0.00  0.00    +0.000 C 
ATOM      7  C   UNL     1     -28.316  86.332  13.946  0.00  0.00    +0.000 C 
ATOM      8  C   UNL     1     -26.766  86.186  15.606  0.00  0.00    +0.000 C 
ATOM      9  C   UNL     1     -27.786  84.894  13.985  0.00  0.00    +0.000 C 
ATOM     10  C   UNL     1     -27.549  87.317  13.183  0.00  0.00    +0.000 C 
ATOM     11  C   UNL     1     -26.560  88.124  13.877  0.00  0.00    +0.000 C 
ATOM     12  C   UNL     1     -28.255  88.283  15.653  0.00  0.00    +0.000 C 
ATOM     13  C   UNL     1     -25.769  87.115  14.757  0.00  0.00    +0.000 C 
ATOM     14  C   UNL     1     -27.297  88.930  14.815  0.00  0.00    +0.000 C 
ATOM     15  C   UNL     1     -27.061  84.511  12.687  0.00  0.00    +0.000 C 
ATOM     16  C   UNL     1     -28.934  83.914  14.271  0.00  0.00    +0.000 C 
ATOM     17  C   UNL     1     -29.498  88.919  16.088  0.00  0.00    +0.000 C 
ATOM     18  C   UNL     1     -30.326  86.649  16.651  0.00  0.00    +0.000 A 
ATOM     19  C   UNL     1     -30.556  88.030  16.585  0.00  0.00    +0.000 A 
ATOM     20  C   UNL     1     -31.322  85.792  17.168  0.00  0.00    +0.000 A 
ATOM     21  C   UNL     1     -31.785  88.569  17.004  0.00  0.00    +0.000 A 
ATOM     22  C   UNL     1     -32.546  86.318  17.593  0.00  0.00    +0.000 A 
ATOM     23  C   UNL     1     -32.766  87.716  17.500  0.00  0.00    +0.000 A 
ATOM     24  C   UNL     1     -34.040  88.125  17.966  0.00  0.00    +0.000 C 
ATOM     25  C   UNL     1     -34.790  85.927  18.622  0.00  0.00    +0.000 C 
ATOM     26  C   UNL     1     -34.847  87.377  18.424  0.00  0.00    +0.000 C 
ATOM     27  C   UNL     1     -34.829  85.543  20.123  0.00  0.00    +0.000 C 
ENDROOT
BRANCH  21  28
ATOM     28  O   UNL     1     -32.064  89.908  16.948  0.00  0.00    +0.000 OA
ATOM     29  H   UNL     1     -31.316  90.422  17.328  0.00  0.00    +0.000 HD
ENDBRANCH  21  28
BRANCH   8  30
ATOM     30  C   UNL     1     -26.334  86.114  17.009  0.00  0.00    +0.000 C 
ATOM     31  C   UNL     1     -25.903  85.989  18.479  0.00  0.00    +0.000 C 
BRANCH  31  32
ATOM     32  C   UNL     1     -25.578  85.844  19.732  0.00  0.00    +0.000 C 
ATOM     33  C   UNL     1     -24.087  85.760  19.999  0.00  0.00    +0.000 C 
BRANCH  32  35
ATOM     34  O   UNL     1     -26.456  85.511  21.957  0.00  0.00    +0.000 OA
ATOM     35  C   UNL     1     -26.633  85.788  20.780  0.00  0.00    +0.000 C 
BRANCH  35  36
ATOM     36  O   UNL     1     -27.874  86.080  20.334  0.00  0.00    +0.000 OA
ATOM     37  H   UNL     1     -28.065  86.979  20.677  0.00  0.00    +0.000 HD
ENDBRANCH  35  36
ENDBRANCH  32  35
ENDBRANCH  31  32
ENDBRANCH   8  30
BRANCH  20  38
ATOM     38  C   UNL     1     -31.078  84.381  17.254  0.00  0.00    +0.000 C 
ATOM     39  C   UNL     1     -30.823  82.872  17.377  0.00  0.00    +0.000 C 
BRANCH  39  40
ATOM     40  C   UNL     1     -30.614  81.598  17.500  0.00  0.00    +0.000 C 
ATOM     41  C   UNL     1     -30.420  80.763  16.271  0.00  0.00    +0.000 C 
ATOM     42  C   UNL     1     -30.327  81.019  18.852  0.00  0.00    +0.000 C 
ENDBRANCH  39  40
ENDBRANCH  20  38
BRANCH  25  43
ATOM     43  C   UNL     1     -35.862  85.235  17.882  0.00  0.00    +0.000 C 
BRANCH  43  44
ATOM     44  C   UNL     1     -36.976  84.521  17.107  0.00  0.00    +0.000 C 
ATOM     45  C   UNL     1     -38.093  83.808  16.331  0.00  0.00    +0.000 C 
BRANCH  45  46
ATOM     46  C   UNL     1     -39.039  83.203  15.683  0.00  0.00    +0.000 C 
ATOM     47  C   UNL     1     -38.761  82.638  14.324  0.00  0.00    +0.000 C 
ATOM     48  C   UNL     1     -40.441  83.225  16.209  0.00  0.00    +0.000 C 
ENDBRANCH  45  46
ENDBRANCH  43  44
ENDBRANCH  25  43
TORSDOF 10
ENDMDL
MODEL 6
REMARK VINA RESULT:      -5.9     21.436     24.630
REMARK  Name = 9852185_GambogicAcid.pdbqt.pdb
REMARK  10 active torsions:
REMARK  status: ('A' for Active; 'I' for Inactive)
REMARK    1  A    between atoms: C_8  and  C_30
REMARK    2  A    between atoms: C_20  and  C_38
REMARK    3  A    between atoms: C_21  and  O_28
REMARK    4  A    between atoms: C_25  and  C_43
REMARK    5  A    between atoms: C_31  and  C_32
REMARK    6  A    between atoms: C_32  and  C_35
REMARK    7  A    between atoms: C_35  and  O_36
REMARK    8  A    between atoms: C_39  and  C_40
REMARK    9  A    between atoms: C_43  and  C_44
REMARK   10  A    between atoms: C_45  and  C_46
REMARK                            x       y       z     vdW  Elec       q    Type
REMARK                         _______ _______ _______ _____ _____    ______ ____
ROOT
ATOM      1  O   UNL     1     -18.399  90.012  -6.723  0.00  0.00    +0.000 OA
ATOM      2  O   UNL     1     -21.076  89.618  -5.737  0.00  0.00    +0.000 OA
ATOM      3  O   UNL     1     -17.392  92.917  -5.936  0.00  0.00    +0.000 OA
ATOM      4  O   UNL     1     -23.425  92.910  -4.962  0.00  0.00    +0.000 OA
ATOM      5  O   UNL     1     -24.727  86.638  -5.119  0.00  0.00    +0.000 OA
ATOM      6  C   UNL     1     -20.547  90.879  -6.122  0.00  0.00    +0.000 C 
ATOM      7  C   UNL     1     -20.332  90.999  -7.673  0.00  0.00    +0.000 C 
ATOM      8  C   UNL     1     -18.995  90.967  -5.831  0.00  0.00    +0.000 C 
ATOM      9  C   UNL     1     -19.194  90.003  -7.921  0.00  0.00    +0.000 C 
ATOM     10  C   UNL     1     -20.071  92.411  -7.958  0.00  0.00    +0.000 C 
ATOM     11  C   UNL     1     -19.617  93.270  -6.878  0.00  0.00    +0.000 C 
ATOM     12  C   UNL     1     -21.292  92.083  -5.521  0.00  0.00    +0.000 C 
ATOM     13  C   UNL     1     -18.500  92.458  -6.164  0.00  0.00    +0.000 C 
ATOM     14  C   UNL     1     -20.700  93.317  -5.930  0.00  0.00    +0.000 C 
ATOM     15  C   UNL     1     -18.298  90.429  -9.093  0.00  0.00    +0.000 C 
ATOM     16  C   UNL     1     -19.765  88.596  -8.161  0.00  0.00    +0.000 C 
ATOM     17  C   UNL     1     -22.711  91.944  -5.198  0.00  0.00    +0.000 C 
ATOM     18  C   UNL     1     -22.413  89.496  -5.468  0.00  0.00    +0.000 A 
ATOM     19  C   UNL     1     -23.258  90.581  -5.197  0.00  0.00    +0.000 A 
ATOM     20  C   UNL     1     -22.921  88.179  -5.426  0.00  0.00    +0.000 A 
ATOM     21  C   UNL     1     -24.618  90.372  -4.913  0.00  0.00    +0.000 A 
ATOM     22  C   UNL     1     -24.272  87.959  -5.138  0.00  0.00    +0.000 A 
ATOM     23  C   UNL     1     -25.114  89.072  -4.887  0.00  0.00    +0.000 A 
ATOM     24  C   UNL     1     -26.457  88.719  -4.603  0.00  0.00    +0.000 C 
ATOM     25  C   UNL     1     -26.129  86.332  -4.748  0.00  0.00    +0.000 C 
ATOM     26  C   UNL     1     -26.845  87.593  -4.548  0.00  0.00    +0.000 C 
ATOM     27  C   UNL     1     -26.073  85.483  -3.454  0.00  0.00    +0.000 C 
ENDROOT
BRANCH  21  28
ATOM     28  O   UNL     1     -25.488  91.398  -4.655  0.00  0.00    +0.000 OA
ATOM     29  H   UNL     1     -26.386  91.038  -4.479  0.00  0.00    +0.000 HD
ENDBRANCH  21  28
BRANCH   8  30
ATOM     30  C   UNL     1     -18.664  90.612  -4.444  0.00  0.00    +0.000 C 
ATOM     31  C   UNL     1     -18.265  90.253  -3.004  0.00  0.00    +0.000 C 
BRANCH  31  32
ATOM     32  C   UNL     1     -17.874  89.938  -1.802  0.00  0.00    +0.000 C 
ATOM     33  C   UNL     1     -17.937  88.457  -1.479  0.00  0.00    +0.000 C 
BRANCH  32  35
ATOM     34  O   UNL     1     -16.345  90.972  -0.245  0.00  0.00    +0.000 OA
ATOM     35  C   UNL     1     -17.397  90.993  -0.866  0.00  0.00    +0.000 C 
BRANCH  35  36
ATOM     36  O   UNL     1     -18.240  92.039  -0.732  0.00  0.00    +0.000 OA
ATOM     37  H   UNL     1     -19.132  91.641  -0.651  0.00  0.00    +0.000 HD
ENDBRANCH  35  36
ENDBRANCH  32  35
ENDBRANCH  31  32
ENDBRANCH   8  30
BRANCH  20  38
ATOM     38  C   UNL     1     -22.051  87.068  -5.682  0.00  0.00    +0.000 C 
ATOM     39  C   UNL     1     -21.105  85.895  -5.978  0.00  0.00    +0.000 C 
BRANCH  39  40
ATOM     40  C   UNL     1     -20.294  84.918  -6.239  0.00  0.00    +0.000 C 
ATOM     41  C   UNL     1     -20.439  83.624  -5.495  0.00  0.00    +0.000 C 
ATOM     42  C   UNL     1     -19.392  84.998  -7.433  0.00  0.00    +0.000 C 
ENDBRANCH  39  40
ENDBRANCH  20  38
BRANCH  25  43
ATOM     43  C   UNL     1     -26.706  85.549  -5.858  0.00  0.00    +0.000 C 
BRANCH  43  44
ATOM     44  C   UNL     1     -27.298  84.735  -7.014  0.00  0.00    +0.000 C 
ATOM     45  C   UNL     1     -27.891  83.920  -8.174  0.00  0.00    +0.000 C 
BRANCH  45  46
ATOM     46  C   UNL     1     -28.396  83.238  -9.153  0.00  0.00    +0.000 C 
ATOM     47  C   UNL     1     -27.561  82.951 -10.363  0.00  0.00    +0.000 C 
ATOM     48  C   UNL     1     -29.853  82.895  -9.154  0.00  0.00    +0.000 C 
ENDBRANCH  45  46
ENDBRANCH  43  44
ENDBRANCH  25  43
TORSDOF 10
ENDMDL
MODEL 7
REMARK VINA RESULT:      -5.6     22.151     25.339
REMARK  Name = 9852185_GambogicAcid.pdbqt.pdb
REMARK  10 active torsions:
REMARK  status: ('A' for Active; 'I' for Inactive)
REMARK    1  A    between atoms: C_8  and  C_30
REMARK    2  A    between atoms: C_20  and  C_38
REMARK    3  A    between atoms: C_21  and  O_28
REMARK    4  A    between atoms: C_25  and  C_43
REMARK    5  A    between atoms: C_31  and  C_32
REMARK    6  A    between atoms: C_32  and  C_35
REMARK    7  A    between atoms: C_35  and  O_36
REMARK    8  A    between atoms: C_39  and  C_40
REMARK    9  A    between atoms: C_43  and  C_44
REMARK   10  A    between atoms: C_45  and  C_46
REMARK                            x       y       z     vdW  Elec       q    Type
REMARK                         _______ _______ _______ _____ _____    ______ ____
ROOT
ATOM      1  O   UNL     1     -39.743 104.718   3.927  0.00  0.00    +0.000 OA
ATOM      2  O   UNL     1     -42.352 103.843   4.780  0.00  0.00    +0.000 OA
ATOM      3  O   UNL     1     -39.303 103.942   0.881  0.00  0.00    +0.000 OA
ATOM      4  O   UNL     1     -44.208 100.797   2.723  0.00  0.00    +0.000 OA
ATOM      5  O   UNL     1     -45.641 103.781   8.209  0.00  0.00    +0.000 OA
ATOM      6  C   UNL     1     -41.582 103.194   3.778  0.00  0.00    +0.000 C 
ATOM      7  C   UNL     1     -40.321 102.461   4.361  0.00  0.00    +0.000 C 
ATOM      8  C   UNL     1     -40.695 104.225   2.971  0.00  0.00    +0.000 C 
ATOM      9  C   UNL     1     -39.451 103.634   4.826  0.00  0.00    +0.000 C 
ATOM     10  C   UNL     1     -39.794 101.607   3.295  0.00  0.00    +0.000 C 
ATOM     11  C   UNL     1     -40.155 101.903   1.919  0.00  0.00    +0.000 C 
ATOM     12  C   UNL     1     -42.406 102.309   2.826  0.00  0.00    +0.000 C 
ATOM     13  C   UNL     1     -39.962 103.439   1.777  0.00  0.00    +0.000 C 
ATOM     14  C   UNL     1     -41.578 101.702   1.833  0.00  0.00    +0.000 C 
ATOM     15  C   UNL     1     -37.952 103.318   4.724  0.00  0.00    +0.000 C 
ATOM     16  C   UNL     1     -39.822 104.030   6.264  0.00  0.00    +0.000 C 
ATOM     17  C   UNL     1     -43.640 101.702   3.321  0.00  0.00    +0.000 C 
ATOM     18  C   UNL     1     -43.489 103.248   5.255  0.00  0.00    +0.000 A 
ATOM     19  C   UNL     1     -44.161 102.208   4.597  0.00  0.00    +0.000 A 
ATOM     20  C   UNL     1     -44.007 103.770   6.460  0.00  0.00    +0.000 A 
ATOM     21  C   UNL     1     -45.334 101.660   5.143  0.00  0.00    +0.000 A 
ATOM     22  C   UNL     1     -45.177 103.235   7.010  0.00  0.00    +0.000 A 
ATOM     23  C   UNL     1     -45.830 102.171   6.339  0.00  0.00    +0.000 A 
ATOM     24  C   UNL     1     -47.005 101.721   6.991  0.00  0.00    +0.000 C 
ATOM     25  C   UNL     1     -46.915 103.310   8.805  0.00  0.00    +0.000 C 
ATOM     26  C   UNL     1     -47.429 102.205   7.994  0.00  0.00    +0.000 C 
ATOM     27  C   UNL     1     -47.878 104.523   8.814  0.00  0.00    +0.000 C 
ENDROOT
BRANCH  21  28
ATOM     28  O   UNL     1     -46.020 100.635   4.547  0.00  0.00    +0.000 OA
ATOM     29  H   UNL     1     -45.826  99.789   5.010  0.00  0.00    +0.000 HD
ENDBRANCH  21  28
BRANCH   8  30
ATOM     30  C   UNL     1     -41.482 105.348   2.442  0.00  0.00    +0.000 C 
ATOM     31  C   UNL     1     -42.350 106.493   1.899  0.00  0.00    +0.000 C 
BRANCH  31  32
ATOM     32  C   UNL     1     -43.127 107.426   1.427  0.00  0.00    +0.000 C 
ATOM     33  C   UNL     1     -42.727 107.958   0.063  0.00  0.00    +0.000 C 
BRANCH  32  35
ATOM     34  O   UNL     1     -45.452 107.976   1.776  0.00  0.00    +0.000 OA
ATOM     35  C   UNL     1     -44.311 107.883   2.203  0.00  0.00    +0.000 C 
BRANCH  35  36
ATOM     36  O   UNL     1     -44.042 108.209   3.486  0.00  0.00    +0.000 OA
ATOM     37  H   UNL     1     -44.287 109.155   3.567  0.00  0.00    +0.000 HD
ENDBRANCH  35  36
ENDBRANCH  32  35
ENDBRANCH  31  32
ENDBRANCH   8  30
BRANCH  20  38
ATOM     38  C   UNL     1     -43.330 104.848   7.123  0.00  0.00    +0.000 C 
ATOM     39  C   UNL     1     -42.586 106.004   7.807  0.00  0.00    +0.000 C 
BRANCH  39  40
ATOM     40  C   UNL     1     -41.949 106.985   8.367  0.00  0.00    +0.000 C 
ATOM     41  C   UNL     1     -40.563 106.757   8.890  0.00  0.00    +0.000 C 
ATOM     42  C   UNL     1     -42.492 108.377   8.267  0.00  0.00    +0.000 C 
ENDBRANCH  39  40
ENDBRANCH  20  38
BRANCH  25  43
ATOM     43  C   UNL     1     -46.611 102.878  10.182  0.00  0.00    +0.000 C 
BRANCH  43  44
ATOM     44  C   UNL     1     -46.290 102.435  11.615  0.00  0.00    +0.000 C 
ATOM     45  C   UNL     1     -45.970 101.990  13.049  0.00  0.00    +0.000 C 
BRANCH  45  46
ATOM     46  C   UNL     1     -45.705 101.619  14.263  0.00  0.00    +0.000 C 
ATOM     47  C   UNL     1     -44.508 102.184  14.965  0.00  0.00    +0.000 C 
ATOM     48  C   UNL     1     -46.482 100.505  14.892  0.00  0.00    +0.000 C 
ENDBRANCH  45  46
ENDBRANCH  43  44
ENDBRANCH  25  43
TORSDOF 10
ENDMDL
MODEL 8
REMARK VINA RESULT:      -5.5     21.828     25.203
REMARK  Name = 9852185_GambogicAcid.pdbqt.pdb
REMARK  10 active torsions:
REMARK  status: ('A' for Active; 'I' for Inactive)
REMARK    1  A    between atoms: C_8  and  C_30
REMARK    2  A    between atoms: C_20  and  C_38
REMARK    3  A    between atoms: C_21  and  O_28
REMARK    4  A    between atoms: C_25  and  C_43
REMARK    5  A    between atoms: C_31  and  C_32
REMARK    6  A    between atoms: C_32  and  C_35
REMARK    7  A    between atoms: C_35  and  O_36
REMARK    8  A    between atoms: C_39  and  C_40
REMARK    9  A    between atoms: C_43  and  C_44
REMARK   10  A    between atoms: C_45  and  C_46
REMARK                            x       y       z     vdW  Elec       q    Type
REMARK                         _______ _______ _______ _____ _____    ______ ____
ROOT
ATOM      1  O   UNL     1     -25.222  85.046  -5.915  0.00  0.00    +0.000 OA
ATOM      2  O   UNL     1     -23.810  87.557  -5.887  0.00  0.00    +0.000 OA
ATOM      3  O   UNL     1     -28.313  85.569  -6.411  0.00  0.00    +0.000 OA
ATOM      4  O   UNL     1     -25.889  91.008  -5.040  0.00  0.00    +0.000 OA
ATOM      5  O   UNL     1     -19.629  89.808  -5.690  0.00  0.00    +0.000 OA
ATOM      6  C   UNL     1     -25.162  87.399  -5.480  0.00  0.00    +0.000 C 
ATOM      7  C   UNL     1     -25.301  86.605  -4.132  0.00  0.00    +0.000 C 
ATOM      8  C   UNL     1     -25.884  86.259  -6.305  0.00  0.00    +0.000 C 
ATOM      9  C   UNL     1     -24.845  85.198  -4.536  0.00  0.00    +0.000 C 
ATOM     10  C   UNL     1     -26.685  86.766  -3.684  0.00  0.00    +0.000 C 
ATOM     11  C   UNL     1     -27.695  87.150  -4.655  0.00  0.00    +0.000 C 
ATOM     12  C   UNL     1     -25.981  88.701  -5.499  0.00  0.00    +0.000 C 
ATOM     13  C   UNL     1     -27.435  86.233  -5.884  0.00  0.00    +0.000 C 
ATOM     14  C   UNL     1     -27.333  88.471  -5.099  0.00  0.00    +0.000 C 
ATOM     15  C   UNL     1     -25.554  84.106  -3.723  0.00  0.00    +0.000 C 
ATOM     16  C   UNL     1     -23.320  85.075  -4.391  0.00  0.00    +0.000 C 
ATOM     17  C   UNL     1     -25.289  89.972  -5.290  0.00  0.00    +0.000 C 
ATOM     18  C   UNL     1     -23.166  88.742  -5.657  0.00  0.00    +0.000 A 
ATOM     19  C   UNL     1     -23.823  89.946  -5.364  0.00  0.00    +0.000 A 
ATOM     20  C   UNL     1     -21.759  88.717  -5.773  0.00  0.00    +0.000 A 
ATOM     21  C   UNL     1     -23.089  91.126  -5.156  0.00  0.00    +0.000 A 
ATOM     22  C   UNL     1     -21.019  89.888  -5.574  0.00  0.00    +0.000 A 
ATOM     23  C   UNL     1     -21.702  91.090  -5.259  0.00  0.00    +0.000 A 
ATOM     24  C   UNL     1     -20.844  92.205  -5.087  0.00  0.00    +0.000 C 
ATOM     25  C   UNL     1     -18.793  91.026  -5.564  0.00  0.00    +0.000 C 
ATOM     26  C   UNL     1     -19.661  92.154  -5.221  0.00  0.00    +0.000 C 
ATOM     27  C   UNL     1     -18.090  91.226  -6.930  0.00  0.00    +0.000 C 
ENDROOT
BRANCH  21  28
ATOM     28  O   UNL     1     -23.681  92.323  -4.855  0.00  0.00    +0.000 OA
ATOM     29  H   UNL     1     -23.491  92.978  -5.565  0.00  0.00    +0.000 HD
ENDBRANCH  21  28
BRANCH   8  30
ATOM     30  C   UNL     1     -25.748  86.446  -7.756  0.00  0.00    +0.000 C 
ATOM     31  C   UNL     1     -25.603  86.694  -9.265  0.00  0.00    +0.000 C 
BRANCH  31  32
ATOM     32  C   UNL     1     -25.502  86.957 -10.538  0.00  0.00    +0.000 C 
ATOM     33  C   UNL     1     -24.100  86.828 -11.106  0.00  0.00    +0.000 C 
BRANCH  32  35
ATOM     34  O   UNL     1     -27.857  87.007 -11.067  0.00  0.00    +0.000 OA
ATOM     35  C   UNL     1     -26.707  87.331 -11.325  0.00  0.00    +0.000 C 
BRANCH  35  36
ATOM     36  O   UNL     1     -26.448  88.098 -12.406  0.00  0.00    +0.000 OA
ATOM     37  H   UNL     1     -25.864  87.551 -12.974  0.00  0.00    +0.000 HD
ENDBRANCH  35  36
ENDBRANCH  32  35
ENDBRANCH  31  32
ENDBRANCH   8  30
BRANCH  20  38
ATOM     38  C   UNL     1     -21.088  87.490  -6.093  0.00  0.00    +0.000 C 
ATOM     39  C   UNL     1     -20.394  86.161  -6.421  0.00  0.00    +0.000 C 
BRANCH  39  40
ATOM     40  C   UNL     1     -19.825  85.028  -6.694  0.00  0.00    +0.000 C 
ATOM     41  C   UNL     1     -20.668  83.794  -6.820  0.00  0.00    +0.000 C 
ATOM     42  C   UNL     1     -18.389  85.000  -7.120  0.00  0.00    +0.000 C 
ENDBRANCH  39  40
ENDBRANCH  20  38
BRANCH  25  43
ATOM     43  C   UNL     1     -17.802  90.759  -4.504  0.00  0.00    +0.000 C 
BRANCH  43  44
ATOM     44  C   UNL     1     -16.769  90.490  -3.403  0.00  0.00    +0.000 C 
ATOM     45  C   UNL     1     -15.736  90.222  -2.299  0.00  0.00    +0.000 C 
BRANCH  45  46
ATOM     46  C   UNL     1     -14.862  90.002  -1.368  0.00  0.00    +0.000 C 
ATOM     47  C   UNL     1     -14.166  88.677  -1.304  0.00  0.00    +0.000 C 
ATOM     48  C   UNL     1     -14.679  90.995  -0.262  0.00  0.00    +0.000 C 
ENDBRANCH  45  46
ENDBRANCH  43  44
ENDBRANCH  25  43
TORSDOF 10
ENDMDL
MODEL 9
REMARK VINA RESULT:      -5.5     11.362     16.644
REMARK  Name = 9852185_GambogicAcid.pdbqt.pdb
REMARK  10 active torsions:
REMARK  status: ('A' for Active; 'I' for Inactive)
REMARK    1  A    between atoms: C_8  and  C_30
REMARK    2  A    between atoms: C_20  and  C_38
REMARK    3  A    between atoms: C_21  and  O_28
REMARK    4  A    between atoms: C_25  and  C_43
REMARK    5  A    between atoms: C_31  and  C_32
REMARK    6  A    between atoms: C_32  and  C_35
REMARK    7  A    between atoms: C_35  and  O_36
REMARK    8  A    between atoms: C_39  and  C_40
REMARK    9  A    between atoms: C_43  and  C_44
REMARK   10  A    between atoms: C_45  and  C_46
REMARK                            x       y       z     vdW  Elec       q    Type
REMARK                         _______ _______ _______ _____ _____    ______ ____
ROOT
ATOM      1  O   UNL     1     -37.361 100.642  19.273  0.00  0.00    +0.000 OA
ATOM      2  O   UNL     1     -35.043 100.727  17.565  0.00  0.00    +0.000 OA
ATOM      3  O   UNL     1     -39.483  98.601  18.086  0.00  0.00    +0.000 OA
ATOM      4  O   UNL     1     -35.418  99.578  13.629  0.00  0.00    +0.000 OA
ATOM      5  O   UNL     1     -30.635 102.358  16.861  0.00  0.00    +0.000 OA
ATOM      6  C   UNL     1     -36.360 100.454  17.107  0.00  0.00    +0.000 C 
ATOM      7  C   UNL     1     -37.295 101.715  17.162  0.00  0.00    +0.000 C 
ATOM      8  C   UNL     1     -37.208  99.694  18.205  0.00  0.00    +0.000 C 
ATOM      9  C   UNL     1     -37.443 101.944  18.670  0.00  0.00    +0.000 C 
ATOM     10  C   UNL     1     -38.503 101.382  16.405  0.00  0.00    +0.000 C 
ATOM     11  C   UNL     1     -38.826  99.983  16.183  0.00  0.00    +0.000 C 
ATOM     12  C   UNL     1     -36.417  99.719  15.757  0.00  0.00    +0.000 C 
ATOM     13  C   UNL     1     -38.630  99.303  17.568  0.00  0.00    +0.000 C 
ATOM     14  C   UNL     1     -37.765  99.458  15.363  0.00  0.00    +0.000 C 
ATOM     15  C   UNL     1     -38.805 102.554  19.030  0.00  0.00    +0.000 C 
ATOM     16  C   UNL     1     -36.300 102.834  19.184  0.00  0.00    +0.000 C 
ATOM     17  C   UNL     1     -35.327  99.915  14.802  0.00  0.00    +0.000 C 
ATOM     18  C   UNL     1     -34.039 100.939  16.659  0.00  0.00    +0.000 A 
ATOM     19  C   UNL     1     -34.114 100.569  15.309  0.00  0.00    +0.000 A 
ATOM     20  C   UNL     1     -32.860 101.527  17.165  0.00  0.00    +0.000 A 
ATOM     21  C   UNL     1     -33.032 100.806  14.444  0.00  0.00    +0.000 A 
ATOM     22  C   UNL     1     -31.775 101.763  16.314  0.00  0.00    +0.000 A 
ATOM     23  C   UNL     1     -31.878 101.399  14.947  0.00  0.00    +0.000 A 
ATOM     24  C   UNL     1     -30.713 101.684  14.192  0.00  0.00    +0.000 C 
ATOM     25  C   UNL     1     -29.425 102.566  16.031  0.00  0.00    +0.000 C 
ATOM     26  C   UNL     1     -29.723 102.156  14.658  0.00  0.00    +0.000 C 
ATOM     27  C   UNL     1     -28.298 101.711  16.663  0.00  0.00    +0.000 C 
ENDROOT
BRANCH  21  28
ATOM     28  O   UNL     1     -33.059 100.476  13.115  0.00  0.00    +0.000 OA
ATOM     29  H   UNL     1     -32.920  99.508  13.009  0.00  0.00    +0.000 HD
ENDBRANCH  21  28
BRANCH   8  30
ATOM     30  C   UNL     1     -36.524  98.495  18.711  0.00  0.00    +0.000 C 
ATOM     31  C   UNL     1     -35.767  97.274  19.255  0.00  0.00    +0.000 C 
BRANCH  31  32
ATOM     32  C   UNL     1     -35.076  96.266  19.708  0.00  0.00    +0.000 C 
ATOM     33  C   UNL     1     -35.655  95.601  20.943  0.00  0.00    +0.000 C 
BRANCH  32  35
ATOM     34  O   UNL     1     -32.734  95.705  19.537  0.00  0.00    +0.000 OA
ATOM     35  C   UNL     1     -33.831  95.836  19.016  0.00  0.00    +0.000 C 
BRANCH  35  36
ATOM     36  O   UNL     1     -33.988  95.582  17.699  0.00  0.00    +0.000 OA
ATOM     37  H   UNL     1     -34.547  96.313  17.361  0.00  0.00    +0.000 HD
ENDBRANCH  35  36
ENDBRANCH  32  35
ENDBRANCH  31  32
ENDBRANCH   8  30
BRANCH  20  38
ATOM     38  C   UNL     1     -32.777 101.887  18.551  0.00  0.00    +0.000 C 
ATOM     39  C   UNL     1     -32.718 102.268  20.037  0.00  0.00    +0.000 C 
BRANCH  39  40
ATOM     40  C   UNL     1     -32.689 102.583  21.295  0.00  0.00    +0.000 C 
ATOM     41  C   UNL     1     -31.561 102.089  22.150  0.00  0.00    +0.000 C 
ATOM     42  C   UNL     1     -33.628 103.623  21.823  0.00  0.00    +0.000 C 
ENDBRANCH  39  40
ENDBRANCH  20  38
BRANCH  25  43
ATOM     43  C   UNL     1     -29.092 104.001  16.110  0.00  0.00    +0.000 C 
BRANCH  43  44
ATOM     44  C   UNL     1     -28.743 105.492  16.199  0.00  0.00    +0.000 C 
ATOM     45  C   UNL     1     -28.393 106.985  16.291  0.00  0.00    +0.000 C 
BRANCH  45  46
ATOM     46  C   UNL     1     -28.106 108.246  16.371  0.00  0.00    +0.000 C 
ATOM     47  C   UNL     1     -28.506 109.168  15.260  0.00  0.00    +0.000 C 
ATOM     48  C   UNL     1     -27.226 108.745  17.475  0.00  0.00    +0.000 C 
ENDBRANCH  45  46
ENDBRANCH  43  44
ENDBRANCH  25  43
TORSDOF 10
ENDMDL
