MODEL 1
REMARK VINA RESULT:      -7.7      0.000      0.000
REMARK  Name = AFLATOXIN.pdbqt.pdb
REMARK  1 active torsions:
REMARK  status: ('A' for Active; 'I' for Inactive)
REMARK    1  A    between atoms: C_15  and  O_23
REMARK                            x       y       z     vdW  Elec       q    Type
REMARK                         _______ _______ _______ _____ _____    ______ ____
ROOT
ATOM      1  O   UNL     1     -29.851  99.579  16.321  0.00  0.00    +0.000 OA
ATOM      2  O   UNL     1     -28.555 101.568  15.636  0.00  0.00    +0.000 OA
ATOM      3  O   UNL     1     -33.269 100.857  13.345  0.00  0.00    +0.000 OA
ATOM      4  O   UNL     1     -38.086  99.625  13.730  0.00  0.00    +0.000 OA
ATOM      5  O   UNL     1     -34.742 101.416  11.735  0.00  0.00    +0.000 OA
ATOM      6  O   UNL     1     -37.342 100.953  12.074  0.00  0.00    +0.000 OA
ATOM      7  C   UNL     1     -30.402 100.807  14.411  0.00  0.00    +0.000 C 
ATOM      8  C   UNL     1     -31.596 100.134  14.880  0.00  0.00    +0.000 A 
ATOM      9  C   UNL     1     -29.314 100.420  15.341  0.00  0.00    +0.000 C 
ATOM     10  C   UNL     1     -31.186  99.398  15.997  0.00  0.00    +0.000 A 
ATOM     11  C   UNL     1     -32.918 100.115  14.475  0.00  0.00    +0.000 A 
ATOM     12  C   UNL     1     -33.861  99.358  15.168  0.00  0.00    +0.000 A 
ATOM     13  C   UNL     1     -30.210 102.186  14.137  0.00  0.00    +0.000 C 
ATOM     14  C   UNL     1     -35.252  99.444  14.689  0.00  0.00    +0.000 A 
ATOM     15  C   UNL     1     -33.407  98.585  16.274  0.00  0.00    +0.000 A 
ATOM     16  C   UNL     1     -32.070  98.626  16.715  0.00  0.00    +0.000 A 
ATOM     17  C   UNL     1     -36.316  98.814  15.373  0.00  0.00    +0.000 A 
ATOM     18  C   UNL     1     -35.607 100.150  13.575  0.00  0.00    +0.000 A 
ATOM     19  C   UNL     1     -29.246 102.366  14.822  0.00  0.00    +0.000 C 
ATOM     20  C   UNL     1     -37.662  98.976  14.789  0.00  0.00    +0.000 A 
ATOM     21  C   UNL     1     -34.547 100.851  12.801  0.00  0.00    +0.000 A 
ATOM     22  C   UNL     1     -37.060 100.278  13.057  0.00  0.00    +0.000 A 
ENDROOT
BRANCH  15  23
ATOM     23  O   UNL     1     -34.287  97.829  17.018  0.00  0.00    +0.000 OA
ATOM     24  C   UNL     1     -33.804  97.642  18.324  0.00  0.00    +0.000 C 
ENDBRANCH  15  23
TORSDOF 1
ENDMDL
MODEL 2
REMARK VINA RESULT:      -7.5      1.756      6.460
REMARK  Name = AFLATOXIN.pdbqt.pdb
REMARK  1 active torsions:
REMARK  status: ('A' for Active; 'I' for Inactive)
REMARK    1  A    between atoms: C_15  and  O_23
REMARK                            x       y       z     vdW  Elec       q    Type
REMARK                         _______ _______ _______ _____ _____    ______ ____
ROOT
ATOM      1  O   UNL     1     -34.004 101.541  12.865  0.00  0.00    +0.000 OA
ATOM      2  O   UNL     1     -36.461 101.443  13.115  0.00  0.00    +0.000 OA
ATOM      3  O   UNL     1     -33.595  98.216  16.175  0.00  0.00    +0.000 OA
ATOM      4  O   UNL     1     -29.622  97.481  19.097  0.00  0.00    +0.000 OA
ATOM      5  O   UNL     1     -33.504  96.467  17.591  0.00  0.00    +0.000 OA
ATOM      6  O   UNL     1     -31.479  96.230  19.304  0.00  0.00    +0.000 OA
ATOM      7  C   UNL     1     -35.055  99.783  13.991  0.00  0.00    +0.000 C 
ATOM      8  C   UNL     1     -33.702  99.904  14.496  0.00  0.00    +0.000 A 
ATOM      9  C   UNL     1     -35.205 100.829  12.949  0.00  0.00    +0.000 C 
ATOM     10  C   UNL     1     -33.129 100.946  13.759  0.00  0.00    +0.000 A 
ATOM     11  C   UNL     1     -32.977  99.259  15.480  0.00  0.00    +0.000 A 
ATOM     12  C   UNL     1     -31.660  99.630  15.749  0.00  0.00    +0.000 A 
ATOM     13  C   UNL     1     -36.276  99.776  14.714  0.00  0.00    +0.000 C 
ATOM     14  C   UNL     1     -30.989  98.917  16.850  0.00  0.00    +0.000 A 
ATOM     15  C   UNL     1     -31.089 100.664  14.955  0.00  0.00    +0.000 A 
ATOM     16  C   UNL     1     -31.831 101.350  13.975  0.00  0.00    +0.000 A 
ATOM     17  C   UNL     1     -29.696  99.277  17.292  0.00  0.00    +0.000 A 
ATOM     18  C   UNL     1     -31.574  97.884  17.525  0.00  0.00    +0.000 A 
ATOM     19  C   UNL     1     -36.835 100.650  14.121  0.00  0.00    +0.000 C 
ATOM     20  C   UNL     1     -29.135  98.482  18.403  0.00  0.00    +0.000 A 
ATOM     21  C   UNL     1     -32.939  97.447  17.127  0.00  0.00    +0.000 A 
ATOM     22  C   UNL     1     -30.905  97.127  18.699  0.00  0.00    +0.000 A 
ENDROOT
BRANCH  15  23
ATOM     23  O   UNL     1     -29.799 101.096  15.179  0.00  0.00    +0.000 OA
ATOM     24  C   UNL     1     -29.639 102.426  14.754  0.00  0.00    +0.000 C 
ENDBRANCH  15  23
TORSDOF 1
ENDMDL
MODEL 3
REMARK VINA RESULT:      -6.8      1.563      6.022
REMARK  Name = AFLATOXIN.pdbqt.pdb
REMARK  1 active torsions:
REMARK  status: ('A' for Active; 'I' for Inactive)
REMARK    1  A    between atoms: C_15  and  O_23
REMARK                            x       y       z     vdW  Elec       q    Type
REMARK                         _______ _______ _______ _____ _____    ______ ____
ROOT
ATOM      1  O   UNL     1     -37.187  98.684  15.539  0.00  0.00    +0.000 OA
ATOM      2  O   UNL     1     -37.669  99.354  13.209  0.00  0.00    +0.000 OA
ATOM      3  O   UNL     1     -32.883 100.547  15.119  0.00  0.00    +0.000 OA
ATOM      4  O   UNL     1     -28.859  99.222  17.750  0.00  0.00    +0.000 OA
ATOM      5  O   UNL     1     -30.937 101.663  14.906  0.00  0.00    +0.000 OA
ATOM      6  O   UNL     1     -28.747 100.792  16.144  0.00  0.00    +0.000 OA
ATOM      7  C   UNL     1     -35.835 100.207  14.393  0.00  0.00    +0.000 C 
ATOM      8  C   UNL     1     -35.036  99.574  15.423  0.00  0.00    +0.000 A 
ATOM      9  C   UNL     1     -37.196  99.627  14.506  0.00  0.00    +0.000 C 
ATOM     10  C   UNL     1     -35.913  98.707  16.084  0.00  0.00    +0.000 A 
ATOM     11  C   UNL     1     -33.710  99.654  15.804  0.00  0.00    +0.000 A 
ATOM     12  C   UNL     1     -33.226  98.878  16.855  0.00  0.00    +0.000 A 
ATOM     13  C   UNL     1     -35.570 100.312  13.003  0.00  0.00    +0.000 C 
ATOM     14  C   UNL     1     -31.787  98.997  17.151  0.00  0.00    +0.000 A 
ATOM     15  C   UNL     1     -34.150  98.036  17.537  0.00  0.00    +0.000 A 
ATOM     16  C   UNL     1     -35.494  97.923  17.134  0.00  0.00    +0.000 A 
ATOM     17  C   UNL     1     -31.156  98.181  18.118  0.00  0.00    +0.000 A 
ATOM     18  C   UNL     1     -30.970  99.878  16.503  0.00  0.00    +0.000 A 
ATOM     19  C   UNL     1     -36.597  99.855  12.596  0.00  0.00    +0.000 C 
ATOM     20  C   UNL     1     -29.709  98.401  18.320  0.00  0.00    +0.000 A 
ATOM     21  C   UNL     1     -31.555 100.768  15.464  0.00  0.00    +0.000 A 
ATOM     22  C   UNL     1     -29.452 100.014  16.775  0.00  0.00    +0.000 A 
ENDROOT
BRANCH  15  23
ATOM     23  O   UNL     1     -33.738  97.226  18.573  0.00  0.00    +0.000 OA
ATOM     24  C   UNL     1     -34.173  95.905  18.375  0.00  0.00    +0.000 C 
ENDBRANCH  15  23
TORSDOF 1
ENDMDL
MODEL 4
REMARK VINA RESULT:      -6.4     12.111     15.592
REMARK  Name = AFLATOXIN.pdbqt.pdb
REMARK  1 active torsions:
REMARK  status: ('A' for Active; 'I' for Inactive)
REMARK    1  A    between atoms: C_15  and  O_23
REMARK                            x       y       z     vdW  Elec       q    Type
REMARK                         _______ _______ _______ _____ _____    ______ ____
ROOT
ATOM      1  O   UNL     1     -45.312 100.573   3.043  0.00  0.00    +0.000 OA
ATOM      2  O   UNL     1     -46.856 101.719   4.596  0.00  0.00    +0.000 OA
ATOM      3  O   UNL     1     -41.684 102.634   5.225  0.00  0.00    +0.000 OA
ATOM      4  O   UNL     1     -37.213 103.558   3.218  0.00  0.00    +0.000 OA
ATOM      5  O   UNL     1     -40.005 103.475   6.470  0.00  0.00    +0.000 OA
ATOM      6  O   UNL     1     -37.706 104.177   5.324  0.00  0.00    +0.000 OA
ATOM      7  C   UNL     1     -44.551 101.591   5.004  0.00  0.00    +0.000 C 
ATOM      8  C   UNL     1     -43.455 101.550   4.056  0.00  0.00    +0.000 A 
ATOM      9  C   UNL     1     -45.707 100.950   4.330  0.00  0.00    +0.000 C 
ATOM     10  C   UNL     1     -43.971 100.904   2.929  0.00  0.00    +0.000 A 
ATOM     11  C   UNL     1     -42.151 102.008   4.068  0.00  0.00    +0.000 A 
ATOM     12  C   UNL     1     -41.326 101.826   2.958  0.00  0.00    +0.000 A 
ATOM     13  C   UNL     1     -45.078 102.706   5.706  0.00  0.00    +0.000 C 
ATOM     14  C   UNL     1     -39.970 102.394   3.048  0.00  0.00    +0.000 A 
ATOM     15  C   UNL     1     -41.865 101.127   1.841  0.00  0.00    +0.000 A 
ATOM     16  C   UNL     1     -43.202 100.689   1.808  0.00  0.00    +0.000 A 
ATOM     17  C   UNL     1     -39.080 102.374   1.951  0.00  0.00    +0.000 A 
ATOM     18  C   UNL     1     -39.493 102.992   4.180  0.00  0.00    +0.000 A 
ATOM     19  C   UNL     1     -46.224 102.586   5.388  0.00  0.00    +0.000 C 
ATOM     20  C   UNL     1     -37.749 102.975   2.172  0.00  0.00    +0.000 A 
ATOM     21  C   UNL     1     -40.371 103.062   5.379  0.00  0.00    +0.000 A 
ATOM     22  C   UNL     1     -38.082 103.616   4.301  0.00  0.00    +0.000 A 
ENDROOT
BRANCH  15  23
ATOM     23  O   UNL     1     -41.114 100.929   0.702  0.00  0.00    +0.000 OA
ATOM     24  C   UNL     1     -41.868 101.217  -0.448  0.00  0.00    +0.000 C 
ENDBRANCH  15  23
TORSDOF 1
ENDMDL
MODEL 5
REMARK VINA RESULT:      -6.1      2.358      6.747
REMARK  Name = AFLATOXIN.pdbqt.pdb
REMARK  1 active torsions:
REMARK  status: ('A' for Active; 'I' for Inactive)
REMARK    1  A    between atoms: C_15  and  O_23
REMARK                            x       y       z     vdW  Elec       q    Type
REMARK                         _______ _______ _______ _____ _____    ______ ____
ROOT
ATOM      1  O   UNL     1     -38.362  98.412  18.062  0.00  0.00    +0.000 OA
ATOM      2  O   UNL     1     -38.076  97.737  20.422  0.00  0.00    +0.000 OA
ATOM      3  O   UNL     1     -33.728  97.884  17.413  0.00  0.00    +0.000 OA
ATOM      4  O   UNL     1     -30.984 100.189  13.946  0.00  0.00    +0.000 OA
ATOM      5  O   UNL     1     -31.549  97.383  17.136  0.00  0.00    +0.000 OA
ATOM      6  O   UNL     1     -30.053  98.790  15.441  0.00  0.00    +0.000 OA
ATOM      7  C   UNL     1     -36.400  97.394  18.819  0.00  0.00    +0.000 C 
ATOM      8  C   UNL     1     -36.080  98.183  17.647  0.00  0.00    +0.000 A 
ATOM      9  C   UNL     1     -37.858  97.553  19.043  0.00  0.00    +0.000 C 
ATOM     10  C   UNL     1     -37.298  98.732  17.233  0.00  0.00    +0.000 A 
ATOM     11  C   UNL     1     -34.913  98.470  16.964  0.00  0.00    +0.000 A 
ATOM     12  C   UNL     1     -34.932  99.305  15.848  0.00  0.00    +0.000 A 
ATOM     13  C   UNL     1     -35.802  97.432  20.106  0.00  0.00    +0.000 C 
ATOM     14  C   UNL     1     -33.630  99.591  15.220  0.00  0.00    +0.000 A 
ATOM     15  C   UNL     1     -36.192  99.815  15.424  0.00  0.00    +0.000 A 
ATOM     16  C   UNL     1     -37.380  99.556  16.134  0.00  0.00    +0.000 A 
ATOM     17  C   UNL     1     -33.503 100.510  14.154  0.00  0.00    +0.000 A 
ATOM     18  C   UNL     1     -32.466  99.011  15.637  0.00  0.00    +0.000 A 
ATOM     19  C   UNL     1     -36.793  97.592  20.754  0.00  0.00    +0.000 C 
ATOM     20  C   UNL     1     -32.143 100.706  13.612  0.00  0.00    +0.000 A 
ATOM     21  C   UNL     1     -32.511  98.037  16.761  0.00  0.00    +0.000 A 
ATOM     22  C   UNL     1     -31.080  99.304  15.013  0.00  0.00    +0.000 A 
ENDROOT
BRANCH  15  23
ATOM     23  O   UNL     1     -36.283 100.663  14.341  0.00  0.00    +0.000 OA
ATOM     24  C   UNL     1     -37.164 100.146  13.377  0.00  0.00    +0.000 C 
ENDBRANCH  15  23
TORSDOF 1
ENDMDL
MODEL 6
REMARK VINA RESULT:      -6.1      2.120      4.526
REMARK  Name = AFLATOXIN.pdbqt.pdb
REMARK  1 active torsions:
REMARK  status: ('A' for Active; 'I' for Inactive)
REMARK    1  A    between atoms: C_15  and  O_23
REMARK                            x       y       z     vdW  Elec       q    Type
REMARK                         _______ _______ _______ _____ _____    ______ ____
ROOT
ATOM      1  O   UNL     1     -32.001 100.451  14.030  0.00  0.00    +0.000 OA
ATOM      2  O   UNL     1     -30.114  99.066  14.822  0.00  0.00    +0.000 OA
ATOM      3  O   UNL     1     -34.545  98.979  17.710  0.00  0.00    +0.000 OA
ATOM      4  O   UNL     1     -39.523  98.786  17.926  0.00  0.00    +0.000 OA
ATOM      5  O   UNL     1     -35.602  98.407  19.615  0.00  0.00    +0.000 OA
ATOM      6  O   UNL     1     -38.245  98.085  19.639  0.00  0.00    +0.000 OA
ATOM      7  C   UNL     1     -31.955  99.556  16.188  0.00  0.00    +0.000 C 
ATOM      8  C   UNL     1     -33.338  99.775  15.816  0.00  0.00    +0.000 A 
ATOM      9  C   UNL     1     -31.137 100.009  15.036  0.00  0.00    +0.000 C 
ATOM     10  C   UNL     1     -33.286 100.338  14.536  0.00  0.00    +0.000 A 
ATOM     11  C   UNL     1     -34.553  99.530  16.426  0.00  0.00    +0.000 A 
ATOM     12  C   UNL     1     -35.747  99.846  15.780  0.00  0.00    +0.000 A 
ATOM     13  C   UNL     1     -31.339  98.367  16.659  0.00  0.00    +0.000 C 
ATOM     14  C   UNL     1     -36.990  99.500  16.492  0.00  0.00    +0.000 A 
ATOM     15  C   UNL     1     -35.664 100.458  14.497  0.00  0.00    +0.000 A 
ATOM     16  C   UNL     1     -34.432 100.679  13.854  0.00  0.00    +0.000 A 
ATOM     17  C   UNL     1     -38.261  99.668  15.896  0.00  0.00    +0.000 A 
ATOM     18  C   UNL     1     -36.998  98.979  17.754  0.00  0.00    +0.000 A 
ATOM     19  C   UNL     1     -30.448  98.306  15.865  0.00  0.00    +0.000 C 
ATOM     20  C   UNL     1     -39.428  99.284  16.716  0.00  0.00    +0.000 A 
ATOM     21  C   UNL     1     -35.701  98.763  18.450  0.00  0.00    +0.000 A 
ATOM     22  C   UNL     1     -38.284  98.586  18.521  0.00  0.00    +0.000 A 
ENDROOT
BRANCH  15  23
ATOM     23  O   UNL     1     -36.804 100.779  13.792  0.00  0.00    +0.000 OA
ATOM     24  C   UNL     1     -36.822 100.124  12.549  0.00  0.00    +0.000 C 
ENDBRANCH  15  23
TORSDOF 1
ENDMDL
MODEL 7
REMARK VINA RESULT:      -5.9     12.870     16.146
REMARK  Name = AFLATOXIN.pdbqt.pdb
REMARK  1 active torsions:
REMARK  status: ('A' for Active; 'I' for Inactive)
REMARK    1  A    between atoms: C_15  and  O_23
REMARK                            x       y       z     vdW  Elec       q    Type
REMARK                         _______ _______ _______ _____ _____    ______ ____
ROOT
ATOM      1  O   UNL     1     -19.528  96.763   3.525  0.00  0.00    +0.000 OA
ATOM      2  O   UNL     1     -18.253  94.744   4.163  0.00  0.00    +0.000 OA
ATOM      3  O   UNL     1     -19.201  98.297   7.965  0.00  0.00    +0.000 OA
ATOM      4  O   UNL     1     -22.347 101.453  10.202  0.00  0.00    +0.000 OA
ATOM      5  O   UNL     1     -18.796  99.059  10.047  0.00  0.00    +0.000 OA
ATOM      6  O   UNL     1     -20.605 100.554  11.305  0.00  0.00    +0.000 OA
ATOM      7  C   UNL     1     -18.350  96.639   5.540  0.00  0.00    +0.000 C 
ATOM      8  C   UNL     1     -19.422  97.601   5.697  0.00  0.00    +0.000 A 
ATOM      9  C   UNL     1     -18.441  96.139   4.146  0.00  0.00    +0.000 C 
ATOM     10  C   UNL     1     -20.058  97.647   4.452  0.00  0.00    +0.000 A 
ATOM     11  C   UNL     1     -19.882  98.372   6.748  0.00  0.00    +0.000 A 
ATOM     12  C   UNL     1     -20.982  99.212   6.583  0.00  0.00    +0.000 A 
ATOM     13  C   UNL     1     -18.048  95.507   6.340  0.00  0.00    +0.000 C 
ATOM     14  C   UNL     1     -21.427  99.953   7.777  0.00  0.00    +0.000 A 
ATOM     15  C   UNL     1     -21.583  99.270   5.294  0.00  0.00    +0.000 A 
ATOM     16  C   UNL     1     -21.143  98.463   4.227  0.00  0.00    +0.000 A 
ATOM     17  C   UNL     1     -22.595 100.748   7.767  0.00  0.00    +0.000 A 
ATOM     18  C   UNL     1     -20.760  99.904   8.967  0.00  0.00    +0.000 A 
ATOM     19  C   UNL     1     -18.029  94.682   5.475  0.00  0.00    +0.000 C 
ATOM     20  C   UNL     1     -22.931 101.441   9.027  0.00  0.00    +0.000 A 
ATOM     21  C   UNL     1     -19.524  99.082   9.065  0.00  0.00    +0.000 A 
ATOM     22  C   UNL     1     -21.212 100.654  10.244  0.00  0.00    +0.000 A 
ENDROOT
BRANCH  15  23
ATOM     23  O   UNL     1     -22.687 100.063   5.063  0.00  0.00    +0.000 OA
ATOM     24  C   UNL     1     -22.555 100.759   3.850  0.00  0.00    +0.000 C 
ENDBRANCH  15  23
TORSDOF 1
ENDMDL
MODEL 8
REMARK VINA RESULT:      -5.8     13.099     15.074
REMARK  Name = AFLATOXIN.pdbqt.pdb
REMARK  1 active torsions:
REMARK  status: ('A' for Active; 'I' for Inactive)
REMARK    1  A    between atoms: C_15  and  O_23
REMARK                            x       y       z     vdW  Elec       q    Type
REMARK                         _______ _______ _______ _____ _____    ______ ____
ROOT
ATOM      1  O   UNL     1     -23.436 100.820   3.550  0.00  0.00    +0.000 OA
ATOM      2  O   UNL     1     -24.130 103.152   3.118  0.00  0.00    +0.000 OA
ATOM      3  O   UNL     1     -22.495 101.992   8.013  0.00  0.00    +0.000 OA
ATOM      4  O   UNL     1     -19.267  99.669  11.022  0.00  0.00    +0.000 OA
ATOM      5  O   UNL     1     -22.295 102.583  10.178  0.00  0.00    +0.000 OA
ATOM      6  O   UNL     1     -20.403 101.489  11.699  0.00  0.00    +0.000 OA
ATOM      7  C   UNL     1     -23.854 102.321   5.293  0.00  0.00    +0.000 C 
ATOM      8  C   UNL     1     -22.938 101.307   5.774  0.00  0.00    +0.000 A 
ATOM      9  C   UNL     1     -24.158 101.971   3.883  0.00  0.00    +0.000 C 
ATOM     10  C   UNL     1     -22.761 100.433   4.697  0.00  0.00    +0.000 A 
ATOM     11  C   UNL     1     -22.271 101.095   6.966  0.00  0.00    +0.000 A 
ATOM     12  C   UNL     1     -21.417 100.004   7.116  0.00  0.00    +0.000 A 
ATOM     13  C   UNL     1     -23.712 103.732   5.322  0.00  0.00    +0.000 C 
ATOM     14  C   UNL     1     -20.713  99.893   8.406  0.00  0.00    +0.000 A 
ATOM     15  C   UNL     1     -21.289  99.107   6.018  0.00  0.00    +0.000 A 
ATOM     16  C   UNL     1     -21.937  99.334   4.789  0.00  0.00    +0.000 A 
ATOM     17  C   UNL     1     -19.738  98.897   8.640  0.00  0.00    +0.000 A 
ATOM     18  C   UNL     1     -20.936 100.751   9.445  0.00  0.00    +0.000 A 
ATOM     19  C   UNL     1     -23.898 103.950   4.161  0.00  0.00    +0.000 C 
ATOM     20  C   UNL     1     -19.108  98.894   9.976  0.00  0.00    +0.000 A 
ATOM     21  C   UNL     1     -21.942 101.835   9.278  0.00  0.00    +0.000 A 
ATOM     22  C   UNL     1     -20.200 100.675  10.805  0.00  0.00    +0.000 A 
ENDROOT
BRANCH  15  23
ATOM     23  O   UNL     1     -20.447  98.018   6.088  0.00  0.00    +0.000 OA
ATOM     24  C   UNL     1     -20.199  97.496   4.807  0.00  0.00    +0.000 C 
ENDBRANCH  15  23
TORSDOF 1
ENDMDL
MODEL 9
REMARK VINA RESULT:      -5.7     10.990     13.022
REMARK  Name = AFLATOXIN.pdbqt.pdb
REMARK  1 active torsions:
REMARK  status: ('A' for Active; 'I' for Inactive)
REMARK    1  A    between atoms: C_15  and  O_23
REMARK                            x       y       z     vdW  Elec       q    Type
REMARK                         _______ _______ _______ _____ _____    ______ ____
ROOT
ATOM      1  O   UNL     1     -32.005  90.500  19.895  0.00  0.00    +0.000 OA
ATOM      2  O   UNL     1     -30.080  91.067  18.453  0.00  0.00    +0.000 OA
ATOM      3  O   UNL     1     -32.919  86.807  17.120  0.00  0.00    +0.000 OA
ATOM      4  O   UNL     1     -37.364  84.623  16.539  0.00  0.00    +0.000 OA
ATOM      5  O   UNL     1     -33.141  84.940  15.879  0.00  0.00    +0.000 OA
ATOM      6  O   UNL     1     -35.556  83.930  15.393  0.00  0.00    +0.000 OA
ATOM      7  C   UNL     1     -31.147  88.983  18.338  0.00  0.00    +0.000 C 
ATOM      8  C   UNL     1     -32.538  88.654  18.578  0.00  0.00    +0.000 A 
ATOM      9  C   UNL     1     -30.842  90.150  19.202  0.00  0.00    +0.000 C 
ATOM     10  C   UNL     1     -32.972  89.575  19.536  0.00  0.00    +0.000 A 
ATOM     11  C   UNL     1     -33.410  87.712  18.064  0.00  0.00    +0.000 A 
ATOM     12  C   UNL     1     -34.734  87.660  18.498  0.00  0.00    +0.000 A 
ATOM     13  C   UNL     1     -30.492  89.229  17.104  0.00  0.00    +0.000 C 
ATOM     14  C   UNL     1     -35.597  86.655  17.854  0.00  0.00    +0.000 A 
ATOM     15  C   UNL     1     -35.137  88.583  19.505  0.00  0.00    +0.000 A 
ATOM     16  C   UNL     1     -34.265  89.567  20.008  0.00  0.00    +0.000 A 
ATOM     17  C   UNL     1     -36.982  86.579  18.126  0.00  0.00    +0.000 A 
ATOM     18  C   UNL     1     -35.127  85.753  16.943  0.00  0.00    +0.000 A 
ATOM     19  C   UNL     1     -30.015  90.292  17.370  0.00  0.00    +0.000 C 
ATOM     20  C   UNL     1     -37.735  85.525  17.415  0.00  0.00    +0.000 A 
ATOM     21  C   UNL     1     -33.681  85.771  16.595  0.00  0.00    +0.000 A 
ATOM     22  C   UNL     1     -36.010  84.697  16.234  0.00  0.00    +0.000 A 
ENDROOT
BRANCH  15  23
ATOM     23  O   UNL     1     -36.435  88.603  19.967  0.00  0.00    +0.000 OA
ATOM     24  C   UNL     1     -36.556  89.458  21.075  0.00  0.00    +0.000 C 
ENDBRANCH  15  23
TORSDOF 1
ENDMDL
