MODEL 1
REMARK VINA RESULT:      -7.1      0.000      0.000
REMARK  Name = AZD4547.pdbqt.pdb
REMARK  6 active torsions:
REMARK  status: ('A' for Active; 'I' for Inactive)
REMARK    1  A    between atoms: C_3  and  C_23
REMARK    2  A    between atoms: C_8  and  C_11
REMARK    3  A    between atoms: C_12  and  C_13
REMARK    4  A    between atoms: C_15  and  O_19
REMARK    5  A    between atoms: C_17  and  O_21
REMARK    6  A    between atoms: C_26  and  N_29
REMARK                            x       y       z     vdW  Elec       q    Type
REMARK                         _______ _______ _______ _____ _____    ______ ____
ROOT
ATOM      1  O   UNL     1     -41.911 100.688   4.147  0.00  0.00    +0.000 OA
ATOM      2  N   UNL     1     -42.232 101.905   2.203  0.00  0.00    +0.000 N 
ATOM      3  C   UNL     1     -41.521 101.493   3.308  0.00  0.00    +0.000 C 
ATOM      4  H   UNL     1     -41.870 102.574   1.540  0.00  0.00    +0.000 HD
ATOM      5  C   UNL     1     -43.491 101.460   1.880  0.00  0.00    +0.000 A 
ATOM      6  N   UNL     1     -44.080 101.938   0.778  0.00  0.00    +0.000 NA
ATOM      7  N   UNL     1     -45.271 101.312   0.757  0.00  0.00    +0.000 N 
ATOM      8  C   UNL     1     -45.460 100.456   1.801  0.00  0.00    +0.000 A 
ATOM      9  H   UNL     1     -45.913 101.514  -0.002  0.00  0.00    +0.000 HD
ATOM     10  C   UNL     1     -44.316 100.528   2.556  0.00  0.00    +0.000 A 
ENDROOT
BRANCH   3  11
ATOM     11  C   UNL     1     -40.174 102.093   3.473  0.00  0.00    +0.000 A 
ATOM     12  C   UNL     1     -39.876 102.743   4.671  0.00  0.00    +0.000 A 
ATOM     13  C   UNL     1     -38.622 103.318   4.861  0.00  0.00    +0.000 A 
ATOM     14  C   UNL     1     -37.643 103.272   3.860  0.00  0.00    +0.000 A 
ATOM     15  C   UNL     1     -37.953 102.599   2.670  0.00  0.00    +0.000 A 
ATOM     16  C   UNL     1     -39.207 102.021   2.473  0.00  0.00    +0.000 A 
BRANCH  14  17
ATOM     17  N   UNL     1     -36.355 103.817   4.072  0.00  0.00    +0.000 N 
ATOM     18  C   UNL     1     -36.230 105.005   4.935  0.00  0.00    +0.000 C 
ATOM     19  C   UNL     1     -35.621 106.288   4.817  0.00  0.00    +0.000 C 
ATOM     20  N   UNL     1     -34.949 106.566   3.588  0.00  0.00    +0.000 N 
ATOM     21  C   UNL     1     -35.696 107.316   5.889  0.00  0.00    +0.000 C 
ATOM     22  C   UNL     1     -34.942 105.549   2.587  0.00  0.00    +0.000 C 
ATOM     23  H   UNL     1     -34.515 107.461   3.425  0.00  0.00    +0.000 HD
ATOM     24  C   UNL     1     -35.613 104.332   2.908  0.00  0.00    +0.000 C 
ATOM     25  C   UNL     1     -34.300 105.786   1.267  0.00  0.00    +0.000 C 
ENDBRANCH  14  17
ENDBRANCH   3  11
BRANCH   8  26
ATOM     26  C   UNL     1     -46.618  99.672   2.018  0.00  0.00    +0.000 C 
ATOM     27  C   UNL     1     -47.870  98.820   2.251  0.00  0.00    +0.000 C 
BRANCH  27  28
ATOM     28  C   UNL     1     -49.030  98.020   2.463  0.00  0.00    +0.000 A 
ATOM     29  C   UNL     1     -49.139  96.778   1.845  0.00  0.00    +0.000 A 
ATOM     30  C   UNL     1     -50.272  95.987   2.053  0.00  0.00    +0.000 A 
ATOM     31  C   UNL     1     -51.288  96.454   2.891  0.00  0.00    +0.000 A 
ATOM     32  C   UNL     1     -51.185  97.702   3.508  0.00  0.00    +0.000 A 
ATOM     33  C   UNL     1     -50.048  98.482   3.292  0.00  0.00    +0.000 A 
BRANCH  30  34
ATOM     34  O   UNL     1     -50.479  94.747   1.502  0.00  0.00    +0.000 OA
ATOM     35  C   UNL     1     -51.225  93.858   2.285  0.00  0.00    +0.000 C 
ENDBRANCH  30  34
BRANCH  32  36
ATOM     36  O   UNL     1     -52.243  98.057   4.308  0.00  0.00    +0.000 OA
ATOM     37  C   UNL     1     -52.556  97.150   5.330  0.00  0.00    +0.000 C 
ENDBRANCH  32  36
ENDBRANCH  27  28
ENDBRANCH   8  26
TORSDOF 6
ENDMDL
MODEL 2
REMARK VINA RESULT:      -7.0     18.717     22.614
REMARK  Name = AZD4547.pdbqt.pdb
REMARK  6 active torsions:
REMARK  status: ('A' for Active; 'I' for Inactive)
REMARK    1  A    between atoms: C_3  and  C_23
REMARK    2  A    between atoms: C_8  and  C_11
REMARK    3  A    between atoms: C_12  and  C_13
REMARK    4  A    between atoms: C_15  and  O_19
REMARK    5  A    between atoms: C_17  and  O_21
REMARK    6  A    between atoms: C_26  and  N_29
REMARK                            x       y       z     vdW  Elec       q    Type
REMARK                         _______ _______ _______ _____ _____    ______ ____
ROOT
ATOM      1  O   UNL     1     -29.672 100.432  20.989  0.00  0.00    +0.000 OA
ATOM      2  N   UNL     1     -29.487  98.136  20.755  0.00  0.00    +0.000 N 
ATOM      3  C   UNL     1     -29.214  99.351  21.342  0.00  0.00    +0.000 C 
ATOM      4  H   UNL     1     -29.083  97.271  21.079  0.00  0.00    +0.000 HD
ATOM      5  C   UNL     1     -30.327  97.964  19.680  0.00  0.00    +0.000 A 
ATOM      6  N   UNL     1     -30.510  96.731  19.197  0.00  0.00    +0.000 NA
ATOM      7  N   UNL     1     -31.367  96.913  18.175  0.00  0.00    +0.000 N 
ATOM      8  C   UNL     1     -31.735  98.213  17.994  0.00  0.00    +0.000 A 
ATOM      9  H   UNL     1     -31.664  96.104  17.640  0.00  0.00    +0.000 HD
ATOM     10  C   UNL     1     -31.073  98.929  18.960  0.00  0.00    +0.000 A 
ENDROOT
BRANCH   3  11
ATOM     11  C   UNL     1     -28.281  99.319  22.496  0.00  0.00    +0.000 A 
ATOM     12  C   UNL     1     -27.816  98.082  22.941  0.00  0.00    +0.000 A 
ATOM     13  C   UNL     1     -26.939  98.014  24.022  0.00  0.00    +0.000 A 
ATOM     14  C   UNL     1     -26.520  99.171  24.691  0.00  0.00    +0.000 A 
ATOM     15  C   UNL     1     -26.984 100.406  24.218  0.00  0.00    +0.000 A 
ATOM     16  C   UNL     1     -27.861 100.482  23.136  0.00  0.00    +0.000 A 
BRANCH  14  17
ATOM     17  N   UNL     1     -25.596  99.103  25.760  0.00  0.00    +0.000 N 
ATOM     18  C   UNL     1     -25.523  97.858  26.545  0.00  0.00    +0.000 C 
ATOM     19  C   UNL     1     -25.571  97.527  27.931  0.00  0.00    +0.000 C 
ATOM     20  N   UNL     1     -25.726  98.614  28.844  0.00  0.00    +0.000 N 
ATOM     21  C   UNL     1     -25.499  96.126  28.426  0.00  0.00    +0.000 C 
ATOM     22  C   UNL     1     -25.822  99.931  28.302  0.00  0.00    +0.000 C 
ATOM     23  H   UNL     1     -25.791  98.453  29.837  0.00  0.00    +0.000 HD
ATOM     24  C   UNL     1     -25.751 100.044  26.882  0.00  0.00    +0.000 C 
ATOM     25  C   UNL     1     -26.031 101.105  29.190  0.00  0.00    +0.000 C 
ENDBRANCH  14  17
ENDBRANCH   3  11
BRANCH   8  26
ATOM     26  C   UNL     1     -32.624  98.680  16.997  0.00  0.00    +0.000 C 
ATOM     27  C   UNL     1     -33.588  99.182  15.917  0.00  0.00    +0.000 C 
BRANCH  27  28
ATOM     28  C   UNL     1     -34.487  99.640  14.910  0.00  0.00    +0.000 A 
ATOM     29  C   UNL     1     -35.736  99.041  14.771  0.00  0.00    +0.000 A 
ATOM     30  C   UNL     1     -36.623  99.489  13.789  0.00  0.00    +0.000 A 
ATOM     31  C   UNL     1     -36.246 100.545  12.956  0.00  0.00    +0.000 A 
ATOM     32  C   UNL     1     -34.993 101.145  13.089  0.00  0.00    +0.000 A 
ATOM     33  C   UNL     1     -34.115 100.688  14.074  0.00  0.00    +0.000 A 
BRANCH  30  34
ATOM     34  O   UNL     1     -37.878  98.977  13.569  0.00  0.00    +0.000 OA
ATOM     35  C   UNL     1     -38.925  99.668  14.189  0.00  0.00    +0.000 C 
ENDBRANCH  30  34
BRANCH  32  36
ATOM     36  O   UNL     1     -34.731 102.172  12.216  0.00  0.00    +0.000 OA
ATOM     37  C   UNL     1     -34.748 103.457  12.776  0.00  0.00    +0.000 C 
ENDBRANCH  32  36
ENDBRANCH  27  28
ENDBRANCH   8  26
TORSDOF 6
ENDMDL
MODEL 3
REMARK VINA RESULT:      -6.9      0.321      1.904
REMARK  Name = AZD4547.pdbqt.pdb
REMARK  6 active torsions:
REMARK  status: ('A' for Active; 'I' for Inactive)
REMARK    1  A    between atoms: C_3  and  C_23
REMARK    2  A    between atoms: C_8  and  C_11
REMARK    3  A    between atoms: C_12  and  C_13
REMARK    4  A    between atoms: C_15  and  O_19
REMARK    5  A    between atoms: C_17  and  O_21
REMARK    6  A    between atoms: C_26  and  N_29
REMARK                            x       y       z     vdW  Elec       q    Type
REMARK                         _______ _______ _______ _____ _____    ______ ____
ROOT
ATOM      1  O   UNL     1     -41.844 100.725   4.184  0.00  0.00    +0.000 OA
ATOM      2  N   UNL     1     -42.167 101.945   2.243  0.00  0.00    +0.000 N 
ATOM      3  C   UNL     1     -41.456 101.534   3.348  0.00  0.00    +0.000 C 
ATOM      4  H   UNL     1     -41.808 102.617   1.582  0.00  0.00    +0.000 HD
ATOM      5  C   UNL     1     -43.424 101.494   1.915  0.00  0.00    +0.000 A 
ATOM      6  N   UNL     1     -44.013 101.971   0.814  0.00  0.00    +0.000 NA
ATOM      7  N   UNL     1     -45.200 101.339   0.789  0.00  0.00    +0.000 N 
ATOM      8  C   UNL     1     -45.386 100.480   1.830  0.00  0.00    +0.000 A 
ATOM      9  H   UNL     1     -45.841 101.540   0.028  0.00  0.00    +0.000 HD
ATOM     10  C   UNL     1     -44.245 100.556   2.588  0.00  0.00    +0.000 A 
ENDROOT
BRANCH   3  11
ATOM     11  C   UNL     1     -40.112 102.141   3.518  0.00  0.00    +0.000 A 
ATOM     12  C   UNL     1     -39.827 102.803   4.711  0.00  0.00    +0.000 A 
ATOM     13  C   UNL     1     -38.576 103.385   4.905  0.00  0.00    +0.000 A 
ATOM     14  C   UNL     1     -37.590 103.333   3.912  0.00  0.00    +0.000 A 
ATOM     15  C   UNL     1     -37.888 102.646   2.726  0.00  0.00    +0.000 A 
ATOM     16  C   UNL     1     -39.138 102.062   2.526  0.00  0.00    +0.000 A 
BRANCH  14  17
ATOM     17  N   UNL     1     -36.305 103.885   4.128  0.00  0.00    +0.000 N 
ATOM     18  C   UNL     1     -36.191 105.082   4.980  0.00  0.00    +0.000 C 
ATOM     19  C   UNL     1     -35.586 106.367   4.853  0.00  0.00    +0.000 C 
ATOM     20  N   UNL     1     -34.905 106.633   3.626  0.00  0.00    +0.000 N 
ATOM     21  C   UNL     1     -35.673 107.406   5.912  0.00  0.00    +0.000 C 
ATOM     22  C   UNL     1     -34.886 105.605   2.636  0.00  0.00    +0.000 C 
ATOM     23  H   UNL     1     -34.473 107.528   3.456  0.00  0.00    +0.000 HD
ATOM     24  C   UNL     1     -35.555 104.389   2.965  0.00  0.00    +0.000 C 
ATOM     25  C   UNL     1     -34.234 105.830   1.319  0.00  0.00    +0.000 C 
ENDBRANCH  14  17
ENDBRANCH   3  11
BRANCH   8  26
ATOM     26  C   UNL     1     -46.541  99.689   2.042  0.00  0.00    +0.000 C 
ATOM     27  C   UNL     1     -47.789  98.830   2.270  0.00  0.00    +0.000 C 
BRANCH  27  28
ATOM     28  C   UNL     1     -48.946  98.025   2.476  0.00  0.00    +0.000 A 
ATOM     29  C   UNL     1     -49.961  98.471   3.318  0.00  0.00    +0.000 A 
ATOM     30  C   UNL     1     -51.100  97.688   3.519  0.00  0.00    +0.000 A 
ATOM     31  C   UNL     1     -51.211  96.459   2.865  0.00  0.00    +0.000 A 
ATOM     32  C   UNL     1     -50.193  96.005   2.024  0.00  0.00    +0.000 A 
ATOM     33  C   UNL     1     -49.060  96.797   1.831  0.00  0.00    +0.000 A 
BRANCH  30  34
ATOM     34  O   UNL     1     -52.162  98.033   4.319  0.00  0.00    +0.000 OA
ATOM     35  C   UNL     1     -51.827  98.477   5.603  0.00  0.00    +0.000 C 
ENDBRANCH  30  34
BRANCH  32  36
ATOM     36  O   UNL     1     -50.411  94.784   1.435  0.00  0.00    +0.000 OA
ATOM     37  C   UNL     1     -51.701  94.261   1.593  0.00  0.00    +0.000 C 
ENDBRANCH  32  36
ENDBRANCH  27  28
ENDBRANCH   8  26
TORSDOF 6
ENDMDL
MODEL 4
REMARK VINA RESULT:      -6.9     21.116     22.078
REMARK  Name = AZD4547.pdbqt.pdb
REMARK  6 active torsions:
REMARK  status: ('A' for Active; 'I' for Inactive)
REMARK    1  A    between atoms: C_3  and  C_23
REMARK    2  A    between atoms: C_8  and  C_11
REMARK    3  A    between atoms: C_12  and  C_13
REMARK    4  A    between atoms: C_15  and  O_19
REMARK    5  A    between atoms: C_17  and  O_21
REMARK    6  A    between atoms: C_26  and  N_29
REMARK                            x       y       z     vdW  Elec       q    Type
REMARK                         _______ _______ _______ _____ _____    ______ ____
ROOT
ATOM      1  O   UNL     1     -36.468  85.631  18.392  0.00  0.00    +0.000 OA
ATOM      2  N   UNL     1     -35.937  85.016  16.224  0.00  0.00    +0.000 N 
ATOM      3  C   UNL     1     -35.696  85.615  17.440  0.00  0.00    +0.000 C 
ATOM      4  H   UNL     1     -35.271  85.032  15.467  0.00  0.00    +0.000 HD
ATOM      5  C   UNL     1     -37.089  84.339  15.907  0.00  0.00    +0.000 A 
ATOM      6  N   UNL     1     -37.206  83.800  14.688  0.00  0.00    +0.000 NA
ATOM      7  N   UNL     1     -38.423  83.225  14.709  0.00  0.00    +0.000 N 
ATOM      8  C   UNL     1     -39.081  83.377  15.893  0.00  0.00    +0.000 A 
ATOM      9  H   UNL     1     -38.745  82.742  13.878  0.00  0.00    +0.000 HD
ATOM     10  C   UNL     1     -38.239  84.101  16.700  0.00  0.00    +0.000 A 
ENDROOT
BRANCH   3  11
ATOM     11  C   UNL     1     -34.384  86.294  17.580  0.00  0.00    +0.000 A 
ATOM     12  C   UNL     1     -34.320  87.671  17.369  0.00  0.00    +0.000 A 
ATOM     13  C   UNL     1     -33.105  88.342  17.491  0.00  0.00    +0.000 A 
ATOM     14  C   UNL     1     -31.927  87.655  17.812  0.00  0.00    +0.000 A 
ATOM     15  C   UNL     1     -32.013  86.275  18.039  0.00  0.00    +0.000 A 
ATOM     16  C   UNL     1     -33.226  85.597  17.918  0.00  0.00    +0.000 A 
BRANCH  14  17
ATOM     17  N   UNL     1     -30.703  88.345  17.980  0.00  0.00    +0.000 N 
ATOM     18  C   UNL     1     -30.742  89.732  18.473  0.00  0.00    +0.000 C 
ATOM     19  C   UNL     1     -30.193  90.978  18.050  0.00  0.00    +0.000 C 
ATOM     20  N   UNL     1     -29.399  90.956  16.862  0.00  0.00    +0.000 N 
ATOM     21  C   UNL     1     -30.445  92.255  18.768  0.00  0.00    +0.000 C 
ATOM     22  C   UNL     1     -29.222  89.703  16.201  0.00  0.00    +0.000 C 
ATOM     23  H   UNL     1     -28.998  91.803  16.490  0.00  0.00    +0.000 HD
ATOM     24  C   UNL     1     -29.860  88.573  16.794  0.00  0.00    +0.000 C 
ATOM     25  C   UNL     1     -28.446  89.614  14.937  0.00  0.00    +0.000 C 
ENDBRANCH  14  17
ENDBRANCH   3  11
BRANCH   8  26
ATOM     26  C   UNL     1     -40.370  82.871  16.183  0.00  0.00    +0.000 C 
ATOM     27  C   UNL     1     -41.765  82.319  16.496  0.00  0.00    +0.000 C 
BRANCH  27  28
ATOM     28  C   UNL     1     -43.059  81.798  16.783  0.00  0.00    +0.000 A 
ATOM     29  C   UNL     1     -43.203  80.466  17.163  0.00  0.00    +0.000 A 
ATOM     30  C   UNL     1     -44.469  79.951  17.450  0.00  0.00    +0.000 A 
ATOM     31  C   UNL     1     -45.585  80.785  17.357  0.00  0.00    +0.000 A 
ATOM     32  C   UNL     1     -45.447  82.120  16.971  0.00  0.00    +0.000 A 
ATOM     33  C   UNL     1     -44.176  82.623  16.686  0.00  0.00    +0.000 A 
BRANCH  30  34
ATOM     34  O   UNL     1     -44.724  78.659  17.840  0.00  0.00    +0.000 OA
ATOM     35  C   UNL     1     -43.595  77.853  18.023  0.00  0.00    +0.000 C 
ENDBRANCH  30  34
BRANCH  32  36
ATOM     36  O   UNL     1     -46.611  82.845  16.914  0.00  0.00    +0.000 OA
ATOM     37  C   UNL     1     -46.489  84.139  16.391  0.00  0.00    +0.000 C 
ENDBRANCH  32  36
ENDBRANCH  27  28
ENDBRANCH   8  26
TORSDOF 6
ENDMDL
MODEL 5
REMARK VINA RESULT:      -6.8     21.448     26.069
REMARK  Name = AZD4547.pdbqt.pdb
REMARK  6 active torsions:
REMARK  status: ('A' for Active; 'I' for Inactive)
REMARK    1  A    between atoms: C_3  and  C_23
REMARK    2  A    between atoms: C_8  and  C_11
REMARK    3  A    between atoms: C_12  and  C_13
REMARK    4  A    between atoms: C_15  and  O_19
REMARK    5  A    between atoms: C_17  and  O_21
REMARK    6  A    between atoms: C_26  and  N_29
REMARK                            x       y       z     vdW  Elec       q    Type
REMARK                         _______ _______ _______ _____ _____    ______ ____
ROOT
ATOM      1  O   UNL     1     -38.815  85.520  18.302  0.00  0.00    +0.000 OA
ATOM      2  N   UNL     1     -37.932  84.140  16.665  0.00  0.00    +0.000 N 
ATOM      3  C   UNL     1     -38.904  84.558  17.546  0.00  0.00    +0.000 C 
ATOM      4  H   UNL     1     -38.049  83.340  16.063  0.00  0.00    +0.000 HD
ATOM      5  C   UNL     1     -36.713  84.754  16.506  0.00  0.00    +0.000 A 
ATOM      6  N   UNL     1     -35.849  84.251  15.617  0.00  0.00    +0.000 NA
ATOM      7  N   UNL     1     -34.784  85.069  15.710  0.00  0.00    +0.000 N 
ATOM      8  C   UNL     1     -34.940  86.071  16.621  0.00  0.00    +0.000 A 
ATOM      9  H   UNL     1     -33.980  84.887  15.119  0.00  0.00    +0.000 HD
ATOM     10  C   UNL     1     -36.189  85.896  17.162  0.00  0.00    +0.000 A 
ENDROOT
BRANCH   3  11
ATOM     11  C   UNL     1     -40.154  83.757  17.561  0.00  0.00    +0.000 A 
ATOM     12  C   UNL     1     -40.399  82.927  18.654  0.00  0.00    +0.000 A 
ATOM     13  C   UNL     1     -41.561  82.160  18.703  0.00  0.00    +0.000 A 
ATOM     14  C   UNL     1     -42.495  82.192  17.659  0.00  0.00    +0.000 A 
ATOM     15  C   UNL     1     -42.241  83.047  16.577  0.00  0.00    +0.000 A 
ATOM     16  C   UNL     1     -41.080  83.817  16.523  0.00  0.00    +0.000 A 
BRANCH  14  17
ATOM     17  N   UNL     1     -43.696  81.447  17.731  0.00  0.00    +0.000 N 
ATOM     18  C   UNL     1     -43.607  79.997  17.973  0.00  0.00    +0.000 C 
ATOM     19  C   UNL     1     -44.134  78.827  17.351  0.00  0.00    +0.000 C 
ATOM     20  N   UNL     1     -44.959  79.032  16.203  0.00  0.00    +0.000 N 
ATOM     21  C   UNL     1     -43.829  77.453  17.830  0.00  0.00    +0.000 C 
ATOM     22  C   UNL     1     -45.187  80.374  15.775  0.00  0.00    +0.000 C 
ATOM     23  H   UNL     1     -45.348  78.250  15.698  0.00  0.00    +0.000 HD
ATOM     24  C   UNL     1     -44.564  81.403  16.542  0.00  0.00    +0.000 C 
ATOM     25  C   UNL     1     -45.998  80.658  14.563  0.00  0.00    +0.000 C 
ENDBRANCH  14  17
ENDBRANCH   3  11
BRANCH   8  26
ATOM     26  C   UNL     1     -33.978  87.067  16.913  0.00  0.00    +0.000 C 
ATOM     27  C   UNL     1     -32.939  88.146  17.234  0.00  0.00    +0.000 C 
BRANCH  27  28
ATOM     28  C   UNL     1     -31.976  89.151  17.541  0.00  0.00    +0.000 A 
ATOM     29  C   UNL     1     -32.041  89.826  18.757  0.00  0.00    +0.000 A 
ATOM     30  C   UNL     1     -31.097  90.808  19.065  0.00  0.00    +0.000 A 
ATOM     31  C   UNL     1     -30.088  91.101  18.144  0.00  0.00    +0.000 A 
ATOM     32  C   UNL     1     -30.023  90.431  16.922  0.00  0.00    +0.000 A 
ATOM     33  C   UNL     1     -30.972  89.451  16.626  0.00  0.00    +0.000 A 
BRANCH  30  34
ATOM     34  O   UNL     1     -31.062  91.528  20.234  0.00  0.00    +0.000 OA
ATOM     35  C   UNL     1     -31.971  91.121  21.217  0.00  0.00    +0.000 C 
ENDBRANCH  30  34
BRANCH  32  36
ATOM     36  O   UNL     1     -28.990  90.801  16.097  0.00  0.00    +0.000 OA
ATOM     37  C   UNL     1     -28.510  89.797  15.246  0.00  0.00    +0.000 C 
ENDBRANCH  32  36
ENDBRANCH  27  28
ENDBRANCH   8  26
TORSDOF 6
ENDMDL
MODEL 6
REMARK VINA RESULT:      -6.7      1.912      2.536
REMARK  Name = AZD4547.pdbqt.pdb
REMARK  6 active torsions:
REMARK  status: ('A' for Active; 'I' for Inactive)
REMARK    1  A    between atoms: C_3  and  C_23
REMARK    2  A    between atoms: C_8  and  C_11
REMARK    3  A    between atoms: C_12  and  C_13
REMARK    4  A    between atoms: C_15  and  O_19
REMARK    5  A    between atoms: C_17  and  O_21
REMARK    6  A    between atoms: C_26  and  N_29
REMARK                            x       y       z     vdW  Elec       q    Type
REMARK                         _______ _______ _______ _____ _____    ______ ____
ROOT
ATOM      1  O   UNL     1     -40.815 101.032   1.155  0.00  0.00    +0.000 OA
ATOM      2  N   UNL     1     -41.675 102.407   2.807  0.00  0.00    +0.000 N 
ATOM      3  C   UNL     1     -40.683 101.928   1.981  0.00  0.00    +0.000 C 
ATOM      4  H   UNL     1     -41.518 103.146   3.475  0.00  0.00    +0.000 HD
ATOM      5  C   UNL     1     -42.969 101.945   2.816  0.00  0.00    +0.000 A 
ATOM      6  N   UNL     1     -43.843 102.490   3.669  0.00  0.00    +0.000 NA
ATOM      7  N   UNL     1     -44.986 101.824   3.423  0.00  0.00    +0.000 N 
ATOM      8  C   UNL     1     -44.871 100.880   2.447  0.00  0.00    +0.000 A 
ATOM      9  H   UNL     1     -45.813 102.066   3.959  0.00  0.00    +0.000 HD
ATOM     10  C   UNL     1     -43.565 100.929   2.028  0.00  0.00    +0.000 A 
ENDROOT
BRANCH   3  11
ATOM     11  C   UNL     1     -39.352 102.568   2.127  0.00  0.00    +0.000 A 
ATOM     12  C   UNL     1     -39.040 103.651   1.306  0.00  0.00    +0.000 A 
ATOM     13  C   UNL     1     -37.800 104.276   1.415  0.00  0.00    +0.000 A 
ATOM     14  C   UNL     1     -36.839 103.828   2.331  0.00  0.00    +0.000 A 
ATOM     15  C   UNL     1     -37.177 102.750   3.160  0.00  0.00    +0.000 A 
ATOM     16  C   UNL     1     -38.417 102.119   3.057  0.00  0.00    +0.000 A 
BRANCH  14  17
ATOM     17  N   UNL     1     -35.598 104.492   2.471  0.00  0.00    +0.000 N 
ATOM     18  C   UNL     1     -35.274 105.106   3.770  0.00  0.00    +0.000 C 
ATOM     19  C   UNL     1     -34.834 106.390   4.207  0.00  0.00    +0.000 C 
ATOM     20  N   UNL     1     -34.638 107.377   3.194  0.00  0.00    +0.000 N 
ATOM     21  C   UNL     1     -34.616 106.722   5.640  0.00  0.00    +0.000 C 
ATOM     22  C   UNL     1     -34.896 107.004   1.840  0.00  0.00    +0.000 C 
ATOM     23  H   UNL     1     -34.350 108.314   3.430  0.00  0.00    +0.000 HD
ATOM     24  C   UNL     1     -35.330 105.664   1.619  0.00  0.00    +0.000 C 
ATOM     25  C   UNL     1     -34.757 107.993   0.740  0.00  0.00    +0.000 C 
ENDBRANCH  14  17
ENDBRANCH   3  11
BRANCH   8  26
ATOM     26  C   UNL     1     -45.918 100.042   1.992  0.00  0.00    +0.000 C 
ATOM     27  C   UNL     1     -47.048  99.135   1.496  0.00  0.00    +0.000 C 
BRANCH  27  28
ATOM     28  C   UNL     1     -48.096  98.291   1.026  0.00  0.00    +0.000 A 
ATOM     29  C   UNL     1     -48.459  98.318  -0.317  0.00  0.00    +0.000 A 
ATOM     30  C   UNL     1     -49.482  97.490  -0.785  0.00  0.00    +0.000 A 
ATOM     31  C   UNL     1     -50.130  96.633   0.108  0.00  0.00    +0.000 A 
ATOM     32  C   UNL     1     -49.773  96.606   1.457  0.00  0.00    +0.000 A 
ATOM     33  C   UNL     1     -48.749  97.439   1.911  0.00  0.00    +0.000 A 
BRANCH  30  34
ATOM     34  O   UNL     1     -49.914  97.430  -2.086  0.00  0.00    +0.000 OA
ATOM     35  C   UNL     1     -50.502  96.219  -2.469  0.00  0.00    +0.000 C 
ENDBRANCH  30  34
BRANCH  32  36
ATOM     36  O   UNL     1     -50.477  95.725   2.240  0.00  0.00    +0.000 OA
ATOM     37  C   UNL     1     -50.851  94.528   1.613  0.00  0.00    +0.000 C 
ENDBRANCH  32  36
ENDBRANCH  27  28
ENDBRANCH   8  26
TORSDOF 6
ENDMDL
MODEL 7
REMARK VINA RESULT:      -6.7     21.198     25.862
REMARK  Name = AZD4547.pdbqt.pdb
REMARK  6 active torsions:
REMARK  status: ('A' for Active; 'I' for Inactive)
REMARK    1  A    between atoms: C_3  and  C_23
REMARK    2  A    between atoms: C_8  and  C_11
REMARK    3  A    between atoms: C_12  and  C_13
REMARK    4  A    between atoms: C_15  and  O_19
REMARK    5  A    between atoms: C_17  and  O_21
REMARK    6  A    between atoms: C_26  and  N_29
REMARK                            x       y       z     vdW  Elec       q    Type
REMARK                         _______ _______ _______ _____ _____    ______ ____
ROOT
ATOM      1  O   UNL     1     -38.884  85.473  17.994  0.00  0.00    +0.000 OA
ATOM      2  N   UNL     1     -37.862  84.078  16.454  0.00  0.00    +0.000 N 
ATOM      3  C   UNL     1     -38.903  84.497  17.252  0.00  0.00    +0.000 C 
ATOM      4  H   UNL     1     -37.923  83.265  15.860  0.00  0.00    +0.000 HD
ATOM      5  C   UNL     1     -36.643  84.708  16.372  0.00  0.00    +0.000 A 
ATOM      6  N   UNL     1     -35.709  84.202  15.560  0.00  0.00    +0.000 NA
ATOM      7  N   UNL     1     -34.666  85.038  15.715  0.00  0.00    +0.000 N 
ATOM      8  C   UNL     1     -34.902  86.053  16.593  0.00  0.00    +0.000 A 
ATOM      9  H   UNL     1     -33.817  84.857  15.189  0.00  0.00    +0.000 HD
ATOM     10  C   UNL     1     -36.186  85.869  17.043  0.00  0.00    +0.000 A 
ENDROOT
BRANCH   3  11
ATOM     11  C   UNL     1     -40.139  83.677  17.190  0.00  0.00    +0.000 A 
ATOM     12  C   UNL     1     -40.016  82.288  17.187  0.00  0.00    +0.000 A 
ATOM     13  C   UNL     1     -41.154  81.486  17.130  0.00  0.00    +0.000 A 
ATOM     14  C   UNL     1     -42.435  82.049  17.059  0.00  0.00    +0.000 A 
ATOM     15  C   UNL     1     -42.540  83.447  17.082  0.00  0.00    +0.000 A 
ATOM     16  C   UNL     1     -41.405  84.255  17.139  0.00  0.00    +0.000 A 
BRANCH  14  17
ATOM     17  N   UNL     1     -43.591  81.234  17.046  0.00  0.00    +0.000 N 
ATOM     18  C   UNL     1     -44.765  81.695  16.284  0.00  0.00    +0.000 C 
ATOM     19  C   UNL     1     -46.153  81.868  16.561  0.00  0.00    +0.000 C 
ATOM     20  N   UNL     1     -46.588  81.536  17.880  0.00  0.00    +0.000 N 
ATOM     21  C   UNL     1     -47.114  82.399  15.558  0.00  0.00    +0.000 C 
ATOM     22  C   UNL     1     -45.610  81.063  18.806  0.00  0.00    +0.000 C 
ATOM     23  H   UNL     1     -47.551  81.655  18.155  0.00  0.00    +0.000 HD
ATOM     24  C   UNL     1     -44.271  80.963  18.324  0.00  0.00    +0.000 C 
ATOM     25  C   UNL     1     -45.984  80.741  20.208  0.00  0.00    +0.000 C 
ENDBRANCH  14  17
ENDBRANCH   3  11
BRANCH   8  26
ATOM     26  C   UNL     1     -33.979  87.070  16.936  0.00  0.00    +0.000 C 
ATOM     27  C   UNL     1     -32.978  88.170  17.305  0.00  0.00    +0.000 C 
BRANCH  27  28
ATOM     28  C   UNL     1     -32.043  89.191  17.639  0.00  0.00    +0.000 A 
ATOM     29  C   UNL     1     -32.201  89.919  18.815  0.00  0.00    +0.000 A 
ATOM     30  C   UNL     1     -31.285  90.919  19.150  0.00  0.00    +0.000 A 
ATOM     31  C   UNL     1     -30.208  91.174  18.297  0.00  0.00    +0.000 A 
ATOM     32  C   UNL     1     -30.048  90.450  17.115  0.00  0.00    +0.000 A 
ATOM     33  C   UNL     1     -30.971  89.454  16.791  0.00  0.00    +0.000 A 
BRANCH  30  34
ATOM     34  O   UNL     1     -31.340  91.690  20.285  0.00  0.00    +0.000 OA
ATOM     35  C   UNL     1     -32.559  92.340  20.510  0.00  0.00    +0.000 C 
ENDBRANCH  30  34
BRANCH  32  36
ATOM     36  O   UNL     1     -28.955  90.787  16.356  0.00  0.00    +0.000 OA
ATOM     37  C   UNL     1     -28.579  89.844  15.390  0.00  0.00    +0.000 C 
ENDBRANCH  32  36
ENDBRANCH  27  28
ENDBRANCH   8  26
TORSDOF 6
ENDMDL
MODEL 8
REMARK VINA RESULT:      -6.6     20.324     23.236
REMARK  Name = AZD4547.pdbqt.pdb
REMARK  6 active torsions:
REMARK  status: ('A' for Active; 'I' for Inactive)
REMARK    1  A    between atoms: C_3  and  C_23
REMARK    2  A    between atoms: C_8  and  C_11
REMARK    3  A    between atoms: C_12  and  C_13
REMARK    4  A    between atoms: C_15  and  O_19
REMARK    5  A    between atoms: C_17  and  O_21
REMARK    6  A    between atoms: C_26  and  N_29
REMARK                            x       y       z     vdW  Elec       q    Type
REMARK                         _______ _______ _______ _____ _____    ______ ____
ROOT
ATOM      1  O   UNL     1     -21.028 102.197   6.377  0.00  0.00    +0.000 OA
ATOM      2  N   UNL     1     -22.787 100.695   6.470  0.00  0.00    +0.000 N 
ATOM      3  C   UNL     1     -21.695 101.362   6.977  0.00  0.00    +0.000 C 
ATOM      4  H   UNL     1     -23.305 100.012   7.002  0.00  0.00    +0.000 HD
ATOM      5  C   UNL     1     -23.291 100.879   5.204  0.00  0.00    +0.000 A 
ATOM      6  N   UNL     1     -24.358 100.168   4.825  0.00  0.00    +0.000 NA
ATOM      7  N   UNL     1     -24.585 100.581   3.565  0.00  0.00    +0.000 N 
ATOM      8  C   UNL     1     -23.705 101.527   3.131  0.00  0.00    +0.000 A 
ATOM      9  H   UNL     1     -25.362 100.176   3.054  0.00  0.00    +0.000 HD
ATOM     10  C   UNL     1     -22.843 101.745   4.177  0.00  0.00    +0.000 A 
ENDROOT
BRANCH   3  11
ATOM     11  C   UNL     1     -21.315 101.020   8.370  0.00  0.00    +0.000 A 
ATOM     12  C   UNL     1     -20.569 101.942   9.103  0.00  0.00    +0.000 A 
ATOM     13  C   UNL     1     -20.194 101.654  10.413  0.00  0.00    +0.000 A 
ATOM     14  C   UNL     1     -20.541 100.438  11.017  0.00  0.00    +0.000 A 
ATOM     15  C   UNL     1     -21.307  99.531  10.272  0.00  0.00    +0.000 A 
ATOM     16  C   UNL     1     -21.686  99.813   8.959  0.00  0.00    +0.000 A 
BRANCH  14  17
ATOM     17  N   UNL     1     -20.198 100.166  12.362  0.00  0.00    +0.000 N 
ATOM     18  C   UNL     1     -19.437 101.182  13.111  0.00  0.00    +0.000 C 
ATOM     19  C   UNL     1     -18.245 101.189  13.893  0.00  0.00    +0.000 C 
ATOM     20  N   UNL     1     -17.564  99.941  14.029  0.00  0.00    +0.000 N 
ATOM     21  C   UNL     1     -17.698 102.423  14.516  0.00  0.00    +0.000 C 
ATOM     22  C   UNL     1     -18.124  98.801  13.378  0.00  0.00    +0.000 C 
ATOM     23  H   UNL     1     -16.702  99.874  14.549  0.00  0.00    +0.000 HD
ATOM     24  C   UNL     1     -19.327  99.012  12.643  0.00  0.00    +0.000 C 
ATOM     25  C   UNL     1     -17.444  97.480  13.441  0.00  0.00    +0.000 C 
ENDBRANCH  14  17
ENDBRANCH   3  11
BRANCH   8  26
ATOM     26  C   UNL     1     -23.719 102.132   1.852  0.00  0.00    +0.000 C 
ATOM     27  C   UNL     1     -23.738 102.788   0.467  0.00  0.00    +0.000 C 
BRANCH  27  28
ATOM     28  C   UNL     1     -23.764 103.400  -0.819  0.00  0.00    +0.000 A 
ATOM     29  C   UNL     1     -22.728 103.168  -1.720  0.00  0.00    +0.000 A 
ATOM     30  C   UNL     1     -22.751 103.761  -2.984  0.00  0.00    +0.000 A 
ATOM     31  C   UNL     1     -23.825 104.584  -3.335  0.00  0.00    +0.000 A 
ATOM     32  C   UNL     1     -24.863 104.823  -2.433  0.00  0.00    +0.000 A 
ATOM     33  C   UNL     1     -24.828 104.224  -1.173  0.00  0.00    +0.000 A 
BRANCH  30  34
ATOM     34  O   UNL     1     -21.790 103.596  -3.950  0.00  0.00    +0.000 OA
ATOM     35  C   UNL     1     -21.265 102.303  -4.060  0.00  0.00    +0.000 C 
ENDBRANCH  30  34
BRANCH  32  36
ATOM     36  O   UNL     1     -25.864 105.647  -2.886  0.00  0.00    +0.000 OA
ATOM     37  C   UNL     1     -25.560 106.386  -4.037  0.00  0.00    +0.000 C 
ENDBRANCH  32  36
ENDBRANCH  27  28
ENDBRANCH   8  26
TORSDOF 6
ENDMDL
MODEL 9
REMARK VINA RESULT:      -6.5     19.184     23.001
REMARK  Name = AZD4547.pdbqt.pdb
REMARK  6 active torsions:
REMARK  status: ('A' for Active; 'I' for Inactive)
REMARK    1  A    between atoms: C_3  and  C_23
REMARK    2  A    between atoms: C_8  and  C_11
REMARK    3  A    between atoms: C_12  and  C_13
REMARK    4  A    between atoms: C_15  and  O_19
REMARK    5  A    between atoms: C_17  and  O_21
REMARK    6  A    between atoms: C_26  and  N_29
REMARK                            x       y       z     vdW  Elec       q    Type
REMARK                         _______ _______ _______ _____ _____    ______ ____
ROOT
ATOM      1  O   UNL     1     -20.575 100.209   3.833  0.00  0.00    +0.000 OA
ATOM      2  N   UNL     1     -22.371  99.063   4.741  0.00  0.00    +0.000 N 
ATOM      3  C   UNL     1     -21.052  99.220   4.381  0.00  0.00    +0.000 C 
ATOM      4  H   UNL     1     -22.719  98.229   5.188  0.00  0.00    +0.000 HD
ATOM      5  C   UNL     1     -23.349 100.007   4.538  0.00  0.00    +0.000 A 
ATOM      6  N   UNL     1     -24.598  99.735   4.931  0.00  0.00    +0.000 NA
ATOM      7  N   UNL     1     -25.286 100.842   4.594  0.00  0.00    +0.000 N 
ATOM      8  C   UNL     1     -24.522 101.804   4.004  0.00  0.00    +0.000 A 
ATOM      9  H   UNL     1     -26.280 100.876   4.796  0.00  0.00    +0.000 HD
ATOM     10  C   UNL     1     -23.249 101.292   3.950  0.00  0.00    +0.000 A 
ENDROOT
BRANCH   3  11
ATOM     11  C   UNL     1     -20.154  98.080   4.692  0.00  0.00    +0.000 A 
ATOM     12  C   UNL     1     -20.039  97.667   6.019  0.00  0.00    +0.000 A 
ATOM     13  C   UNL     1     -19.205  96.600   6.348  0.00  0.00    +0.000 A 
ATOM     14  C   UNL     1     -18.458  95.934   5.368  0.00  0.00    +0.000 A 
ATOM     15  C   UNL     1     -18.600  96.352   4.038  0.00  0.00    +0.000 A 
ATOM     16  C   UNL     1     -19.433  97.418   3.701  0.00  0.00    +0.000 A 
BRANCH  14  17
ATOM     17  N   UNL     1     -17.646  94.823   5.699  0.00  0.00    +0.000 N 
ATOM     18  C   UNL     1     -18.196  93.470   5.503  0.00  0.00    +0.000 C 
ATOM     19  C   UNL     1     -18.327  92.299   6.306  0.00  0.00    +0.000 C 
ATOM     20  N   UNL     1     -17.826  92.381   7.641  0.00  0.00    +0.000 N 
ATOM     21  C   UNL     1     -18.978  91.056   5.816  0.00  0.00    +0.000 C 
ATOM     22  C   UNL     1     -17.243  93.614   8.060  0.00  0.00    +0.000 C 
ATOM     23  H   UNL     1     -17.905  91.600   8.274  0.00  0.00    +0.000 HD
ATOM     24  C   UNL     1     -17.210  94.665   7.097  0.00  0.00    +0.000 C 
ATOM     25  C   UNL     1     -16.742  93.784   9.449  0.00  0.00    +0.000 C 
ENDBRANCH  14  17
ENDBRANCH   3  11
BRANCH   8  26
ATOM     26  C   UNL     1     -24.992 103.062   3.556  0.00  0.00    +0.000 C 
ATOM     27  C   UNL     1     -25.497 104.425   3.073  0.00  0.00    +0.000 C 
BRANCH  27  28
ATOM     28  C   UNL     1     -25.959 105.697   2.628  0.00  0.00    +0.000 A 
ATOM     29  C   UNL     1     -26.252 106.693   3.556  0.00  0.00    +0.000 A 
ATOM     30  C   UNL     1     -26.701 107.943   3.125  0.00  0.00    +0.000 A 
ATOM     31  C   UNL     1     -26.848 108.184   1.757  0.00  0.00    +0.000 A 
ATOM     32  C   UNL     1     -26.561 107.187   0.823  0.00  0.00    +0.000 A 
ATOM     33  C   UNL     1     -26.113 105.941   1.266  0.00  0.00    +0.000 A 
BRANCH  30  34
ATOM     34  O   UNL     1     -27.010 108.996   3.950  0.00  0.00    +0.000 OA
ATOM     35  C   UNL     1     -26.867 108.748   5.320  0.00  0.00    +0.000 C 
ENDBRANCH  30  34
BRANCH  32  36
ATOM     36  O   UNL     1     -26.742 107.536  -0.492  0.00  0.00    +0.000 OA
ATOM     37  C   UNL     1     -26.527 106.510  -1.422  0.00  0.00    +0.000 C 
ENDBRANCH  32  36
ENDBRANCH  27  28
ENDBRANCH   8  26
TORSDOF 6
ENDMDL
