MODEL 1
REMARK VINA RESULT:      -6.2      0.000      0.000
REMARK  Name = Belinostat.pdbqt.pdb
REMARK  6 active torsions:
REMARK  status: ('A' for Active; 'I' for Inactive)
REMARK    1  A    between atoms: C_1  and  S_7
REMARK    2  A    between atoms: C_3  and  C_18
REMARK    3  A    between atoms: S_7  and  N_10
REMARK    4  A    between atoms: N_10  and  C_12
REMARK    5  A    between atoms: C_19  and  C_20
REMARK    6  A    between atoms: N_22  and  O_24
REMARK                            x       y       z     vdW  Elec       q    Type
REMARK                         _______ _______ _______ _____ _____    ______ ____
ROOT
ATOM      1  C   UNL     1     -38.882 103.097   4.119  0.00  0.00    +0.000 A 
ATOM      2  C   UNL     1     -38.072 104.106   4.628  0.00  0.00    +0.000 A 
ATOM      3  C   UNL     1     -36.753 104.196   4.195  0.00  0.00    +0.000 A 
ATOM      4  C   UNL     1     -38.411 102.198   3.168  0.00  0.00    +0.000 A 
ATOM      5  C   UNL     1     -36.260 103.292   3.253  0.00  0.00    +0.000 A 
ATOM      6  C   UNL     1     -37.090 102.295   2.739  0.00  0.00    +0.000 A 
ENDROOT
BRANCH   1   7
ATOM      7  S   UNL     1     -40.560 103.000   4.627  0.00  0.00    +0.000 S 
ATOM      8  O   UNL     1     -41.306 103.932   3.809  0.00  0.00    +0.000 OA
ATOM      9  O   UNL     1     -40.600 103.074   6.071  0.00  0.00    +0.000 OA
BRANCH   7  10
ATOM     10  N   UNL     1     -41.024 101.466   4.141  0.00  0.00    +0.000 N 
ATOM     11  H   UNL     1     -40.417 100.717   4.470  0.00  0.00    +0.000 HD
BRANCH  10  12
ATOM     12  C   UNL     1     -42.335 101.155   3.680  0.00  0.00    +0.000 A 
ATOM     13  C   UNL     1     -43.467 101.282   4.483  0.00  0.00    +0.000 A 
ATOM     14  C   UNL     1     -44.734 101.044   3.957  0.00  0.00    +0.000 A 
ATOM     15  C   UNL     1     -44.877 100.704   2.615  0.00  0.00    +0.000 A 
ATOM     16  C   UNL     1     -43.753 100.611   1.799  0.00  0.00    +0.000 A 
ATOM     17  C   UNL     1     -42.488 100.849   2.328  0.00  0.00    +0.000 A 
ENDBRANCH  10  12
ENDBRANCH   7  10
ENDBRANCH   1   7
BRANCH   3  18
ATOM     18  C   UNL     1     -35.903 105.216   4.717  0.00  0.00    +0.000 C 
ATOM     19  C   UNL     1     -35.185 106.072   5.157  0.00  0.00    +0.000 C 
BRANCH  19  20
ATOM     20  C   UNL     1     -34.323 107.099   5.686  0.00  0.00    +0.000 C 
ATOM     21  O   UNL     1     -34.209 108.174   5.107  0.00  0.00    +0.000 OA
ATOM     22  N   UNL     1     -33.671 106.794   6.848  0.00  0.00    +0.000 N 
ATOM     23  H   UNL     1     -33.798 105.934   7.368  0.00  0.00    +0.000 HD
BRANCH  22  24
ATOM     24  O   UNL     1     -32.855 107.794   7.421  0.00  0.00    +0.000 OA
ATOM     25  H   UNL     1     -32.038 107.743   6.879  0.00  0.00    +0.000 HD
ENDBRANCH  22  24
ENDBRANCH  19  20
ENDBRANCH   3  18
TORSDOF 6
ENDMDL
MODEL 2
REMARK VINA RESULT:      -6.1     13.260     16.019
REMARK  Name = Belinostat.pdbqt.pdb
REMARK  6 active torsions:
REMARK  status: ('A' for Active; 'I' for Inactive)
REMARK    1  A    between atoms: C_1  and  S_7
REMARK    2  A    between atoms: C_3  and  C_18
REMARK    3  A    between atoms: S_7  and  N_10
REMARK    4  A    between atoms: N_10  and  C_12
REMARK    5  A    between atoms: C_19  and  C_20
REMARK    6  A    between atoms: N_22  and  O_24
REMARK                            x       y       z     vdW  Elec       q    Type
REMARK                         _______ _______ _______ _____ _____    ______ ____
ROOT
ATOM      1  C   UNL     1     -24.059 101.620   3.526  0.00  0.00    +0.000 A 
ATOM      2  C   UNL     1     -24.805 102.787   3.642  0.00  0.00    +0.000 A 
ATOM      3  C   UNL     1     -24.832 103.680   2.576  0.00  0.00    +0.000 A 
ATOM      4  C   UNL     1     -23.367 101.312   2.360  0.00  0.00    +0.000 A 
ATOM      5  C   UNL     1     -24.131 103.394   1.404  0.00  0.00    +0.000 A 
ATOM      6  C   UNL     1     -23.400 102.210   1.296  0.00  0.00    +0.000 A 
ENDROOT
BRANCH   1   7
ATOM      7  S   UNL     1     -24.050 100.467   4.851  0.00  0.00    +0.000 S 
ATOM      8  O   UNL     1     -22.730  99.877   4.892  0.00  0.00    +0.000 OA
ATOM      9  O   UNL     1     -25.234  99.642   4.741  0.00  0.00    +0.000 OA
BRANCH   7  10
ATOM     10  N   UNL     1     -24.179 101.437   6.211  0.00  0.00    +0.000 N 
ATOM     11  H   UNL     1     -25.131 101.714   6.443  0.00  0.00    +0.000 HD
BRANCH  10  12
ATOM     12  C   UNL     1     -23.158 101.539   7.197  0.00  0.00    +0.000 A 
ATOM     13  C   UNL     1     -22.131 102.479   7.126  0.00  0.00    +0.000 A 
ATOM     14  C   UNL     1     -21.204 102.591   8.160  0.00  0.00    +0.000 A 
ATOM     15  C   UNL     1     -21.317 101.778   9.284  0.00  0.00    +0.000 A 
ATOM     16  C   UNL     1     -22.361 100.862   9.378  0.00  0.00    +0.000 A 
ATOM     17  C   UNL     1     -23.285 100.753   8.342  0.00  0.00    +0.000 A 
ENDBRANCH  10  12
ENDBRANCH   7  10
ENDBRANCH   1   7
BRANCH   3  18
ATOM     18  C   UNL     1     -25.580 104.890   2.682  0.00  0.00    +0.000 C 
ATOM     19  C   UNL     1     -26.212 105.907   2.769  0.00  0.00    +0.000 C 
BRANCH  19  20
ATOM     20  C   UNL     1     -26.971 107.129   2.874  0.00  0.00    +0.000 C 
ATOM     21  O   UNL     1     -26.514 108.096   3.472  0.00  0.00    +0.000 OA
ATOM     22  N   UNL     1     -28.194 107.126   2.265  0.00  0.00    +0.000 N 
ATOM     23  H   UNL     1     -28.562 106.356   1.717  0.00  0.00    +0.000 HD
BRANCH  22  24
ATOM     24  O   UNL     1     -28.946 108.321   2.305  0.00  0.00    +0.000 OA
ATOM     25  H   UNL     1     -29.786 108.062   1.867  0.00  0.00    +0.000 HD
ENDBRANCH  22  24
ENDBRANCH  19  20
ENDBRANCH   3  18
TORSDOF 6
ENDMDL
MODEL 3
REMARK VINA RESULT:      -5.9      3.180      8.186
REMARK  Name = Belinostat.pdbqt.pdb
REMARK  6 active torsions:
REMARK  status: ('A' for Active; 'I' for Inactive)
REMARK    1  A    between atoms: C_1  and  S_7
REMARK    2  A    between atoms: C_3  and  C_18
REMARK    3  A    between atoms: S_7  and  N_10
REMARK    4  A    between atoms: N_10  and  C_12
REMARK    5  A    between atoms: C_19  and  C_20
REMARK    6  A    between atoms: N_22  and  O_24
REMARK                            x       y       z     vdW  Elec       q    Type
REMARK                         _______ _______ _______ _____ _____    ______ ____
ROOT
ATOM      1  C   UNL     1     -41.348 102.835   4.246  0.00  0.00    +0.000 A 
ATOM      2  C   UNL     1     -41.606 103.038   2.895  0.00  0.00    +0.000 A 
ATOM      3  C   UNL     1     -42.203 102.018   2.161  0.00  0.00    +0.000 A 
ATOM      4  C   UNL     1     -41.701 101.649   4.883  0.00  0.00    +0.000 A 
ATOM      5  C   UNL     1     -42.549 100.817   2.781  0.00  0.00    +0.000 A 
ATOM      6  C   UNL     1     -42.299 100.635   4.142  0.00  0.00    +0.000 A 
ENDROOT
BRANCH   1   7
ATOM      7  S   UNL     1     -40.632 104.130   5.191  0.00  0.00    +0.000 S 
ATOM      8  O   UNL     1     -41.402 104.240   6.411  0.00  0.00    +0.000 OA
ATOM      9  O   UNL     1     -40.440 105.271   4.322  0.00  0.00    +0.000 OA
BRANCH   7  10
ATOM     10  N   UNL     1     -39.138 103.512   5.627  0.00  0.00    +0.000 N 
ATOM     11  H   UNL     1     -39.141 102.967   6.489  0.00  0.00    +0.000 HD
BRANCH  10  12
ATOM     12  C   UNL     1     -38.051 103.380   4.718  0.00  0.00    +0.000 A 
ATOM     13  C   UNL     1     -37.986 102.369   3.762  0.00  0.00    +0.000 A 
ATOM     14  C   UNL     1     -36.941 102.333   2.842  0.00  0.00    +0.000 A 
ATOM     15  C   UNL     1     -35.968 103.328   2.858  0.00  0.00    +0.000 A 
ATOM     16  C   UNL     1     -36.046 104.361   3.788  0.00  0.00    +0.000 A 
ATOM     17  C   UNL     1     -37.092 104.393   4.706  0.00  0.00    +0.000 A 
ENDBRANCH  10  12
ENDBRANCH   7  10
ENDBRANCH   1   7
BRANCH   3  18
ATOM     18  C   UNL     1     -42.462 102.203   0.770  0.00  0.00    +0.000 C 
ATOM     19  C   UNL     1     -42.677 102.359  -0.401  0.00  0.00    +0.000 C 
BRANCH  19  20
ATOM     20  C   UNL     1     -42.934 102.547  -1.807  0.00  0.00    +0.000 C 
ATOM     21  O   UNL     1     -42.518 103.543  -2.388  0.00  0.00    +0.000 OA
ATOM     22  N   UNL     1     -43.647 101.557  -2.422  0.00  0.00    +0.000 N 
ATOM     23  H   UNL     1     -43.949 100.701  -1.970  0.00  0.00    +0.000 HD
BRANCH  22  24
ATOM     24  O   UNL     1     -43.877 101.683  -3.810  0.00  0.00    +0.000 OA
ATOM     25  H   UNL     1     -42.988 101.514  -4.192  0.00  0.00    +0.000 HD
ENDBRANCH  22  24
ENDBRANCH  19  20
ENDBRANCH   3  18
TORSDOF 6
ENDMDL
MODEL 4
REMARK VINA RESULT:      -5.7     17.567     20.152
REMARK  Name = Belinostat.pdbqt.pdb
REMARK  6 active torsions:
REMARK  status: ('A' for Active; 'I' for Inactive)
REMARK    1  A    between atoms: C_1  and  S_7
REMARK    2  A    between atoms: C_3  and  C_18
REMARK    3  A    between atoms: S_7  and  N_10
REMARK    4  A    between atoms: N_10  and  C_12
REMARK    5  A    between atoms: C_19  and  C_20
REMARK    6  A    between atoms: N_22  and  O_24
REMARK                            x       y       z     vdW  Elec       q    Type
REMARK                         _______ _______ _______ _____ _____    ______ ____
ROOT
ATOM      1  C   UNL     1     -35.152  89.353  -8.968  0.00  0.00    +0.000 A 
ATOM      2  C   UNL     1     -35.948  89.896  -7.966  0.00  0.00    +0.000 A 
ATOM      3  C   UNL     1     -36.814  90.938  -8.281  0.00  0.00    +0.000 A 
ATOM      4  C   UNL     1     -35.224  89.808 -10.280  0.00  0.00    +0.000 A 
ATOM      5  C   UNL     1     -36.887  91.417  -9.589  0.00  0.00    +0.000 A 
ATOM      6  C   UNL     1     -36.094  90.851 -10.588  0.00  0.00    +0.000 A 
ENDROOT
BRANCH   1   7
ATOM      7  S   UNL     1     -34.086  88.010  -8.589  0.00  0.00    +0.000 S 
ATOM      8  O   UNL     1     -34.772  86.799  -8.986  0.00  0.00    +0.000 OA
ATOM      9  O   UNL     1     -33.599  88.185  -7.238  0.00  0.00    +0.000 OA
BRANCH   7  10
ATOM     10  N   UNL     1     -32.815  88.208  -9.663  0.00  0.00    +0.000 N 
ATOM     11  H   UNL     1     -33.099  88.416 -10.619  0.00  0.00    +0.000 HD
BRANCH  10  12
ATOM     12  C   UNL     1     -31.481  88.482  -9.252  0.00  0.00    +0.000 A 
ATOM     13  C   UNL     1     -30.462  87.533  -9.312  0.00  0.00    +0.000 A 
ATOM     14  C   UNL     1     -29.155  87.878  -8.975  0.00  0.00    +0.000 A 
ATOM     15  C   UNL     1     -28.857  89.185  -8.601  0.00  0.00    +0.000 A 
ATOM     16  C   UNL     1     -29.862  90.147  -8.574  0.00  0.00    +0.000 A 
ATOM     17  C   UNL     1     -31.167  89.798  -8.911  0.00  0.00    +0.000 A 
ENDBRANCH  10  12
ENDBRANCH   7  10
ENDBRANCH   1   7
BRANCH   3  18
ATOM     18  C   UNL     1     -37.628  91.517  -7.263  0.00  0.00    +0.000 C 
ATOM     19  C   UNL     1     -38.312  92.002  -6.403  0.00  0.00    +0.000 C 
BRANCH  19  20
ATOM     20  C   UNL     1     -39.133  92.585  -5.371  0.00  0.00    +0.000 C 
ATOM     21  O   UNL     1     -38.631  92.972  -4.322  0.00  0.00    +0.000 OA
ATOM     22  N   UNL     1     -40.467  92.678  -5.650  0.00  0.00    +0.000 N 
ATOM     23  H   UNL     1     -40.889  92.416  -6.533  0.00  0.00    +0.000 HD
BRANCH  22  24
ATOM     24  O   UNL     1     -41.296  93.287  -4.682  0.00  0.00    +0.000 OA
ATOM     25  H   UNL     1     -41.314  94.225  -4.973  0.00  0.00    +0.000 HD
ENDBRANCH  22  24
ENDBRANCH  19  20
ENDBRANCH   3  18
TORSDOF 6
ENDMDL
MODEL 5
REMARK VINA RESULT:      -5.5     15.918     17.762
REMARK  Name = Belinostat.pdbqt.pdb
REMARK  6 active torsions:
REMARK  status: ('A' for Active; 'I' for Inactive)
REMARK    1  A    between atoms: C_1  and  S_7
REMARK    2  A    between atoms: C_3  and  C_18
REMARK    3  A    between atoms: S_7  and  N_10
REMARK    4  A    between atoms: N_10  and  C_12
REMARK    5  A    between atoms: C_19  and  C_20
REMARK    6  A    between atoms: N_22  and  O_24
REMARK                            x       y       z     vdW  Elec       q    Type
REMARK                         _______ _______ _______ _____ _____    ______ ____
ROOT
ATOM      1  C   UNL     1     -23.086 102.103   3.153  0.00  0.00    +0.000 A 
ATOM      2  C   UNL     1     -23.661 102.279   1.900  0.00  0.00    +0.000 A 
ATOM      3  C   UNL     1     -22.912 102.877   0.891  0.00  0.00    +0.000 A 
ATOM      4  C   UNL     1     -21.773 102.485   3.410  0.00  0.00    +0.000 A 
ATOM      5  C   UNL     1     -21.599 103.279   1.137  0.00  0.00    +0.000 A 
ATOM      6  C   UNL     1     -21.030 103.081   2.395  0.00  0.00    +0.000 A 
ENDROOT
BRANCH   1   7
ATOM      7  S   UNL     1     -24.007 101.313   4.422  0.00  0.00    +0.000 S 
ATOM      8  O   UNL     1     -25.360 101.160   3.931  0.00  0.00    +0.000 OA
ATOM      9  O   UNL     1     -23.736 101.994   5.669  0.00  0.00    +0.000 OA
BRANCH   7  10
ATOM     10  N   UNL     1     -23.348  99.774   4.479  0.00  0.00    +0.000 N 
ATOM     11  H   UNL     1     -23.792  99.100   3.857  0.00  0.00    +0.000 HD
BRANCH  10  12
ATOM     12  C   UNL     1     -22.054  99.497   5.003  0.00  0.00    +0.000 A 
ATOM     13  C   UNL     1     -21.764  99.548   6.365  0.00  0.00    +0.000 A 
ATOM     14  C   UNL     1     -20.502  99.188   6.832  0.00  0.00    +0.000 A 
ATOM     15  C   UNL     1     -19.530  98.749   5.938  0.00  0.00    +0.000 A 
ATOM     16  C   UNL     1     -19.824  98.661   4.580  0.00  0.00    +0.000 A 
ATOM     17  C   UNL     1     -21.086  99.023   4.117  0.00  0.00    +0.000 A 
ENDBRANCH  10  12
ENDBRANCH   7  10
ENDBRANCH   1   7
BRANCH   3  18
ATOM     18  C   UNL     1     -23.491 103.078  -0.397  0.00  0.00    +0.000 C 
ATOM     19  C   UNL     1     -23.978 103.250  -1.481  0.00  0.00    +0.000 C 
BRANCH  19  20
ATOM     20  C   UNL     1     -24.563 103.458  -2.782  0.00  0.00    +0.000 C 
ATOM     21  O   UNL     1     -25.602 104.098  -2.902  0.00  0.00    +0.000 OA
ATOM     22  N   UNL     1     -23.887 102.911  -3.836  0.00  0.00    +0.000 N 
ATOM     23  H   UNL     1     -22.998 102.429  -3.761  0.00  0.00    +0.000 HD
BRANCH  22  24
ATOM     24  O   UNL     1     -24.404 103.135  -5.131  0.00  0.00    +0.000 OA
ATOM     25  H   UNL     1     -24.842 102.281  -5.339  0.00  0.00    +0.000 HD
ENDBRANCH  22  24
ENDBRANCH  19  20
ENDBRANCH   3  18
TORSDOF 6
ENDMDL
MODEL 6
REMARK VINA RESULT:      -5.4      2.260      3.026
REMARK  Name = Belinostat.pdbqt.pdb
REMARK  6 active torsions:
REMARK  status: ('A' for Active; 'I' for Inactive)
REMARK    1  A    between atoms: C_1  and  S_7
REMARK    2  A    between atoms: C_3  and  C_18
REMARK    3  A    between atoms: S_7  and  N_10
REMARK    4  A    between atoms: N_10  and  C_12
REMARK    5  A    between atoms: C_19  and  C_20
REMARK    6  A    between atoms: N_22  and  O_24
REMARK                            x       y       z     vdW  Elec       q    Type
REMARK                         _______ _______ _______ _____ _____    ______ ____
ROOT
ATOM      1  C   UNL     1     -38.826 102.929   4.142  0.00  0.00    +0.000 A 
ATOM      2  C   UNL     1     -38.115 103.966   4.736  0.00  0.00    +0.000 A 
ATOM      3  C   UNL     1     -36.798 104.190   4.349  0.00  0.00    +0.000 A 
ATOM      4  C   UNL     1     -38.258 102.133   3.152  0.00  0.00    +0.000 A 
ATOM      5  C   UNL     1     -36.209 103.392   3.369  0.00  0.00    +0.000 A 
ATOM      6  C   UNL     1     -36.940 102.365   2.770  0.00  0.00    +0.000 A 
ENDROOT
BRANCH   1   7
ATOM      7  S   UNL     1     -40.501 102.662   4.594  0.00  0.00    +0.000 S 
ATOM      8  O   UNL     1     -40.655 103.135   5.953  0.00  0.00    +0.000 OA
ATOM      9  O   UNL     1     -40.858 101.308   4.228  0.00  0.00    +0.000 OA
BRANCH   7  10
ATOM     10  N   UNL     1     -41.341 103.735   3.620  0.00  0.00    +0.000 N 
ATOM     11  H   UNL     1     -41.966 104.363   4.125  0.00  0.00    +0.000 HD
BRANCH  10  12
ATOM     12  C   UNL     1     -40.949 104.056   2.290  0.00  0.00    +0.000 A 
ATOM     13  C   UNL     1     -41.213 103.223   1.204  0.00  0.00    +0.000 A 
ATOM     14  C   UNL     1     -40.880 103.622  -0.088  0.00  0.00    +0.000 A 
ATOM     15  C   UNL     1     -40.305 104.871  -0.303  0.00  0.00    +0.000 A 
ATOM     16  C   UNL     1     -40.072 105.723   0.773  0.00  0.00    +0.000 A 
ATOM     17  C   UNL     1     -40.405 105.320   2.064  0.00  0.00    +0.000 A 
ENDBRANCH  10  12
ENDBRANCH   7  10
ENDBRANCH   1   7
BRANCH   3  18
ATOM     18  C   UNL     1     -36.049 105.241   4.958  0.00  0.00    +0.000 C 
ATOM     19  C   UNL     1     -35.417 106.125   5.468  0.00  0.00    +0.000 C 
BRANCH  19  20
ATOM     20  C   UNL     1     -34.657 107.186   6.080  0.00  0.00    +0.000 C 
ATOM     21  O   UNL     1     -34.947 108.359   5.872  0.00  0.00    +0.000 OA
ATOM     22  N   UNL     1     -33.628 106.795   6.891  0.00  0.00    +0.000 N 
ATOM     23  H   UNL     1     -33.412 105.832   7.119  0.00  0.00    +0.000 HD
BRANCH  22  24
ATOM     24  O   UNL     1     -32.892 107.806   7.546  0.00  0.00    +0.000 OA
ATOM     25  H   UNL     1     -32.351 107.298   8.189  0.00  0.00    +0.000 HD
ENDBRANCH  22  24
ENDBRANCH  19  20
ENDBRANCH   3  18
TORSDOF 6
ENDMDL
MODEL 7
REMARK VINA RESULT:      -5.4     14.742     16.060
REMARK  Name = Belinostat.pdbqt.pdb
REMARK  6 active torsions:
REMARK  status: ('A' for Active; 'I' for Inactive)
REMARK    1  A    between atoms: C_1  and  S_7
REMARK    2  A    between atoms: C_3  and  C_18
REMARK    3  A    between atoms: S_7  and  N_10
REMARK    4  A    between atoms: N_10  and  C_12
REMARK    5  A    between atoms: C_19  and  C_20
REMARK    6  A    between atoms: N_22  and  O_24
REMARK                            x       y       z     vdW  Elec       q    Type
REMARK                         _______ _______ _______ _____ _____    ______ ____
ROOT
ATOM      1  C   UNL     1     -22.551 102.526   5.811  0.00  0.00    +0.000 A 
ATOM      2  C   UNL     1     -23.219 103.387   6.675  0.00  0.00    +0.000 A 
ATOM      3  C   UNL     1     -22.766 104.695   6.809  0.00  0.00    +0.000 A 
ATOM      4  C   UNL     1     -21.462 102.953   5.058  0.00  0.00    +0.000 A 
ATOM      5  C   UNL     1     -21.666 105.135   6.073  0.00  0.00    +0.000 A 
ATOM      6  C   UNL     1     -21.016 104.265   5.197  0.00  0.00    +0.000 A 
ENDROOT
BRANCH   1   7
ATOM      7  S   UNL     1     -23.139 100.885   5.604  0.00  0.00    +0.000 S 
ATOM      8  O   UNL     1     -23.662 100.457   6.883  0.00  0.00    +0.000 OA
ATOM      9  O   UNL     1     -22.118 100.121   4.920  0.00  0.00    +0.000 OA
BRANCH   7  10
ATOM     10  N   UNL     1     -24.460 101.070   4.590  0.00  0.00    +0.000 N 
ATOM     11  H   UNL     1     -25.353 100.817   5.010  0.00  0.00    +0.000 HD
BRANCH  10  12
ATOM     12  C   UNL     1     -24.439 101.880   3.420  0.00  0.00    +0.000 A 
ATOM     13  C   UNL     1     -24.884 103.200   3.408  0.00  0.00    +0.000 A 
ATOM     14  C   UNL     1     -24.766 103.975   2.256  0.00  0.00    +0.000 A 
ATOM     15  C   UNL     1     -24.175 103.438   1.117  0.00  0.00    +0.000 A 
ATOM     16  C   UNL     1     -23.694 102.131   1.133  0.00  0.00    +0.000 A 
ATOM     17  C   UNL     1     -23.816 101.360   2.286  0.00  0.00    +0.000 A 
ENDBRANCH  10  12
ENDBRANCH   7  10
ENDBRANCH   1   7
BRANCH   3  18
ATOM     18  C   UNL     1     -23.430 105.588   7.701  0.00  0.00    +0.000 C 
ATOM     19  C   UNL     1     -23.992 106.339   8.451  0.00  0.00    +0.000 C 
BRANCH  19  20
ATOM     20  C   UNL     1     -24.667 107.240   9.352  0.00  0.00    +0.000 C 
ATOM     21  O   UNL     1     -24.230 107.434  10.481  0.00  0.00    +0.000 OA
ATOM     22  N   UNL     1     -25.789 107.847   8.861  0.00  0.00    +0.000 N 
ATOM     23  H   UNL     1     -26.130 107.742   7.912  0.00  0.00    +0.000 HD
BRANCH  22  24
ATOM     24  O   UNL     1     -26.450 108.773   9.698  0.00  0.00    +0.000 OA
ATOM     25  H   UNL     1     -27.184 109.091   9.129  0.00  0.00    +0.000 HD
ENDBRANCH  22  24
ENDBRANCH  19  20
ENDBRANCH   3  18
TORSDOF 6
ENDMDL
MODEL 8
REMARK VINA RESULT:      -5.3     16.044     17.934
REMARK  Name = Belinostat.pdbqt.pdb
REMARK  6 active torsions:
REMARK  status: ('A' for Active; 'I' for Inactive)
REMARK    1  A    between atoms: C_1  and  S_7
REMARK    2  A    between atoms: C_3  and  C_18
REMARK    3  A    between atoms: S_7  and  N_10
REMARK    4  A    between atoms: N_10  and  C_12
REMARK    5  A    between atoms: C_19  and  C_20
REMARK    6  A    between atoms: N_22  and  O_24
REMARK                            x       y       z     vdW  Elec       q    Type
REMARK                         _______ _______ _______ _____ _____    ______ ____
ROOT
ATOM      1  C   UNL     1     -32.318  98.560  18.762  0.00  0.00    +0.000 A 
ATOM      2  C   UNL     1     -31.264  98.260  19.618  0.00  0.00    +0.000 A 
ATOM      3  C   UNL     1     -30.686  99.284  20.362  0.00  0.00    +0.000 A 
ATOM      4  C   UNL     1     -32.825  99.852  18.658  0.00  0.00    +0.000 A 
ATOM      5  C   UNL     1     -31.172 100.587  20.258  0.00  0.00    +0.000 A 
ATOM      6  C   UNL     1     -32.242 100.870  19.407  0.00  0.00    +0.000 A 
ENDROOT
BRANCH   1   7
ATOM      7  S   UNL     1     -33.081  97.269  17.849  0.00  0.00    +0.000 S 
ATOM      8  O   UNL     1     -34.431  97.700  17.552  0.00  0.00    +0.000 OA
ATOM      9  O   UNL     1     -32.828  96.020  18.533  0.00  0.00    +0.000 OA
BRANCH   7  10
ATOM     10  N   UNL     1     -32.250  97.279  16.395  0.00  0.00    +0.000 N 
ATOM     11  H   UNL     1     -32.372  96.438  15.833  0.00  0.00    +0.000 HD
BRANCH  10  12
ATOM     12  C   UNL     1     -31.762  98.467  15.782  0.00  0.00    +0.000 A 
ATOM     13  C   UNL     1     -30.406  98.781  15.719  0.00  0.00    +0.000 A 
ATOM     14  C   UNL     1     -29.975  99.915  15.035  0.00  0.00    +0.000 A 
ATOM     15  C   UNL     1     -30.900 100.728  14.387  0.00  0.00    +0.000 A 
ATOM     16  C   UNL     1     -32.252 100.401  14.415  0.00  0.00    +0.000 A 
ATOM     17  C   UNL     1     -32.679  99.267  15.100  0.00  0.00    +0.000 A 
ENDBRANCH  10  12
ENDBRANCH   7  10
ENDBRANCH   1   7
BRANCH   3  18
ATOM     18  C   UNL     1     -29.594  98.997  21.234  0.00  0.00    +0.000 C 
ATOM     19  C   UNL     1     -28.676  98.759  21.971  0.00  0.00    +0.000 C 
BRANCH  19  20
ATOM     20  C   UNL     1     -27.574  98.472  22.855  0.00  0.00    +0.000 C 
ATOM     21  O   UNL     1     -26.924  97.442  22.724  0.00  0.00    +0.000 OA
ATOM     22  N   UNL     1     -27.316  99.413  23.812  0.00  0.00    +0.000 N 
ATOM     23  H   UNL     1     -27.807 100.296  23.897  0.00  0.00    +0.000 HD
BRANCH  22  24
ATOM     24  O   UNL     1     -26.213  99.190  24.667  0.00  0.00    +0.000 OA
ATOM     25  H   UNL     1     -26.516  99.579  25.516  0.00  0.00    +0.000 HD
ENDBRANCH  22  24
ENDBRANCH  19  20
ENDBRANCH   3  18
TORSDOF 6
ENDMDL
MODEL 9
REMARK VINA RESULT:      -5.2     16.743     18.907
REMARK  Name = Belinostat.pdbqt.pdb
REMARK  6 active torsions:
REMARK  status: ('A' for Active; 'I' for Inactive)
REMARK    1  A    between atoms: C_1  and  S_7
REMARK    2  A    between atoms: C_3  and  C_18
REMARK    3  A    between atoms: S_7  and  N_10
REMARK    4  A    between atoms: N_10  and  C_12
REMARK    5  A    between atoms: C_19  and  C_20
REMARK    6  A    between atoms: N_22  and  O_24
REMARK                            x       y       z     vdW  Elec       q    Type
REMARK                         _______ _______ _______ _____ _____    ______ ____
ROOT
ATOM      1  C   UNL     1     -35.581  87.722  -6.467  0.00  0.00    +0.000 A 
ATOM      2  C   UNL     1     -36.612  88.541  -6.023  0.00  0.00    +0.000 A 
ATOM      3  C   UNL     1     -36.843  89.748  -6.675  0.00  0.00    +0.000 A 
ATOM      4  C   UNL     1     -34.797  88.068  -7.563  0.00  0.00    +0.000 A 
ATOM      5  C   UNL     1     -36.058  90.118  -7.766  0.00  0.00    +0.000 A 
ATOM      6  C   UNL     1     -35.036  89.277  -8.210  0.00  0.00    +0.000 A 
ENDROOT
BRANCH   1   7
ATOM      7  S   UNL     1     -35.306  86.177  -5.677  0.00  0.00    +0.000 S 
ATOM      8  O   UNL     1     -34.114  85.606  -6.266  0.00  0.00    +0.000 OA
ATOM      9  O   UNL     1     -36.556  85.449  -5.661  0.00  0.00    +0.000 OA
BRANCH   7  10
ATOM     10  N   UNL     1     -34.899  86.609  -4.111  0.00  0.00    +0.000 N 
ATOM     11  H   UNL     1     -34.294  87.426  -4.041  0.00  0.00    +0.000 HD
BRANCH  10  12
ATOM     12  C   UNL     1     -35.627  86.176  -2.966  0.00  0.00    +0.000 A 
ATOM     13  C   UNL     1     -36.574  86.974  -2.328  0.00  0.00    +0.000 A 
ATOM     14  C   UNL     1     -37.317  86.472  -1.263  0.00  0.00    +0.000 A 
ATOM     15  C   UNL     1     -37.134  85.156  -0.848  0.00  0.00    +0.000 A 
ATOM     16  C   UNL     1     -36.215  84.342  -1.504  0.00  0.00    +0.000 A 
ATOM     17  C   UNL     1     -35.474  84.848  -2.569  0.00  0.00    +0.000 A 
ENDBRANCH  10  12
ENDBRANCH   7  10
ENDBRANCH   1   7
BRANCH   3  18
ATOM     18  C   UNL     1     -37.889  90.609  -6.225  0.00  0.00    +0.000 C 
ATOM     19  C   UNL     1     -38.770  91.332  -5.848  0.00  0.00    +0.000 C 
BRANCH  19  20
ATOM     20  C   UNL     1     -39.828  92.201  -5.397  0.00  0.00    +0.000 C 
ATOM     21  O   UNL     1     -39.717  92.823  -4.347  0.00  0.00    +0.000 OA
ATOM     22  N   UNL     1     -40.925  92.280  -6.209  0.00  0.00    +0.000 N 
ATOM     23  H   UNL     1     -41.008  91.817  -7.107  0.00  0.00    +0.000 HD
BRANCH  22  24
ATOM     24  O   UNL     1     -41.961  93.158  -5.824  0.00  0.00    +0.000 OA
ATOM     25  H   UNL     1     -41.491  94.013  -5.715  0.00  0.00    +0.000 HD
ENDBRANCH  22  24
ENDBRANCH  19  20
ENDBRANCH   3  18
TORSDOF 6
ENDMDL
