MODEL 1
REMARK VINA RESULT:      -7.6      0.000      0.000
REMARK  Name = Benzo[a]pyrene.pdbqt.pdb
REMARK  0 active torsions:
REMARK  status: ('A' for Active; 'I' for Inactive)
REMARK                            x       y       z     vdW  Elec       q    Type
REMARK                         _______ _______ _______ _____ _____    ______ ____
ROOT
ATOM      1  C   UNL     1     -24.705 104.022   1.128  0.00  0.00    +0.000 A 
ATOM      2  C   UNL     1     -25.330 105.057   0.399  0.00  0.00    +0.000 A 
ATOM      3  C   UNL     1     -24.845 103.951   2.533  0.00  0.00    +0.000 A 
ATOM      4  C   UNL     1     -23.940 103.059   0.436  0.00  0.00    +0.000 A 
ATOM      5  C   UNL     1     -24.207 102.901   3.239  0.00  0.00    +0.000 A 
ATOM      6  C   UNL     1     -26.099 106.029   1.070  0.00  0.00    +0.000 A 
ATOM      7  C   UNL     1     -25.187 105.123  -1.003  0.00  0.00    +0.000 A 
ATOM      8  C   UNL     1     -23.445 101.947   2.527  0.00  0.00    +0.000 A 
ATOM      9  C   UNL     1     -23.319 102.034   1.143  0.00  0.00    +0.000 A 
ATOM     10  C   UNL     1     -25.619 104.937   3.170  0.00  0.00    +0.000 A 
ATOM     11  C   UNL     1     -23.807 103.137  -0.950  0.00  0.00    +0.000 A 
ATOM     12  C   UNL     1     -26.238 105.961   2.454  0.00  0.00    +0.000 A 
ATOM     13  C   UNL     1     -24.426 104.161  -1.666  0.00  0.00    +0.000 A 
ATOM     14  C   UNL     1     -26.713 107.048   0.342  0.00  0.00    +0.000 A 
ATOM     15  C   UNL     1     -25.809 106.150  -1.713  0.00  0.00    +0.000 A 
ATOM     16  C   UNL     1     -24.298 102.762   4.634  0.00  0.00    +0.000 A 
ATOM     17  C   UNL     1     -22.808 100.906   3.201  0.00  0.00    +0.000 A 
ATOM     18  C   UNL     1     -26.568 107.108  -1.043  0.00  0.00    +0.000 A 
ATOM     19  C   UNL     1     -23.660 101.720   5.302  0.00  0.00    +0.000 A 
ATOM     20  C   UNL     1     -22.915 100.791   4.585  0.00  0.00    +0.000 A 
ENDROOT
TORSDOF 0
ENDMDL
MODEL 2
REMARK VINA RESULT:      -7.6     14.848     17.676
REMARK  Name = Benzo[a]pyrene.pdbqt.pdb
REMARK  0 active torsions:
REMARK  status: ('A' for Active; 'I' for Inactive)
REMARK                            x       y       z     vdW  Elec       q    Type
REMARK                         _______ _______ _______ _____ _____    ______ ____
ROOT
ATOM      1  C   UNL     1     -32.961  99.660  15.313  0.00  0.00    +0.000 A 
ATOM      2  C   UNL     1     -31.853  99.343  16.130  0.00  0.00    +0.000 A 
ATOM      3  C   UNL     1     -34.225  99.083  15.569  0.00  0.00    +0.000 A 
ATOM      4  C   UNL     1     -32.788 100.560  14.240  0.00  0.00    +0.000 A 
ATOM      5  C   UNL     1     -35.319  99.419  14.734  0.00  0.00    +0.000 A 
ATOM      6  C   UNL     1     -32.003  98.446  17.207  0.00  0.00    +0.000 A 
ATOM      7  C   UNL     1     -30.593  99.922  15.871  0.00  0.00    +0.000 A 
ATOM      8  C   UNL     1     -35.126 100.322  13.664  0.00  0.00    +0.000 A 
ATOM      9  C   UNL     1     -33.872 100.880  13.429  0.00  0.00    +0.000 A 
ATOM     10  C   UNL     1     -34.339  98.193  16.651  0.00  0.00    +0.000 A 
ATOM     11  C   UNL     1     -31.537 101.124  13.997  0.00  0.00    +0.000 A 
ATOM     12  C   UNL     1     -33.248  97.877  17.460  0.00  0.00    +0.000 A 
ATOM     13  C   UNL     1     -30.446 100.808  14.805  0.00  0.00    +0.000 A 
ATOM     14  C   UNL     1     -30.903  98.139  18.008  0.00  0.00    +0.000 A 
ATOM     15  C   UNL     1     -29.505  99.602  16.684  0.00  0.00    +0.000 A 
ATOM     16  C   UNL     1     -36.607  98.888  14.921  0.00  0.00    +0.000 A 
ATOM     17  C   UNL     1     -36.188 100.667  12.829  0.00  0.00    +0.000 A 
ATOM     18  C   UNL     1     -29.660  98.714  17.748  0.00  0.00    +0.000 A 
ATOM     19  C   UNL     1     -37.664  99.236  14.084  0.00  0.00    +0.000 A 
ATOM     20  C   UNL     1     -37.455 100.126  13.038  0.00  0.00    +0.000 A 
ENDROOT
TORSDOF 0
ENDMDL
MODEL 3
REMARK VINA RESULT:      -7.6      0.691      2.898
REMARK  Name = Benzo[a]pyrene.pdbqt.pdb
REMARK  0 active torsions:
REMARK  status: ('A' for Active; 'I' for Inactive)
REMARK                            x       y       z     vdW  Elec       q    Type
REMARK                         _______ _______ _______ _____ _____    ______ ____
ROOT
ATOM      1  C   UNL     1     -24.893 104.302   1.372  0.00  0.00    +0.000 A 
ATOM      2  C   UNL     1     -25.280 104.998   0.205  0.00  0.00    +0.000 A 
ATOM      3  C   UNL     1     -24.048 103.173   1.284  0.00  0.00    +0.000 A 
ATOM      4  C   UNL     1     -25.362 104.749   2.626  0.00  0.00    +0.000 A 
ATOM      5  C   UNL     1     -23.676 102.494   2.471  0.00  0.00    +0.000 A 
ATOM      6  C   UNL     1     -24.824 104.568  -1.057  0.00  0.00    +0.000 A 
ATOM      7  C   UNL     1     -26.124 106.125   0.299  0.00  0.00    +0.000 A 
ATOM      8  C   UNL     1     -24.156 102.959   3.717  0.00  0.00    +0.000 A 
ATOM      9  C   UNL     1     -24.988 104.073   3.782  0.00  0.00    +0.000 A 
ATOM     10  C   UNL     1     -23.612 102.772   0.009  0.00  0.00    +0.000 A 
ATOM     11  C   UNL     1     -26.195 105.864   2.703  0.00  0.00    +0.000 A 
ATOM     12  C   UNL     1     -23.991 103.456  -1.145  0.00  0.00    +0.000 A 
ATOM     13  C   UNL     1     -26.575 106.548   1.549  0.00  0.00    +0.000 A 
ATOM     14  C   UNL     1     -25.211 105.261  -2.203  0.00  0.00    +0.000 A 
ATOM     15  C   UNL     1     -26.500 106.804  -0.859  0.00  0.00    +0.000 A 
ATOM     16  C   UNL     1     -22.840 101.365   2.467  0.00  0.00    +0.000 A 
ATOM     17  C   UNL     1     -23.802 102.306   4.897  0.00  0.00    +0.000 A 
ATOM     18  C   UNL     1     -26.045 106.374  -2.105  0.00  0.00    +0.000 A 
ATOM     19  C   UNL     1     -22.490 100.718   3.650  0.00  0.00    +0.000 A 
ATOM     20  C   UNL     1     -22.972 101.188   4.866  0.00  0.00    +0.000 A 
ENDROOT
TORSDOF 0
ENDMDL
MODEL 4
REMARK VINA RESULT:      -7.5     14.966     17.265
REMARK  Name = Benzo[a]pyrene.pdbqt.pdb
REMARK  0 active torsions:
REMARK  status: ('A' for Active; 'I' for Inactive)
REMARK                            x       y       z     vdW  Elec       q    Type
REMARK                         _______ _______ _______ _____ _____    ______ ____
ROOT
ATOM      1  C   UNL     1     -34.402  99.712  15.010  0.00  0.00    +0.000 A 
ATOM      2  C   UNL     1     -35.681  99.798  14.415  0.00  0.00    +0.000 A 
ATOM      3  C   UNL     1     -33.293 100.355  14.416  0.00  0.00    +0.000 A 
ATOM      4  C   UNL     1     -34.248  98.976  16.204  0.00  0.00    +0.000 A 
ATOM      5  C   UNL     1     -32.022 100.251  15.034  0.00  0.00    +0.000 A 
ATOM      6  C   UNL     1     -35.857 100.528  13.223  0.00  0.00    +0.000 A 
ATOM      7  C   UNL     1     -36.785  99.155  15.013  0.00  0.00    +0.000 A 
ATOM      8  C   UNL     1     -31.889  99.509  16.229  0.00  0.00    +0.000 A 
ATOM      9  C   UNL     1     -32.994  98.883  16.799  0.00  0.00    +0.000 A 
ATOM     10  C   UNL     1     -33.505 101.074  13.227  0.00  0.00    +0.000 A 
ATOM     11  C   UNL     1     -35.349  98.345  16.783  0.00  0.00    +0.000 A 
ATOM     12  C   UNL     1     -34.765 101.162  12.636  0.00  0.00    +0.000 A 
ATOM     13  C   UNL     1     -36.609  98.433  16.192  0.00  0.00    +0.000 A 
ATOM     14  C   UNL     1     -37.123 100.608  12.643  0.00  0.00    +0.000 A 
ATOM     15  C   UNL     1     -38.043  99.247  14.417  0.00  0.00    +0.000 A 
ATOM     16  C   UNL     1     -30.871 100.860  14.506  0.00  0.00    +0.000 A 
ATOM     17  C   UNL     1     -30.647  99.394  16.855  0.00  0.00    +0.000 A 
ATOM     18  C   UNL     1     -38.211  99.970  13.237  0.00  0.00    +0.000 A 
ATOM     19  C   UNL     1     -29.634 100.742  15.135  0.00  0.00    +0.000 A 
ATOM     20  C   UNL     1     -29.522 100.008  16.310  0.00  0.00    +0.000 A 
ENDROOT
TORSDOF 0
ENDMDL
MODEL 5
REMARK VINA RESULT:      -7.0      1.683      5.479
REMARK  Name = Benzo[a]pyrene.pdbqt.pdb
REMARK  0 active torsions:
REMARK  status: ('A' for Active; 'I' for Inactive)
REMARK                            x       y       z     vdW  Elec       q    Type
REMARK                         _______ _______ _______ _____ _____    ______ ____
ROOT
ATOM      1  C   UNL     1     -24.775 104.561  -0.531  0.00  0.00    +0.000 A 
ATOM      2  C   UNL     1     -25.268 104.955   0.733  0.00  0.00    +0.000 A 
ATOM      3  C   UNL     1     -25.137 105.276  -1.694  0.00  0.00    +0.000 A 
ATOM      4  C   UNL     1     -23.916 103.444  -0.615  0.00  0.00    +0.000 A 
ATOM      5  C   UNL     1     -24.627 104.858  -2.949  0.00  0.00    +0.000 A 
ATOM      6  C   UNL     1     -26.127 106.067   0.840  0.00  0.00    +0.000 A 
ATOM      7  C   UNL     1     -24.903 104.237   1.892  0.00  0.00    +0.000 A 
ATOM      8  C   UNL     1     -23.768 103.737  -3.012  0.00  0.00    +0.000 A 
ATOM      9  C   UNL     1     -23.423 103.046  -1.853  0.00  0.00    +0.000 A 
ATOM     10  C   UNL     1     -25.996 106.379  -1.551  0.00  0.00    +0.000 A 
ATOM     11  C   UNL     1     -23.564 102.745   0.539  0.00  0.00    +0.000 A 
ATOM     12  C   UNL     1     -26.485 106.772  -0.306  0.00  0.00    +0.000 A 
ATOM     13  C   UNL     1     -24.054 103.137   1.784  0.00  0.00    +0.000 A 
ATOM     14  C   UNL     1     -26.610 106.448   2.091  0.00  0.00    +0.000 A 
ATOM     15  C   UNL     1     -25.397 104.635   3.134  0.00  0.00    +0.000 A 
ATOM     16  C   UNL     1     -24.940 105.516  -4.150  0.00  0.00    +0.000 A 
ATOM     17  C   UNL     1     -23.255 103.309  -4.235  0.00  0.00    +0.000 A 
ATOM     18  C   UNL     1     -26.246 105.736   3.233  0.00  0.00    +0.000 A 
ATOM     19  C   UNL     1     -24.424 105.083  -5.370  0.00  0.00    +0.000 A 
ATOM     20  C   UNL     1     -23.581 103.979  -5.412  0.00  0.00    +0.000 A 
ENDROOT
TORSDOF 0
ENDMDL
MODEL 6
REMARK VINA RESULT:      -7.0      1.041      6.376
REMARK  Name = Benzo[a]pyrene.pdbqt.pdb
REMARK  0 active torsions:
REMARK  status: ('A' for Active; 'I' for Inactive)
REMARK                            x       y       z     vdW  Elec       q    Type
REMARK                         _______ _______ _______ _____ _____    ______ ____
ROOT
ATOM      1  C   UNL     1     -25.258 104.968   0.473  0.00  0.00    +0.000 A 
ATOM      2  C   UNL     1     -24.778 104.044   1.427  0.00  0.00    +0.000 A 
ATOM      3  C   UNL     1     -24.921 104.827  -0.892  0.00  0.00    +0.000 A 
ATOM      4  C   UNL     1     -26.077 106.035   0.901  0.00  0.00    +0.000 A 
ATOM      5  C   UNL     1     -25.416 105.769  -1.827  0.00  0.00    +0.000 A 
ATOM      6  C   UNL     1     -23.958 102.972   1.021  0.00  0.00    +0.000 A 
ATOM      7  C   UNL     1     -25.117 104.190   2.789  0.00  0.00    +0.000 A 
ATOM      8  C   UNL     1     -26.235 106.829  -1.378  0.00  0.00    +0.000 A 
ATOM      9  C   UNL     1     -26.556 106.952  -0.029  0.00  0.00    +0.000 A 
ATOM     10  C   UNL     1     -24.102 103.746  -1.261  0.00  0.00    +0.000 A 
ATOM     11  C   UNL     1     -26.404 106.166   2.250  0.00  0.00    +0.000 A 
ATOM     12  C   UNL     1     -23.626 102.831  -0.323  0.00  0.00    +0.000 A 
ATOM     13  C   UNL     1     -25.928 105.251   3.188  0.00  0.00    +0.000 A 
ATOM     14  C   UNL     1     -23.489 102.064   1.970  0.00  0.00    +0.000 A 
ATOM     15  C   UNL     1     -24.638 103.271   3.722  0.00  0.00    +0.000 A 
ATOM     16  C   UNL     1     -25.127 105.697  -3.200  0.00  0.00    +0.000 A 
ATOM     17  C   UNL     1     -26.734 107.768  -2.281  0.00  0.00    +0.000 A 
ATOM     18  C   UNL     1     -23.828 102.213   3.314  0.00  0.00    +0.000 A 
ATOM     19  C   UNL     1     -25.628 106.637  -4.098  0.00  0.00    +0.000 A 
ATOM     20  C   UNL     1     -26.431 107.674  -3.637  0.00  0.00    +0.000 A 
ENDROOT
TORSDOF 0
ENDMDL
MODEL 7
REMARK VINA RESULT:      -6.9     14.578     16.126
REMARK  Name = Benzo[a]pyrene.pdbqt.pdb
REMARK  0 active torsions:
REMARK  status: ('A' for Active; 'I' for Inactive)
REMARK                            x       y       z     vdW  Elec       q    Type
REMARK                         _______ _______ _______ _____ _____    ______ ____
ROOT
ATOM      1  C   UNL     1     -40.454 102.298   2.408  0.00  0.00    +0.000 A 
ATOM      2  C   UNL     1     -41.754 101.952   1.976  0.00  0.00    +0.000 A 
ATOM      3  C   UNL     1     -39.603 103.060   1.577  0.00  0.00    +0.000 A 
ATOM      4  C   UNL     1     -40.017 101.872   3.680  0.00  0.00    +0.000 A 
ATOM      5  C   UNL     1     -38.305 103.393   2.036  0.00  0.00    +0.000 A 
ATOM      6  C   UNL     1     -42.210 102.367   0.709  0.00  0.00    +0.000 A 
ATOM      7  C   UNL     1     -42.599 101.191   2.810  0.00  0.00    +0.000 A 
ATOM      8  C   UNL     1     -37.886 102.956   3.314  0.00  0.00    +0.000 A 
ATOM      9  C   UNL     1     -38.740 102.206   4.118  0.00  0.00    +0.000 A 
ATOM     10  C   UNL     1     -40.091 103.458   0.319  0.00  0.00    +0.000 A 
ATOM     11  C   UNL     1     -40.864 101.120   4.494  0.00  0.00    +0.000 A 
ATOM     12  C   UNL     1     -41.372 103.119  -0.111  0.00  0.00    +0.000 A 
ATOM     13  C   UNL     1     -42.146 100.781   4.063  0.00  0.00    +0.000 A 
ATOM     14  C   UNL     1     -43.494 102.021   0.290  0.00  0.00    +0.000 A 
ATOM     15  C   UNL     1     -43.880 100.855   2.373  0.00  0.00    +0.000 A 
ATOM     16  C   UNL     1     -37.400 104.147   1.270  0.00  0.00    +0.000 A 
ATOM     17  C   UNL     1     -36.613 103.272   3.786  0.00  0.00    +0.000 A 
ATOM     18  C   UNL     1     -44.326 101.269   1.118  0.00  0.00    +0.000 A 
ATOM     19  C   UNL     1     -36.129 104.459   1.747  0.00  0.00    +0.000 A 
ATOM     20  C   UNL     1     -35.735 104.021   3.006  0.00  0.00    +0.000 A 
ENDROOT
TORSDOF 0
ENDMDL
MODEL 8
REMARK VINA RESULT:      -6.9      0.939      5.695
REMARK  Name = Benzo[a]pyrene.pdbqt.pdb
REMARK  0 active torsions:
REMARK  status: ('A' for Active; 'I' for Inactive)
REMARK                            x       y       z     vdW  Elec       q    Type
REMARK                         _______ _______ _______ _____ _____    ______ ____
ROOT
ATOM      1  C   UNL     1     -25.262 104.968   0.512  0.00  0.00    +0.000 A 
ATOM      2  C   UNL     1     -24.741 104.059   1.459  0.00  0.00    +0.000 A 
ATOM      3  C   UNL     1     -26.096 106.032   0.926  0.00  0.00    +0.000 A 
ATOM      4  C   UNL     1     -24.939 104.801  -0.851  0.00  0.00    +0.000 A 
ATOM      5  C   UNL     1     -26.604 106.929  -0.045  0.00  0.00    +0.000 A 
ATOM      6  C   UNL     1     -25.051 104.207   2.826  0.00  0.00    +0.000 A 
ATOM      7  C   UNL     1     -23.909 102.999   1.040  0.00  0.00    +0.000 A 
ATOM      8  C   UNL     1     -26.269 106.744  -1.406  0.00  0.00    +0.000 A 
ATOM      9  C   UNL     1     -25.446 105.690  -1.793  0.00  0.00    +0.000 A 
ATOM     10  C   UNL     1     -26.384 106.150   2.297  0.00  0.00    +0.000 A 
ATOM     11  C   UNL     1     -24.115 103.749  -1.250  0.00  0.00    +0.000 A 
ATOM     12  C   UNL     1     -25.872 105.254   3.235  0.00  0.00    +0.000 A 
ATOM     13  C   UNL     1     -23.603 102.854  -0.312  0.00  0.00    +0.000 A 
ATOM     14  C   UNL     1     -24.532 103.305   3.753  0.00  0.00    +0.000 A 
ATOM     15  C   UNL     1     -23.400 102.107   1.984  0.00  0.00    +0.000 A 
ATOM     16  C   UNL     1     -27.439 108.010   0.286  0.00  0.00    +0.000 A 
ATOM     17  C   UNL     1     -26.758 107.616  -2.378  0.00  0.00    +0.000 A 
ATOM     18  C   UNL     1     -23.710 102.259   3.334  0.00  0.00    +0.000 A 
ATOM     19  C   UNL     1     -27.924 108.877  -0.690  0.00  0.00    +0.000 A 
ATOM     20  C   UNL     1     -27.584 108.679  -2.023  0.00  0.00    +0.000 A 
ENDROOT
TORSDOF 0
ENDMDL
MODEL 9
REMARK VINA RESULT:      -6.8      2.562      7.604
REMARK  Name = Benzo[a]pyrene.pdbqt.pdb
REMARK  0 active torsions:
REMARK  status: ('A' for Active; 'I' for Inactive)
REMARK                            x       y       z     vdW  Elec       q    Type
REMARK                         _______ _______ _______ _____ _____    ______ ____
ROOT
ATOM      1  C   UNL     1     -22.306 100.719   5.489  0.00  0.00    +0.000 A 
ATOM      2  C   UNL     1     -21.875 100.199   6.730  0.00  0.00    +0.000 A 
ATOM      3  C   UNL     1     -23.165 101.841   5.444  0.00  0.00    +0.000 A 
ATOM      4  C   UNL     1     -21.868 100.104   4.297  0.00  0.00    +0.000 A 
ATOM      5  C   UNL     1     -23.581 102.341   4.186  0.00  0.00    +0.000 A 
ATOM      6  C   UNL     1     -22.300 100.798   7.933  0.00  0.00    +0.000 A 
ATOM      7  C   UNL     1     -21.018  99.079   6.770  0.00  0.00    +0.000 A 
ATOM      8  C   UNL     1     -23.131 101.711   3.003  0.00  0.00    +0.000 A 
ATOM      9  C   UNL     1     -22.285 100.607   3.069  0.00  0.00    +0.000 A 
ATOM     10  C   UNL     1     -23.569 102.412   6.663  0.00  0.00    +0.000 A 
ATOM     11  C   UNL     1     -21.021  98.998   4.352  0.00  0.00    +0.000 A 
ATOM     12  C   UNL     1     -23.146 101.902   7.889  0.00  0.00    +0.000 A 
ATOM     13  C   UNL     1     -20.598  98.488   5.579  0.00  0.00    +0.000 A 
ATOM     14  C   UNL     1     -21.870 100.278   9.153  0.00  0.00    +0.000 A 
ATOM     15  C   UNL     1     -20.598  98.574   8.000  0.00  0.00    +0.000 A 
ATOM     16  C   UNL     1     -24.433 103.451   4.056  0.00  0.00    +0.000 A 
ATOM     17  C   UNL     1     -23.529 102.187   1.754  0.00  0.00    +0.000 A 
ATOM     18  C   UNL     1     -21.023  99.171   9.187  0.00  0.00    +0.000 A 
ATOM     19  C   UNL     1     -24.827 103.921   2.806  0.00  0.00    +0.000 A 
ATOM     20  C   UNL     1     -24.374 103.289   1.654  0.00  0.00    +0.000 A 
ENDROOT
TORSDOF 0
ENDMDL
