MODEL 1
REMARK VINA RESULT:      -6.0      0.000      0.000
REMARK  Name = Bicalutamide.pdbqt.pdb
REMARK  8 active torsions:
REMARK  status: ('A' for Active; 'I' for Inactive)
REMARK    1  A    between atoms: C_2  and  N_13
REMARK    2  A    between atoms: C_5  and  C_9
REMARK    3  A    between atoms: C_6  and  C_8
REMARK    4  A    between atoms: C_14  and  C_17
REMARK    5  A    between atoms: C_17  and  O_19
REMARK    6  A    between atoms: C_17  and  C_21
REMARK    7  A    between atoms: C_21  and  S_22
REMARK    8  A    between atoms: S_22  and  C_25
REMARK                            x       y       z     vdW  Elec       q    Type
REMARK                         _______ _______ _______ _____ _____    ______ ____
ROOT
ATOM      1  N   UNL     1     -23.344 102.516   3.029  0.00  0.00    +0.000 N 
ATOM      2  C   UNL     1     -23.797 101.262   3.430  0.00  0.00    +0.000 C 
ATOM      3  O   UNL     1     -24.842 100.734   3.036  0.00  0.00    +0.000 OA
ATOM      4  H   UNL     1     -22.415 102.789   3.353  0.00  0.00    +0.000 HD
ENDROOT
BRANCH   1   5
ATOM      5  C   UNL     1     -24.009 103.395   2.159  0.00  0.00    +0.000 A 
ATOM      6  C   UNL     1     -23.771 103.260   0.792  0.00  0.00    +0.000 A 
ATOM      7  C   UNL     1     -24.875 104.389   2.604  0.00  0.00    +0.000 A 
ATOM      8  C   UNL     1     -24.389 104.103  -0.140  0.00  0.00    +0.000 A 
ATOM      9  C   UNL     1     -25.261 105.100   0.322  0.00  0.00    +0.000 A 
ATOM     10  C   UNL     1     -25.498 105.237   1.691  0.00  0.00    +0.000 A 
BRANCH   8  11
ATOM     11  C   UNL     1     -24.097 103.914  -1.600  0.00  0.00    +0.000 C 
ATOM     12  F   UNL     1     -23.493 104.992  -2.171  0.00  0.00    +0.000 F 
ATOM     13  F   UNL     1     -23.270 102.860  -1.830  0.00  0.00    +0.000 F 
ATOM     14  F   UNL     1     -25.222 103.691  -2.329  0.00  0.00    +0.000 F 
ENDBRANCH   8  11
BRANCH   9  16
ATOM     15  N   UNL     1     -26.486 106.724  -1.282  0.00  0.00    +0.000 NA
ATOM     16  C   UNL     1     -25.931 106.000  -0.566  0.00  0.00    +0.000 C 
ENDBRANCH   9  16
ENDBRANCH   1   5
BRANCH   2  17
ATOM     17  C   UNL     1     -22.890 100.526   4.497  0.00  0.00    +0.000 C 
ATOM     18  C   UNL     1     -21.571 100.006   3.857  0.00  0.00    +0.000 C 
BRANCH  17  19
ATOM     19  O   UNL     1     -23.570  99.399   5.027  0.00  0.00    +0.000 OA
ATOM     20  H   UNL     1     -23.609  99.565   5.989  0.00  0.00    +0.000 HD
ENDBRANCH  17  19
BRANCH  17  21
ATOM     21  C   UNL     1     -22.618 101.446   5.558  0.00  0.00    +0.000 C 
BRANCH  21  22
ATOM     22  S   UNL     1     -22.079 102.552   6.767  0.00  0.00    +0.000 S 
ATOM     23  O   UNL     1     -23.294 103.317   6.892  0.00  0.00    +0.000 OA
ATOM     24  O   UNL     1     -20.884 102.979   6.080  0.00  0.00    +0.000 OA
BRANCH  22  25
ATOM     25  C   UNL     1     -21.712 101.680   8.217  0.00  0.00    +0.000 A 
ATOM     26  C   UNL     1     -21.215 102.393   9.303  0.00  0.00    +0.000 A 
ATOM     27  C   UNL     1     -20.891 101.710  10.472  0.00  0.00    +0.000 A 
ATOM     28  C   UNL     1     -21.067 100.330  10.529  0.00  0.00    +0.000 A 
ATOM     29  F   UNL     1     -20.755  99.674  11.655  0.00  0.00    +0.000 F 
ATOM     30  C   UNL     1     -21.558  99.620   9.437  0.00  0.00    +0.000 A 
ATOM     31  C   UNL     1     -21.882 100.300   8.268  0.00  0.00    +0.000 A 
ENDBRANCH  22  25
ENDBRANCH  21  22
ENDBRANCH  17  21
ENDBRANCH   2  17
TORSDOF 8
ENDMDL
MODEL 2
REMARK VINA RESULT:      -5.9      2.244      2.867
REMARK  Name = Bicalutamide.pdbqt.pdb
REMARK  8 active torsions:
REMARK  status: ('A' for Active; 'I' for Inactive)
REMARK    1  A    between atoms: C_2  and  N_13
REMARK    2  A    between atoms: C_5  and  C_9
REMARK    3  A    between atoms: C_6  and  C_8
REMARK    4  A    between atoms: C_14  and  C_17
REMARK    5  A    between atoms: C_17  and  O_19
REMARK    6  A    between atoms: C_17  and  C_21
REMARK    7  A    between atoms: C_21  and  S_22
REMARK    8  A    between atoms: S_22  and  C_25
REMARK                            x       y       z     vdW  Elec       q    Type
REMARK                         _______ _______ _______ _____ _____    ______ ____
ROOT
ATOM      1  N   UNL     1     -23.731 101.514   3.337  0.00  0.00    +0.000 N 
ATOM      2  C   UNL     1     -22.492 101.324   3.945  0.00  0.00    +0.000 C 
ATOM      3  O   UNL     1     -21.478 101.982   3.693  0.00  0.00    +0.000 OA
ATOM      4  H   UNL     1     -24.509 100.970   3.711  0.00  0.00    +0.000 HD
ENDROOT
BRANCH   1   5
ATOM      5  C   UNL     1     -24.018 102.441   2.322  0.00  0.00    +0.000 A 
ATOM      6  C   UNL     1     -24.732 103.587   2.670  0.00  0.00    +0.000 A 
ATOM      7  C   UNL     1     -23.634 102.255   0.997  0.00  0.00    +0.000 A 
ATOM      8  C   UNL     1     -25.065 104.554   1.715  0.00  0.00    +0.000 A 
ATOM      9  C   UNL     1     -24.670 104.355   0.383  0.00  0.00    +0.000 A 
ATOM     10  C   UNL     1     -23.958 103.207   0.033  0.00  0.00    +0.000 A 
BRANCH   8  11
ATOM     11  C   UNL     1     -25.834 105.769   2.144  0.00  0.00    +0.000 C 
ATOM     12  F   UNL     1     -26.861 106.080   1.305  0.00  0.00    +0.000 F 
ATOM     13  F   UNL     1     -26.393 105.619   3.374  0.00  0.00    +0.000 F 
ATOM     14  F   UNL     1     -25.056 106.881   2.206  0.00  0.00    +0.000 F 
ENDBRANCH   8  11
BRANCH   9  16
ATOM     15  N   UNL     1     -25.204 106.060  -1.494  0.00  0.00    +0.000 NA
ATOM     16  C   UNL     1     -24.973 105.297  -0.652  0.00  0.00    +0.000 C 
ENDBRANCH   9  16
ENDBRANCH   1   5
BRANCH   2  17
ATOM     17  C   UNL     1     -22.430 100.140   4.993  0.00  0.00    +0.000 C 
ATOM     18  C   UNL     1     -21.232  99.192   4.705  0.00  0.00    +0.000 C 
BRANCH  17  19
ATOM     19  O   UNL     1     -23.611  99.358   4.922  0.00  0.00    +0.000 OA
ATOM     20  H   UNL     1     -23.356  98.492   5.296  0.00  0.00    +0.000 HD
ENDBRANCH  17  19
BRANCH  17  21
ATOM     21  C   UNL     1     -22.330 100.711   6.301  0.00  0.00    +0.000 C 
BRANCH  21  22
ATOM     22  S   UNL     1     -22.372 101.258   7.937  0.00  0.00    +0.000 S 
ATOM     23  O   UNL     1     -23.653 100.706   8.297  0.00  0.00    +0.000 OA
ATOM     24  O   UNL     1     -22.105 102.648   7.654  0.00  0.00    +0.000 OA
BRANCH  22  25
ATOM     25  C   UNL     1     -21.079 100.519   8.819  0.00  0.00    +0.000 A 
ATOM     26  C   UNL     1     -20.361  99.501   8.201  0.00  0.00    +0.000 A 
ATOM     27  C   UNL     1     -19.331  98.876   8.898  0.00  0.00    +0.000 A 
ATOM     28  C   UNL     1     -19.045  99.277  10.200  0.00  0.00    +0.000 A 
ATOM     29  F   UNL     1     -18.054  98.675  10.871  0.00  0.00    +0.000 F 
ATOM     30  C   UNL     1     -19.771 100.292  10.818  0.00  0.00    +0.000 A 
ATOM     31  C   UNL     1     -20.800 100.918  10.123  0.00  0.00    +0.000 A 
ENDBRANCH  22  25
ENDBRANCH  21  22
ENDBRANCH  17  21
ENDBRANCH   2  17
TORSDOF 8
ENDMDL
MODEL 3
REMARK VINA RESULT:      -5.9     21.427     25.053
REMARK  Name = Bicalutamide.pdbqt.pdb
REMARK  8 active torsions:
REMARK  status: ('A' for Active; 'I' for Inactive)
REMARK    1  A    between atoms: C_2  and  N_13
REMARK    2  A    between atoms: C_5  and  C_9
REMARK    3  A    between atoms: C_6  and  C_8
REMARK    4  A    between atoms: C_14  and  C_17
REMARK    5  A    between atoms: C_17  and  O_19
REMARK    6  A    between atoms: C_17  and  C_21
REMARK    7  A    between atoms: C_21  and  S_22
REMARK    8  A    between atoms: S_22  and  C_25
REMARK                            x       y       z     vdW  Elec       q    Type
REMARK                         _______ _______ _______ _____ _____    ______ ____
ROOT
ATOM      1  N   UNL     1     -34.135  84.960  17.365  0.00  0.00    +0.000 N 
ATOM      2  C   UNL     1     -34.669  84.232  16.305  0.00  0.00    +0.000 C 
ATOM      3  O   UNL     1     -34.623  84.580  15.120  0.00  0.00    +0.000 OA
ATOM      4  H   UNL     1     -34.153  84.509  18.281  0.00  0.00    +0.000 HD
ENDROOT
BRANCH   1   5
ATOM      5  C   UNL     1     -33.505  86.211  17.273  0.00  0.00    +0.000 A 
ATOM      6  C   UNL     1     -32.113  86.234  17.190  0.00  0.00    +0.000 A 
ATOM      7  C   UNL     1     -34.206  87.414  17.273  0.00  0.00    +0.000 A 
ATOM      8  C   UNL     1     -31.410  87.441  17.104  0.00  0.00    +0.000 A 
ATOM      9  C   UNL     1     -32.129  88.645  17.104  0.00  0.00    +0.000 A 
ATOM     10  C   UNL     1     -33.522  88.624  17.189  0.00  0.00    +0.000 A 
BRANCH   8  11
ATOM     11  C   UNL     1     -29.912  87.408  17.016  0.00  0.00    +0.000 C 
ATOM     12  F   UNL     1     -29.299  88.085  18.026  0.00  0.00    +0.000 F 
ATOM     13  F   UNL     1     -29.419  86.142  17.067  0.00  0.00    +0.000 F 
ATOM     14  F   UNL     1     -29.447  87.959  15.864  0.00  0.00    +0.000 F 
ENDBRANCH   8  11
BRANCH   9  16
ATOM     15  N   UNL     1     -30.963  90.955  16.964  0.00  0.00    +0.000 NA
ATOM     16  C   UNL     1     -31.483  89.920  17.019  0.00  0.00    +0.000 C 
ENDBRANCH   9  16
ENDBRANCH   1   5
BRANCH   2  17
ATOM     17  C   UNL     1     -35.411  82.894  16.710  0.00  0.00    +0.000 C 
ATOM     18  C   UNL     1     -34.586  82.082  17.749  0.00  0.00    +0.000 C 
BRANCH  17  19
ATOM     19  O   UNL     1     -35.585  82.064  15.573  0.00  0.00    +0.000 OA
ATOM     20  H   UNL     1     -35.399  81.162  15.896  0.00  0.00    +0.000 HD
ENDBRANCH  17  19
BRANCH  17  21
ATOM     21  C   UNL     1     -36.696  83.240  17.233  0.00  0.00    +0.000 C 
BRANCH  21  22
ATOM     22  S   UNL     1     -38.286  83.439  17.874  0.00  0.00    +0.000 S 
ATOM     23  O   UNL     1     -38.018  82.982  19.214  0.00  0.00    +0.000 OA
ATOM     24  O   UNL     1     -38.972  82.687  16.851  0.00  0.00    +0.000 OA
BRANCH  22  25
ATOM     25  C   UNL     1     -38.711  85.117  17.836  0.00  0.00    +0.000 A 
ATOM     26  C   UNL     1     -37.685  86.051  17.735  0.00  0.00    +0.000 A 
ATOM     27  C   UNL     1     -38.000  87.406  17.726  0.00  0.00    +0.000 A 
ATOM     28  C   UNL     1     -39.332  87.800  17.824  0.00  0.00    +0.000 A 
ATOM     29  F   UNL     1     -39.634  89.105  17.816  0.00  0.00    +0.000 F 
ATOM     30  C   UNL     1     -40.355  86.862  17.933  0.00  0.00    +0.000 A 
ATOM     31  C   UNL     1     -40.042  85.507  17.942  0.00  0.00    +0.000 A 
ENDBRANCH  22  25
ENDBRANCH  21  22
ENDBRANCH  17  21
ENDBRANCH   2  17
TORSDOF 8
ENDMDL
MODEL 4
REMARK VINA RESULT:      -5.8     21.449     23.559
REMARK  Name = Bicalutamide.pdbqt.pdb
REMARK  8 active torsions:
REMARK  status: ('A' for Active; 'I' for Inactive)
REMARK    1  A    between atoms: C_2  and  N_13
REMARK    2  A    between atoms: C_5  and  C_9
REMARK    3  A    between atoms: C_6  and  C_8
REMARK    4  A    between atoms: C_14  and  C_17
REMARK    5  A    between atoms: C_17  and  O_19
REMARK    6  A    between atoms: C_17  and  C_21
REMARK    7  A    between atoms: C_21  and  S_22
REMARK    8  A    between atoms: S_22  and  C_25
REMARK                            x       y       z     vdW  Elec       q    Type
REMARK                         _______ _______ _______ _____ _____    ______ ____
ROOT
ATOM      1  N   UNL     1     -37.256  89.379  -6.339  0.00  0.00    +0.000 N 
ATOM      2  C   UNL     1     -37.283  90.746  -6.073  0.00  0.00    +0.000 C 
ATOM      3  O   UNL     1     -36.624  91.302  -5.189  0.00  0.00    +0.000 OA
ATOM      4  H   UNL     1     -37.771  89.065  -7.162  0.00  0.00    +0.000 HD
ENDROOT
BRANCH   1   5
ATOM      5  C   UNL     1     -36.522  88.415  -5.629  0.00  0.00    +0.000 A 
ATOM      6  C   UNL     1     -37.074  87.916  -4.449  0.00  0.00    +0.000 A 
ATOM      7  C   UNL     1     -35.277  87.953  -6.045  0.00  0.00    +0.000 A 
ATOM      8  C   UNL     1     -36.401  86.960  -3.680  0.00  0.00    +0.000 A 
ATOM      9  C   UNL     1     -35.147  86.502  -4.113  0.00  0.00    +0.000 A 
ATOM     10  C   UNL     1     -34.593  87.002  -5.292  0.00  0.00    +0.000 A 
BRANCH   8  11
ATOM     11  C   UNL     1     -37.040  86.457  -2.419  0.00  0.00    +0.000 C 
ATOM     12  F   UNL     1     -36.367  86.820  -1.293  0.00  0.00    +0.000 F 
ATOM     13  F   UNL     1     -38.307  86.923  -2.260  0.00  0.00    +0.000 F 
ATOM     14  F   UNL     1     -37.119  85.100  -2.382  0.00  0.00    +0.000 F 
ENDBRANCH   8  11
BRANCH   9  16
ATOM     15  N   UNL     1     -33.776  84.741  -2.796  0.00  0.00    +0.000 NA
ATOM     16  C   UNL     1     -34.397  85.526  -3.382  0.00  0.00    +0.000 C 
ENDBRANCH   9  16
ENDBRANCH   1   5
BRANCH   2  17
ATOM     17  C   UNL     1     -38.277  91.588  -6.972  0.00  0.00    +0.000 C 
ATOM     18  C   UNL     1     -38.161  91.189  -8.470  0.00  0.00    +0.000 C 
BRANCH  17  19
ATOM     19  O   UNL     1     -37.969  92.970  -6.881  0.00  0.00    +0.000 OA
ATOM     20  H   UNL     1     -37.252  93.021  -6.221  0.00  0.00    +0.000 HD
ENDBRANCH  17  19
BRANCH  17  21
ATOM     21  C   UNL     1     -39.605  91.375  -6.484  0.00  0.00    +0.000 C 
BRANCH  21  22
ATOM     22  S   UNL     1     -41.145  91.242  -5.720  0.00  0.00    +0.000 S 
ATOM     23  O   UNL     1     -41.964  91.449  -6.887  0.00  0.00    +0.000 OA
ATOM     24  O   UNL     1     -40.901  92.213  -4.681  0.00  0.00    +0.000 OA
BRANCH  22  25
ATOM     25  C   UNL     1     -41.327  89.643  -5.079  0.00  0.00    +0.000 A 
ATOM     26  C   UNL     1     -40.559  88.624  -5.631  0.00  0.00    +0.000 A 
ATOM     27  C   UNL     1     -40.704  87.327  -5.149  0.00  0.00    +0.000 A 
ATOM     28  C   UNL     1     -41.617  87.075  -4.129  0.00  0.00    +0.000 A 
ATOM     29  F   UNL     1     -41.757  85.825  -3.664  0.00  0.00    +0.000 F 
ATOM     30  C   UNL     1     -42.390  88.097  -3.584  0.00  0.00    +0.000 A 
ATOM     31  C   UNL     1     -42.247  89.394  -4.065  0.00  0.00    +0.000 A 
ENDBRANCH  22  25
ENDBRANCH  21  22
ENDBRANCH  17  21
ENDBRANCH   2  17
TORSDOF 8
ENDMDL
MODEL 5
REMARK VINA RESULT:      -5.7     21.023     22.991
REMARK  Name = Bicalutamide.pdbqt.pdb
REMARK  8 active torsions:
REMARK  status: ('A' for Active; 'I' for Inactive)
REMARK    1  A    between atoms: C_2  and  N_13
REMARK    2  A    between atoms: C_5  and  C_9
REMARK    3  A    between atoms: C_6  and  C_8
REMARK    4  A    between atoms: C_14  and  C_17
REMARK    5  A    between atoms: C_17  and  O_19
REMARK    6  A    between atoms: C_17  and  C_21
REMARK    7  A    between atoms: C_21  and  S_22
REMARK    8  A    between atoms: S_22  and  C_25
REMARK                            x       y       z     vdW  Elec       q    Type
REMARK                         _______ _______ _______ _____ _____    ______ ____
ROOT
ATOM      1  N   UNL     1     -37.276  88.874  -5.974  0.00  0.00    +0.000 N 
ATOM      2  C   UNL     1     -37.109  90.256  -5.918  0.00  0.00    +0.000 C 
ATOM      3  O   UNL     1     -36.303  90.837  -5.183  0.00  0.00    +0.000 OA
ATOM      4  H   UNL     1     -37.904  88.521  -6.697  0.00  0.00    +0.000 HD
ENDROOT
BRANCH   1   5
ATOM      5  C   UNL     1     -36.599  87.929  -5.187  0.00  0.00    +0.000 A 
ATOM      6  C   UNL     1     -37.095  87.672  -3.909  0.00  0.00    +0.000 A 
ATOM      7  C   UNL     1     -35.460  87.258  -5.622  0.00  0.00    +0.000 A 
ATOM      8  C   UNL     1     -36.473  86.750  -3.060  0.00  0.00    +0.000 A 
ATOM      9  C   UNL     1     -35.327  86.079  -3.512  0.00  0.00    +0.000 A 
ATOM     10  C   UNL     1     -34.827  86.338  -4.789  0.00  0.00    +0.000 A 
BRANCH   8  11
ATOM     11  C   UNL     1     -37.049  86.511  -1.695  0.00  0.00    +0.000 C 
ATOM     12  F   UNL     1     -38.325  86.969  -1.562  0.00  0.00    +0.000 F 
ATOM     13  F   UNL     1     -37.095  85.190  -1.377  0.00  0.00    +0.000 F 
ATOM     14  F   UNL     1     -36.332  87.121  -0.714  0.00  0.00    +0.000 F 
ENDBRANCH   8  11
BRANCH   9  16
ATOM     15  N   UNL     1     -34.083  84.339  -2.048  0.00  0.00    +0.000 NA
ATOM     16  C   UNL     1     -34.633  85.122  -2.703  0.00  0.00    +0.000 C 
ENDBRANCH   9  16
ENDBRANCH   1   5
BRANCH   2  17
ATOM     17  C   UNL     1     -38.076  91.091  -6.852  0.00  0.00    +0.000 C 
ATOM     18  C   UNL     1     -38.099  92.591  -6.445  0.00  0.00    +0.000 C 
BRANCH  17  19
ATOM     19  O   UNL     1     -39.405  90.607  -6.743  0.00  0.00    +0.000 OA
ATOM     20  H   UNL     1     -39.390  89.742  -7.197  0.00  0.00    +0.000 HD
ENDBRANCH  17  19
BRANCH  17  21
ATOM     21  C   UNL     1     -37.634  90.932  -8.203  0.00  0.00    +0.000 C 
BRANCH  21  22
ATOM     22  S   UNL     1     -36.981  90.927  -9.800  0.00  0.00    +0.000 S 
ATOM     23  O   UNL     1     -37.043  92.346 -10.044  0.00  0.00    +0.000 OA
ATOM     24  O   UNL     1     -37.882  89.941 -10.345  0.00  0.00    +0.000 OA
BRANCH  22  25
ATOM     25  C   UNL     1     -35.349  90.352  -9.748  0.00  0.00    +0.000 A 
ATOM     26  C   UNL     1     -34.925  89.686  -8.603  0.00  0.00    +0.000 A 
ATOM     27  C   UNL     1     -33.611  89.234  -8.528  0.00  0.00    +0.000 A 
ATOM     28  C   UNL     1     -32.747  89.461  -9.596  0.00  0.00    +0.000 A 
ATOM     29  F   UNL     1     -31.482  89.026  -9.523  0.00  0.00    +0.000 F 
ATOM     30  C   UNL     1     -33.174  90.135 -10.737  0.00  0.00    +0.000 A 
ATOM     31  C   UNL     1     -34.487  90.588 -10.814  0.00  0.00    +0.000 A 
ENDBRANCH  22  25
ENDBRANCH  21  22
ENDBRANCH  17  21
ENDBRANCH   2  17
TORSDOF 8
ENDMDL
MODEL 6
REMARK VINA RESULT:      -5.6     23.214     26.137
REMARK  Name = Bicalutamide.pdbqt.pdb
REMARK  8 active torsions:
REMARK  status: ('A' for Active; 'I' for Inactive)
REMARK    1  A    between atoms: C_2  and  N_13
REMARK    2  A    between atoms: C_5  and  C_9
REMARK    3  A    between atoms: C_6  and  C_8
REMARK    4  A    between atoms: C_14  and  C_17
REMARK    5  A    between atoms: C_17  and  O_19
REMARK    6  A    between atoms: C_17  and  C_21
REMARK    7  A    between atoms: C_21  and  S_22
REMARK    8  A    between atoms: S_22  and  C_25
REMARK                            x       y       z     vdW  Elec       q    Type
REMARK                         _______ _______ _______ _____ _____    ______ ____
ROOT
ATOM      1  N   UNL     1     -36.380  83.937  16.913  0.00  0.00    +0.000 N 
ATOM      2  C   UNL     1     -37.216  83.830  15.804  0.00  0.00    +0.000 C 
ATOM      3  O   UNL     1     -36.947  84.258  14.677  0.00  0.00    +0.000 OA
ATOM      4  H   UNL     1     -36.681  83.451  17.758  0.00  0.00    +0.000 HD
ENDROOT
BRANCH   1   5
ATOM      5  C   UNL     1     -35.131  84.577  16.945  0.00  0.00    +0.000 A 
ATOM      6  C   UNL     1     -35.113  85.956  17.150  0.00  0.00    +0.000 A 
ATOM      7  C   UNL     1     -33.928  83.900  16.771  0.00  0.00    +0.000 A 
ATOM      8  C   UNL     1     -33.909  86.670  17.187  0.00  0.00    +0.000 A 
ATOM      9  C   UNL     1     -32.704  85.974  17.011  0.00  0.00    +0.000 A 
ATOM     10  C   UNL     1     -32.721  84.594  16.804  0.00  0.00    +0.000 A 
BRANCH   8  11
ATOM     11  C   UNL     1     -33.947  88.154  17.411  0.00  0.00    +0.000 C 
ATOM     12  F   UNL     1     -35.211  88.660  17.447  0.00  0.00    +0.000 F 
ATOM     13  F   UNL     1     -33.370  88.514  18.588  0.00  0.00    +0.000 F 
ATOM     14  F   UNL     1     -33.299  88.843  16.435  0.00  0.00    +0.000 F 
ENDBRANCH   8  11
BRANCH   9  16
ATOM     15  N   UNL     1     -30.395  87.151  17.056  0.00  0.00    +0.000 NA
ATOM     16  C   UNL     1     -31.432  86.631  17.035  0.00  0.00    +0.000 C 
ENDBRANCH   9  16
ENDBRANCH   1   5
BRANCH   2  17
ATOM     17  C   UNL     1     -38.614  83.139  16.077  0.00  0.00    +0.000 C 
ATOM     18  C   UNL     1     -38.435  81.668  16.548  0.00  0.00    +0.000 C 
BRANCH  17  19
ATOM     19  O   UNL     1     -39.387  83.107  14.889  0.00  0.00    +0.000 OA
ATOM     20  H   UNL     1     -38.767  83.376  14.184  0.00  0.00    +0.000 HD
ENDBRANCH  17  19
BRANCH  17  21
ATOM     21  C   UNL     1     -39.307  83.913  17.061  0.00  0.00    +0.000 C 
BRANCH  21  22
ATOM     22  S   UNL     1     -40.276  84.669  18.271  0.00  0.00    +0.000 S 
ATOM     23  O   UNL     1     -39.516  84.253  19.423  0.00  0.00    +0.000 OA
ATOM     24  O   UNL     1     -41.537  84.108  17.849  0.00  0.00    +0.000 OA
BRANCH  22  25
ATOM     25  C   UNL     1     -40.228  86.385  18.051  0.00  0.00    +0.000 A 
ATOM     26  C   UNL     1     -38.987  86.988  17.871  0.00  0.00    +0.000 A 
ATOM     27  C   UNL     1     -38.921  88.370  17.714  0.00  0.00    +0.000 A 
ATOM     28  C   UNL     1     -40.093  89.120  17.747  0.00  0.00    +0.000 A 
ATOM     29  F   UNL     1     -40.028  90.450  17.597  0.00  0.00    +0.000 F 
ATOM     30  C   UNL     1     -41.332  88.512  17.935  0.00  0.00    +0.000 A 
ATOM     31  C   UNL     1     -41.401  87.132  18.091  0.00  0.00    +0.000 A 
ENDBRANCH  22  25
ENDBRANCH  21  22
ENDBRANCH  17  21
ENDBRANCH   2  17
TORSDOF 8
ENDMDL
MODEL 7
REMARK VINA RESULT:      -5.5     21.436     22.831
REMARK  Name = Bicalutamide.pdbqt.pdb
REMARK  8 active torsions:
REMARK  status: ('A' for Active; 'I' for Inactive)
REMARK    1  A    between atoms: C_2  and  N_13
REMARK    2  A    between atoms: C_5  and  C_9
REMARK    3  A    between atoms: C_6  and  C_8
REMARK    4  A    between atoms: C_14  and  C_17
REMARK    5  A    between atoms: C_17  and  O_19
REMARK    6  A    between atoms: C_17  and  C_21
REMARK    7  A    between atoms: C_21  and  S_22
REMARK    8  A    between atoms: S_22  and  C_25
REMARK                            x       y       z     vdW  Elec       q    Type
REMARK                         _______ _______ _______ _____ _____    ______ ____
ROOT
ATOM      1  N   UNL     1     -35.950  87.508  -4.679  0.00  0.00    +0.000 N 
ATOM      2  C   UNL     1     -35.462  86.225  -4.912  0.00  0.00    +0.000 C 
ATOM      3  O   UNL     1     -35.177  85.773  -6.026  0.00  0.00    +0.000 OA
ATOM      4  H   UNL     1     -36.048  87.787  -3.702  0.00  0.00    +0.000 HD
ENDROOT
BRANCH   1   5
ATOM      5  C   UNL     1     -36.238  88.472  -5.659  0.00  0.00    +0.000 A 
ATOM      6  C   UNL     1     -37.542  88.959  -5.729  0.00  0.00    +0.000 A 
ATOM      7  C   UNL     1     -35.287  88.944  -6.559  0.00  0.00    +0.000 A 
ATOM      8  C   UNL     1     -37.912  89.914  -6.683  0.00  0.00    +0.000 A 
ATOM      9  C   UNL     1     -36.943  90.383  -7.582  0.00  0.00    +0.000 A 
ATOM     10  C   UNL     1     -35.637  89.894  -7.515  0.00  0.00    +0.000 A 
BRANCH   8  11
ATOM     11  C   UNL     1     -39.330  90.405  -6.713  0.00  0.00    +0.000 C 
ATOM     12  F   UNL     1     -39.960  90.155  -7.895  0.00  0.00    +0.000 F 
ATOM     13  F   UNL     1     -40.098  89.825  -5.754  0.00  0.00    +0.000 F 
ATOM     14  F   UNL     1     -39.419  91.747  -6.522  0.00  0.00    +0.000 F 
ENDBRANCH   8  11
BRANCH   9  16
ATOM     15  N   UNL     1     -37.495  92.142  -9.402  0.00  0.00    +0.000 NA
ATOM     16  C   UNL     1     -37.241  91.359  -8.587  0.00  0.00    +0.000 C 
ENDBRANCH   9  16
ENDBRANCH   1   5
BRANCH   2  17
ATOM     17  C   UNL     1     -35.322  85.312  -3.627  0.00  0.00    +0.000 C 
ATOM     18  C   UNL     1     -33.839  85.197  -3.174  0.00  0.00    +0.000 C 
BRANCH  17  19
ATOM     19  O   UNL     1     -35.778  83.998  -3.904  0.00  0.00    +0.000 OA
ATOM     20  H   UNL     1     -35.869  83.579  -3.028  0.00  0.00    +0.000 HD
ENDBRANCH  17  19
BRANCH  17  21
ATOM     21  C   UNL     1     -36.133  85.876  -2.592  0.00  0.00    +0.000 C 
BRANCH  21  22
ATOM     22  S   UNL     1     -37.259  86.397  -1.393  0.00  0.00    +0.000 S 
ATOM     23  O   UNL     1     -36.749  87.732  -1.209  0.00  0.00    +0.000 OA
ATOM     24  O   UNL     1     -37.063  85.290  -0.489  0.00  0.00    +0.000 OA
BRANCH  22  25
ATOM     25  C   UNL     1     -38.852  86.403  -2.072  0.00  0.00    +0.000 A 
ATOM     26  C   UNL     1     -38.987  86.134  -3.430  0.00  0.00    +0.000 A 
ATOM     27  C   UNL     1     -40.255  86.156  -4.003  0.00  0.00    +0.000 A 
ATOM     28  C   UNL     1     -41.360  86.449  -3.209  0.00  0.00    +0.000 A 
ATOM     29  F   UNL     1     -42.581  86.469  -3.761  0.00  0.00    +0.000 F 
ATOM     30  C   UNL     1     -41.219  86.724  -1.851  0.00  0.00    +0.000 A 
ATOM     31  C   UNL     1     -39.953  86.704  -1.276  0.00  0.00    +0.000 A 
ENDBRANCH  22  25
ENDBRANCH  21  22
ENDBRANCH  17  21
ENDBRANCH   2  17
TORSDOF 8
ENDMDL
MODEL 8
REMARK VINA RESULT:      -5.5     21.914     24.250
REMARK  Name = Bicalutamide.pdbqt.pdb
REMARK  8 active torsions:
REMARK  status: ('A' for Active; 'I' for Inactive)
REMARK    1  A    between atoms: C_2  and  N_13
REMARK    2  A    between atoms: C_5  and  C_9
REMARK    3  A    between atoms: C_6  and  C_8
REMARK    4  A    between atoms: C_14  and  C_17
REMARK    5  A    between atoms: C_17  and  O_19
REMARK    6  A    between atoms: C_17  and  C_21
REMARK    7  A    between atoms: C_21  and  S_22
REMARK    8  A    between atoms: S_22  and  C_25
REMARK                            x       y       z     vdW  Elec       q    Type
REMARK                         _______ _______ _______ _____ _____    ______ ____
ROOT
ATOM      1  N   UNL     1     -40.933  90.395  -6.048  0.00  0.00    +0.000 N 
ATOM      2  C   UNL     1     -40.241  91.544  -5.674  0.00  0.00    +0.000 C 
ATOM      3  O   UNL     1     -40.628  92.351  -4.822  0.00  0.00    +0.000 OA
ATOM      4  H   UNL     1     -40.453  89.763  -6.690  0.00  0.00    +0.000 HD
ENDROOT
BRANCH   1   5
ATOM      5  C   UNL     1     -42.186  89.990  -5.560  0.00  0.00    +0.000 A 
ATOM      6  C   UNL     1     -42.234  89.412  -4.292  0.00  0.00    +0.000 A 
ATOM      7  C   UNL     1     -43.364  90.131  -6.288  0.00  0.00    +0.000 A 
ATOM      8  C   UNL     1     -43.443  88.975  -3.737  0.00  0.00    +0.000 A 
ATOM      9  C   UNL     1     -44.623  89.125  -4.481  0.00  0.00    +0.000 A 
ATOM     10  C   UNL     1     -44.575  89.701  -5.752  0.00  0.00    +0.000 A 
BRANCH   8  11
ATOM     11  C   UNL     1     -43.438  88.360  -2.368  0.00  0.00    +0.000 C 
ATOM     12  F   UNL     1     -44.225  89.024  -1.478  0.00  0.00    +0.000 F 
ATOM     13  F   UNL     1     -43.887  87.077  -2.376  0.00  0.00    +0.000 F 
ATOM     14  F   UNL     1     -42.196  88.333  -1.816  0.00  0.00    +0.000 F 
ENDBRANCH   8  11
BRANCH   9  16
ATOM     15  N   UNL     1     -46.933  88.375  -3.579  0.00  0.00    +0.000 NA
ATOM     16  C   UNL     1     -45.898  88.703  -3.985  0.00  0.00    +0.000 C 
ENDBRANCH   9  16
ENDBRANCH   1   5
BRANCH   2  17
ATOM     17  C   UNL     1     -38.892  91.804  -6.459  0.00  0.00    +0.000 C 
ATOM     18  C   UNL     1     -38.189  93.099  -5.962  0.00  0.00    +0.000 C 
BRANCH  17  19
ATOM     19  O   UNL     1     -39.152  91.974  -7.842  0.00  0.00    +0.000 OA
ATOM     20  H   UNL     1     -39.998  91.509  -7.993  0.00  0.00    +0.000 HD
ENDBRANCH  17  19
BRANCH  17  21
ATOM     21  C   UNL     1     -38.048  90.662  -6.282  0.00  0.00    +0.000 C 
BRANCH  21  22
ATOM     22  S   UNL     1     -36.860  89.426  -6.094  0.00  0.00    +0.000 S 
ATOM     23  O   UNL     1     -37.729  88.289  -6.256  0.00  0.00    +0.000 OA
ATOM     24  O   UNL     1     -36.322  89.901  -4.842  0.00  0.00    +0.000 OA
BRANCH  22  25
ATOM     25  C   UNL     1     -35.704  89.545  -7.378  0.00  0.00    +0.000 A 
ATOM     26  C   UNL     1     -35.978  90.417  -8.427  0.00  0.00    +0.000 A 
ATOM     27  C   UNL     1     -35.075  90.513  -9.482  0.00  0.00    +0.000 A 
ATOM     28  C   UNL     1     -33.922  89.733  -9.470  0.00  0.00    +0.000 A 
ATOM     29  F   UNL     1     -33.054  89.826 -10.486  0.00  0.00    +0.000 F 
ATOM     30  C   UNL     1     -33.656  88.856  -8.421  0.00  0.00    +0.000 A 
ATOM     31  C   UNL     1     -34.557  88.759  -7.366  0.00  0.00    +0.000 A 
ENDBRANCH  22  25
ENDBRANCH  21  22
ENDBRANCH  17  21
ENDBRANCH   2  17
TORSDOF 8
ENDMDL
MODEL 9
REMARK VINA RESULT:      -5.4     21.110     22.698
REMARK  Name = Bicalutamide.pdbqt.pdb
REMARK  8 active torsions:
REMARK  status: ('A' for Active; 'I' for Inactive)
REMARK    1  A    between atoms: C_2  and  N_13
REMARK    2  A    between atoms: C_5  and  C_9
REMARK    3  A    between atoms: C_6  and  C_8
REMARK    4  A    between atoms: C_14  and  C_17
REMARK    5  A    between atoms: C_17  and  O_19
REMARK    6  A    between atoms: C_17  and  C_21
REMARK    7  A    between atoms: C_21  and  S_22
REMARK    8  A    between atoms: S_22  and  C_25
REMARK                            x       y       z     vdW  Elec       q    Type
REMARK                         _______ _______ _______ _____ _____    ______ ____
ROOT
ATOM      1  N   UNL     1     -38.864  86.175  -4.725  0.00  0.00    +0.000 N 
ATOM      2  C   UNL     1     -39.027  85.828  -3.386  0.00  0.00    +0.000 C 
ATOM      3  O   UNL     1     -39.110  86.638  -2.456  0.00  0.00    +0.000 OA
ATOM      4  H   UNL     1     -38.912  85.412  -5.401  0.00  0.00    +0.000 HD
ENDROOT
BRANCH   1   5
ATOM      5  C   UNL     1     -38.724  87.478  -5.229  0.00  0.00    +0.000 A 
ATOM      6  C   UNL     1     -37.448  88.040  -5.230  0.00  0.00    +0.000 A 
ATOM      7  C   UNL     1     -39.796  88.223  -5.709  0.00  0.00    +0.000 A 
ATOM      8  C   UNL     1     -37.226  89.337  -5.707  0.00  0.00    +0.000 A 
ATOM      9  C   UNL     1     -38.316  90.077  -6.190  0.00  0.00    +0.000 A 
ATOM     10  C   UNL     1     -39.594  89.516  -6.187  0.00  0.00    +0.000 A 
BRANCH   8  11
ATOM     11  C   UNL     1     -35.832  89.894  -5.686  0.00  0.00    +0.000 C 
ATOM     12  F   UNL     1     -35.356  90.199  -6.925  0.00  0.00    +0.000 F 
ATOM     13  F   UNL     1     -35.745  91.041  -4.963  0.00  0.00    +0.000 F 
ATOM     14  F   UNL     1     -34.935  89.027  -5.148  0.00  0.00    +0.000 F 
ENDBRANCH   8  11
BRANCH   9  16
ATOM     15  N   UNL     1     -38.068  92.490  -7.100  0.00  0.00    +0.000 NA
ATOM     16  C   UNL     1     -38.171  91.409  -6.695  0.00  0.00    +0.000 C 
ENDBRANCH   9  16
ENDBRANCH   1   5
BRANCH   2  17
ATOM     17  C   UNL     1     -39.061  84.274  -3.090  0.00  0.00    +0.000 C 
ATOM     18  C   UNL     1     -39.097  83.448  -4.407  0.00  0.00    +0.000 C 
BRANCH  17  19
ATOM     19  O   UNL     1     -40.226  83.939  -2.354  0.00  0.00    +0.000 OA
ATOM     20  H   UNL     1     -39.945  83.967  -1.420  0.00  0.00    +0.000 HD
ENDBRANCH  17  19
BRANCH  17  21
ATOM     21  C   UNL     1     -37.908  83.946  -2.309  0.00  0.00    +0.000 C 
BRANCH  21  22
ATOM     22  S   UNL     1     -36.504  83.768  -1.323  0.00  0.00    +0.000 S 
ATOM     23  O   UNL     1     -36.530  82.333  -1.197  0.00  0.00    +0.000 OA
ATOM     24  O   UNL     1     -36.898  84.708  -0.302  0.00  0.00    +0.000 OA
BRANCH  22  25
ATOM     25  C   UNL     1     -35.117  84.315  -2.202  0.00  0.00    +0.000 A 
ATOM     26  C   UNL     1     -35.313  85.218  -3.242  0.00  0.00    +0.000 A 
ATOM     27  C   UNL     1     -34.216  85.654  -3.979  0.00  0.00    +0.000 A 
ATOM     28  C   UNL     1     -32.947  85.176  -3.664  0.00  0.00    +0.000 A 
ATOM     29  F   UNL     1     -31.891  85.597  -4.373  0.00  0.00    +0.000 F 
ATOM     30  C   UNL     1     -32.756  84.267  -2.626  0.00  0.00    +0.000 A 
ATOM     31  C   UNL     1     -33.851  83.830  -1.889  0.00  0.00    +0.000 A 
ENDBRANCH  22  25
ENDBRANCH  21  22
ENDBRANCH  17  21
ENDBRANCH   2  17
TORSDOF 8
ENDMDL
