MODEL 1
REMARK VINA RESULT:      -5.7      0.000      0.000
REMARK  Name = Bisphenol_A.pdbqt.pdb
REMARK  4 active torsions:
REMARK  status: ('A' for Active; 'I' for Inactive)
REMARK    1  A    between atoms: C_1  and  C_4
REMARK    2  A    between atoms: C_1  and  C_12
REMARK    3  A    between atoms: C_7  and  O_10
REMARK    4  A    between atoms: C_15  and  O_18
REMARK                            x       y       z     vdW  Elec       q    Type
REMARK                         _______ _______ _______ _____ _____    ______ ____
ROOT
ATOM      1  C   UNL     1     -33.404  98.863 -14.263  0.00  0.00    +0.000 C 
ATOM      2  C   UNL     1     -34.493  98.609 -15.365  0.00  0.00    +0.000 C 
ATOM      3  C   UNL     1     -32.593 100.146 -14.666  0.00  0.00    +0.000 C 
ENDROOT
BRANCH   1   4
ATOM      4  C   UNL     1     -34.151  99.056 -12.935  0.00  0.00    +0.000 A 
ATOM      5  C   UNL     1     -35.184 100.007 -12.843  0.00  0.00    +0.000 A 
ATOM      6  C   UNL     1     -35.870 100.221 -11.649  0.00  0.00    +0.000 A 
ATOM      7  C   UNL     1     -35.523  99.483 -10.524  0.00  0.00    +0.000 A 
ATOM      8  C   UNL     1     -34.503  98.541 -10.577  0.00  0.00    +0.000 A 
ATOM      9  C   UNL     1     -33.822  98.338 -11.776  0.00  0.00    +0.000 A 
BRANCH   7  10
ATOM     10  O   UNL     1     -36.177  99.664  -9.342  0.00  0.00    +0.000 OA
ATOM     11  H   UNL     1     -36.468  98.796  -9.012  0.00  0.00    +0.000 HD
ENDBRANCH   7  10
ENDBRANCH   1   4
BRANCH   1  12
ATOM     12  C   UNL     1     -32.395  97.708 -14.180  0.00  0.00    +0.000 A 
ATOM     13  C   UNL     1     -31.017  97.982 -14.104  0.00  0.00    +0.000 A 
ATOM     14  C   UNL     1     -30.075  96.959 -14.046  0.00  0.00    +0.000 A 
ATOM     15  C   UNL     1     -30.505  95.637 -14.067  0.00  0.00    +0.000 A 
ATOM     16  C   UNL     1     -31.857  95.330 -14.148  0.00  0.00    +0.000 A 
ATOM     17  C   UNL     1     -32.790  96.362 -14.209  0.00  0.00    +0.000 A 
BRANCH  15  18
ATOM     18  O   UNL     1     -29.609  94.611 -14.005  0.00  0.00    +0.000 OA
ATOM     19  H   UNL     1     -30.072  93.783 -14.223  0.00  0.00    +0.000 HD
ENDBRANCH  15  18
ENDBRANCH   1  12
TORSDOF 4
ENDMDL
MODEL 2
REMARK VINA RESULT:      -5.6     26.110     27.984
REMARK  Name = Bisphenol_A.pdbqt.pdb
REMARK  4 active torsions:
REMARK  status: ('A' for Active; 'I' for Inactive)
REMARK    1  A    between atoms: C_1  and  C_4
REMARK    2  A    between atoms: C_1  and  C_12
REMARK    3  A    between atoms: C_7  and  O_10
REMARK    4  A    between atoms: C_15  and  O_18
REMARK                            x       y       z     vdW  Elec       q    Type
REMARK                         _______ _______ _______ _____ _____    ______ ____
ROOT
ATOM      1  C   UNL     1     -34.494 101.222  13.811  0.00  0.00    +0.000 C 
ATOM      2  C   UNL     1     -34.540 101.193  12.242  0.00  0.00    +0.000 C 
ATOM      3  C   UNL     1     -34.209 102.699  14.262  0.00  0.00    +0.000 C 
ENDROOT
BRANCH   1   4
ATOM      4  C   UNL     1     -35.862 100.730  14.305  0.00  0.00    +0.000 A 
ATOM      5  C   UNL     1     -36.377 101.198  15.528  0.00  0.00    +0.000 A 
ATOM      6  C   UNL     1     -37.606 100.759  16.015  0.00  0.00    +0.000 A 
ATOM      7  C   UNL     1     -38.336  99.833  15.280  0.00  0.00    +0.000 A 
ATOM      8  C   UNL     1     -37.855  99.343  14.072  0.00  0.00    +0.000 A 
ATOM      9  C   UNL     1     -36.623  99.789  13.597  0.00  0.00    +0.000 A 
BRANCH   7  10
ATOM     10  O   UNL     1     -39.545  99.385  15.725  0.00  0.00    +0.000 OA
ATOM     11  H   UNL     1     -40.228  99.648  15.085  0.00  0.00    +0.000 HD
ENDBRANCH   7  10
ENDBRANCH   1   4
BRANCH   1  12
ATOM     12  C   UNL     1     -33.350 100.361  14.364  0.00  0.00    +0.000 A 
ATOM     13  C   UNL     1     -32.014 100.690  14.067  0.00  0.00    +0.000 A 
ATOM     14  C   UNL     1     -30.954  99.920  14.539  0.00  0.00    +0.000 A 
ATOM     15  C   UNL     1     -31.221  98.800  15.316  0.00  0.00    +0.000 A 
ATOM     16  C   UNL     1     -32.527  98.441  15.623  0.00  0.00    +0.000 A 
ATOM     17  C   UNL     1     -33.580  99.217  15.144  0.00  0.00    +0.000 A 
BRANCH  15  18
ATOM     18  O   UNL     1     -30.206  98.027  15.798  0.00  0.00    +0.000 OA
ATOM     19  H   UNL     1     -30.150  98.155  16.762  0.00  0.00    +0.000 HD
ENDBRANCH  15  18
ENDBRANCH   1  12
TORSDOF 4
ENDMDL
MODEL 3
REMARK VINA RESULT:      -5.6     26.145     28.399
REMARK  Name = Bisphenol_A.pdbqt.pdb
REMARK  4 active torsions:
REMARK  status: ('A' for Active; 'I' for Inactive)
REMARK    1  A    between atoms: C_1  and  C_4
REMARK    2  A    between atoms: C_1  and  C_12
REMARK    3  A    between atoms: C_7  and  O_10
REMARK    4  A    between atoms: C_15  and  O_18
REMARK                            x       y       z     vdW  Elec       q    Type
REMARK                         _______ _______ _______ _____ _____    ______ ____
ROOT
ATOM      1  C   UNL     1     -34.491 101.249  13.850  0.00  0.00    +0.000 C 
ATOM      2  C   UNL     1     -34.210 102.715  14.335  0.00  0.00    +0.000 C 
ATOM      3  C   UNL     1     -34.528 101.254  12.280  0.00  0.00    +0.000 C 
ENDROOT
BRANCH   1   4
ATOM      4  C   UNL     1     -33.348 100.375  14.389  0.00  0.00    +0.000 A 
ATOM      5  C   UNL     1     -32.015 100.691  14.073  0.00  0.00    +0.000 A 
ATOM      6  C   UNL     1     -30.955  99.910  14.530  0.00  0.00    +0.000 A 
ATOM      7  C   UNL     1     -31.222  98.792  15.310  0.00  0.00    +0.000 A 
ATOM      8  C   UNL     1     -32.528  98.446  15.634  0.00  0.00    +0.000 A 
ATOM      9  C   UNL     1     -33.579  99.233  15.169  0.00  0.00    +0.000 A 
BRANCH   7  10
ATOM     10  O   UNL     1     -30.209  98.008  15.777  0.00  0.00    +0.000 OA
ATOM     11  H   UNL     1     -30.217  98.039  16.749  0.00  0.00    +0.000 HD
ENDBRANCH   7  10
ENDBRANCH   1   4
BRANCH   1  12
ATOM     12  C   UNL     1     -35.861 100.743  14.325  0.00  0.00    +0.000 A 
ATOM     13  C   UNL     1     -36.410 101.225  15.527  0.00  0.00    +0.000 A 
ATOM     14  C   UNL     1     -37.642 100.775  15.996  0.00  0.00    +0.000 A 
ATOM     15  C   UNL     1     -38.341  99.825  15.262  0.00  0.00    +0.000 A 
ATOM     16  C   UNL     1     -37.826  99.321  14.074  0.00  0.00    +0.000 A 
ATOM     17  C   UNL     1     -36.592  99.777  13.617  0.00  0.00    +0.000 A 
BRANCH  15  18
ATOM     18  O   UNL     1     -39.553  99.366  15.689  0.00  0.00    +0.000 OA
ATOM     19  H   UNL     1     -40.124 100.131  15.878  0.00  0.00    +0.000 HD
ENDBRANCH  15  18
ENDBRANCH   1  12
TORSDOF 4
ENDMDL
MODEL 4
REMARK VINA RESULT:      -5.6     26.452     28.637
REMARK  Name = Bisphenol_A.pdbqt.pdb
REMARK  4 active torsions:
REMARK  status: ('A' for Active; 'I' for Inactive)
REMARK    1  A    between atoms: C_1  and  C_4
REMARK    2  A    between atoms: C_1  and  C_12
REMARK    3  A    between atoms: C_7  and  O_10
REMARK    4  A    between atoms: C_15  and  O_18
REMARK                            x       y       z     vdW  Elec       q    Type
REMARK                         _______ _______ _______ _____ _____    ______ ____
ROOT
ATOM      1  C   UNL     1     -35.074  99.723  16.182  0.00  0.00    +0.000 C 
ATOM      2  C   UNL     1     -35.471  98.293  16.692  0.00  0.00    +0.000 C 
ATOM      3  C   UNL     1     -35.266 100.734  17.367  0.00  0.00    +0.000 C 
ENDROOT
BRANCH   1   4
ATOM      4  C   UNL     1     -33.607  99.644  15.734  0.00  0.00    +0.000 A 
ATOM      5  C   UNL     1     -32.848  98.493  16.013  0.00  0.00    +0.000 A 
ATOM      6  C   UNL     1     -31.510  98.395  15.638  0.00  0.00    +0.000 A 
ATOM      7  C   UNL     1     -30.910  99.461  14.978  0.00  0.00    +0.000 A 
ATOM      8  C   UNL     1     -31.627 100.616  14.692  0.00  0.00    +0.000 A 
ATOM      9  C   UNL     1     -32.964 100.703  15.075  0.00  0.00    +0.000 A 
BRANCH   7  10
ATOM     10  O   UNL     1     -29.604  99.397  14.592  0.00  0.00    +0.000 OA
ATOM     11  H   UNL     1     -29.056  99.806  15.284  0.00  0.00    +0.000 HD
ENDBRANCH   7  10
ENDBRANCH   1   4
BRANCH   1  12
ATOM     12  C   UNL     1     -35.987 100.196  15.042  0.00  0.00    +0.000 A 
ATOM     13  C   UNL     1     -36.693 101.407  15.163  0.00  0.00    +0.000 A 
ATOM     14  C   UNL     1     -37.544 101.857  14.157  0.00  0.00    +0.000 A 
ATOM     15  C   UNL     1     -37.702 101.091  13.008  0.00  0.00    +0.000 A 
ATOM     16  C   UNL     1     -37.026  99.887  12.857  0.00  0.00    +0.000 A 
ATOM     17  C   UNL     1     -36.180  99.445  13.873  0.00  0.00    +0.000 A 
BRANCH  15  18
ATOM     18  O   UNL     1     -38.522 101.504  12.000  0.00  0.00    +0.000 OA
ATOM     19  H   UNL     1     -39.445 101.368  12.276  0.00  0.00    +0.000 HD
ENDBRANCH  15  18
ENDBRANCH   1  12
TORSDOF 4
ENDMDL
MODEL 5
REMARK VINA RESULT:      -5.5     26.478     28.317
REMARK  Name = Bisphenol_A.pdbqt.pdb
REMARK  4 active torsions:
REMARK  status: ('A' for Active; 'I' for Inactive)
REMARK    1  A    between atoms: C_1  and  C_4
REMARK    2  A    between atoms: C_1  and  C_12
REMARK    3  A    between atoms: C_7  and  O_10
REMARK    4  A    between atoms: C_15  and  O_18
REMARK                            x       y       z     vdW  Elec       q    Type
REMARK                         _______ _______ _______ _____ _____    ______ ____
ROOT
ATOM      1  C   UNL     1     -35.064  99.737  16.187  0.00  0.00    +0.000 C 
ATOM      2  C   UNL     1     -35.255 100.748  17.372  0.00  0.00    +0.000 C 
ATOM      3  C   UNL     1     -35.463  98.307  16.698  0.00  0.00    +0.000 C 
ENDROOT
BRANCH   1   4
ATOM      4  C   UNL     1     -35.980 100.209  15.047  0.00  0.00    +0.000 A 
ATOM      5  C   UNL     1     -36.654 101.438  15.153  0.00  0.00    +0.000 A 
ATOM      6  C   UNL     1     -37.506 101.889  14.146  0.00  0.00    +0.000 A 
ATOM      7  C   UNL     1     -37.697 101.103  13.016  0.00  0.00    +0.000 A 
ATOM      8  C   UNL     1     -37.053  99.879  12.882  0.00  0.00    +0.000 A 
ATOM      9  C   UNL     1     -36.206  99.439  13.897  0.00  0.00    +0.000 A 
BRANCH   7  10
ATOM     10  O   UNL     1     -38.520 101.515  12.010  0.00  0.00    +0.000 OA
ATOM     11  H   UNL     1     -38.066 102.210  11.502  0.00  0.00    +0.000 HD
ENDBRANCH   7  10
ENDBRANCH   1   4
BRANCH   1  12
ATOM     12  C   UNL     1     -33.599  99.655  15.737  0.00  0.00    +0.000 A 
ATOM     13  C   UNL     1     -32.837  98.507  16.026  0.00  0.00    +0.000 A 
ATOM     14  C   UNL     1     -31.501  98.408  15.648  0.00  0.00    +0.000 A 
ATOM     15  C   UNL     1     -30.904  99.467  14.975  0.00  0.00    +0.000 A 
ATOM     16  C   UNL     1     -31.624 100.618  14.679  0.00  0.00    +0.000 A 
ATOM     17  C   UNL     1     -32.959 100.707  15.065  0.00  0.00    +0.000 A 
BRANCH  15  18
ATOM     18  O   UNL     1     -29.599  99.400  14.585  0.00  0.00    +0.000 OA
ATOM     19  H   UNL     1     -29.558  99.514  13.619  0.00  0.00    +0.000 HD
ENDBRANCH  15  18
ENDBRANCH   1  12
TORSDOF 4
ENDMDL
MODEL 6
REMARK VINA RESULT:      -5.4     26.212     28.566
REMARK  Name = Bisphenol_A.pdbqt.pdb
REMARK  4 active torsions:
REMARK  status: ('A' for Active; 'I' for Inactive)
REMARK    1  A    between atoms: C_1  and  C_4
REMARK    2  A    between atoms: C_1  and  C_12
REMARK    3  A    between atoms: C_7  and  O_10
REMARK    4  A    between atoms: C_15  and  O_18
REMARK                            x       y       z     vdW  Elec       q    Type
REMARK                         _______ _______ _______ _____ _____    ______ ____
ROOT
ATOM      1  C   UNL     1     -32.275  99.946  15.661  0.00  0.00    +0.000 C 
ATOM      2  C   UNL     1     -31.432  98.676  15.283  0.00  0.00    +0.000 C 
ATOM      3  C   UNL     1     -32.887  99.717  17.089  0.00  0.00    +0.000 C 
ENDROOT
BRANCH   1   4
ATOM      4  C   UNL     1     -31.311 101.142  15.641  0.00  0.00    +0.000 A 
ATOM      5  C   UNL     1     -30.115 101.066  14.905  0.00  0.00    +0.000 A 
ATOM      6  C   UNL     1     -29.209 102.125  14.878  0.00  0.00    +0.000 A 
ATOM      7  C   UNL     1     -29.492 103.279  15.600  0.00  0.00    +0.000 A 
ATOM      8  C   UNL     1     -30.661 103.385  16.344  0.00  0.00    +0.000 A 
ATOM      9  C   UNL     1     -31.557 102.318  16.364  0.00  0.00    +0.000 A 
BRANCH   7  10
ATOM     10  O   UNL     1     -28.631 104.335  15.592  0.00  0.00    +0.000 OA
ATOM     11  H   UNL     1     -28.950 104.991  14.949  0.00  0.00    +0.000 HD
ENDBRANCH   7  10
ENDBRANCH   1   4
BRANCH   1  12
ATOM     12  C   UNL     1     -33.455 100.154  14.701  0.00  0.00    +0.000 A 
ATOM     13  C   UNL     1     -34.632  99.400  14.859  0.00  0.00    +0.000 A 
ATOM     14  C   UNL     1     -35.713  99.551  13.996  0.00  0.00    +0.000 A 
ATOM     15  C   UNL     1     -35.627 100.465  12.952  0.00  0.00    +0.000 A 
ATOM     16  C   UNL     1     -34.478 101.222  12.762  0.00  0.00    +0.000 A 
ATOM     17  C   UNL     1     -33.401 101.059  13.631  0.00  0.00    +0.000 A 
BRANCH  15  18
ATOM     18  O   UNL     1     -36.670 100.643  12.091  0.00  0.00    +0.000 OA
ATOM     19  H   UNL     1     -36.483 101.419  11.535  0.00  0.00    +0.000 HD
ENDBRANCH  15  18
ENDBRANCH   1  12
TORSDOF 4
ENDMDL
MODEL 7
REMARK VINA RESULT:      -5.4     26.519     28.462
REMARK  Name = Bisphenol_A.pdbqt.pdb
REMARK  4 active torsions:
REMARK  status: ('A' for Active; 'I' for Inactive)
REMARK    1  A    between atoms: C_1  and  C_4
REMARK    2  A    between atoms: C_1  and  C_12
REMARK    3  A    between atoms: C_7  and  O_10
REMARK    4  A    between atoms: C_15  and  O_18
REMARK                            x       y       z     vdW  Elec       q    Type
REMARK                         _______ _______ _______ _____ _____    ______ ____
ROOT
ATOM      1  C   UNL     1     -34.808 101.770  15.014  0.00  0.00    +0.000 C 
ATOM      2  C   UNL     1     -34.953 102.445  16.424  0.00  0.00    +0.000 C 
ATOM      3  C   UNL     1     -34.364 102.873  13.989  0.00  0.00    +0.000 C 
ENDROOT
BRANCH   1   4
ATOM      4  C   UNL     1     -33.749 100.666  15.157  0.00  0.00    +0.000 A 
ATOM      5  C   UNL     1     -34.038  99.507  15.899  0.00  0.00    +0.000 A 
ATOM      6  C   UNL     1     -33.095  98.494  16.064  0.00  0.00    +0.000 A 
ATOM      7  C   UNL     1     -31.839  98.636  15.487  0.00  0.00    +0.000 A 
ATOM      8  C   UNL     1     -31.516  99.771  14.755  0.00  0.00    +0.000 A 
ATOM      9  C   UNL     1     -32.467 100.778  14.599  0.00  0.00    +0.000 A 
BRANCH   7  10
ATOM     10  O   UNL     1     -30.894  97.663  15.625  0.00  0.00    +0.000 OA
ATOM     11  H   UNL     1     -30.302  97.907  16.357  0.00  0.00    +0.000 HD
ENDBRANCH   7  10
ENDBRANCH   1   4
BRANCH   1  12
ATOM     12  C   UNL     1     -36.145 101.207  14.511  0.00  0.00    +0.000 A 
ATOM     13  C   UNL     1     -36.247 100.705  13.201  0.00  0.00    +0.000 A 
ATOM     14  C   UNL     1     -37.448 100.204  12.706  0.00  0.00    +0.000 A 
ATOM     15  C   UNL     1     -38.572 100.204  13.523  0.00  0.00    +0.000 A 
ATOM     16  C   UNL     1     -38.510 100.699  14.820  0.00  0.00    +0.000 A 
ATOM     17  C   UNL     1     -37.303 101.200  15.303  0.00  0.00    +0.000 A 
BRANCH  15  18
ATOM     18  O   UNL     1     -39.763  99.716  13.073  0.00  0.00    +0.000 OA
ATOM     19  H   UNL     1     -40.284  99.416  13.838  0.00  0.00    +0.000 HD
ENDBRANCH  15  18
ENDBRANCH   1  12
TORSDOF 4
ENDMDL
MODEL 8
REMARK VINA RESULT:      -5.3     26.824     28.871
REMARK  Name = Bisphenol_A.pdbqt.pdb
REMARK  4 active torsions:
REMARK  status: ('A' for Active; 'I' for Inactive)
REMARK    1  A    between atoms: C_1  and  C_4
REMARK    2  A    between atoms: C_1  and  C_12
REMARK    3  A    between atoms: C_7  and  O_10
REMARK    4  A    between atoms: C_15  and  O_18
REMARK                            x       y       z     vdW  Elec       q    Type
REMARK                         _______ _______ _______ _____ _____    ______ ____
ROOT
ATOM      1  C   UNL     1     -32.484 101.089  15.042  0.00  0.00    +0.000 C 
ATOM      2  C   UNL     1     -31.786 101.373  13.665  0.00  0.00    +0.000 C 
ATOM      3  C   UNL     1     -32.664 102.459  15.788  0.00  0.00    +0.000 C 
ENDROOT
BRANCH   1   4
ATOM      4  C   UNL     1     -33.836 100.430  14.728  0.00  0.00    +0.000 A 
ATOM      5  C   UNL     1     -34.532 100.780  13.556  0.00  0.00    +0.000 A 
ATOM      6  C   UNL     1     -35.768 100.216  13.250  0.00  0.00    +0.000 A 
ATOM      7  C   UNL     1     -36.328  99.292  14.123  0.00  0.00    +0.000 A 
ATOM      8  C   UNL     1     -35.672  98.928  15.293  0.00  0.00    +0.000 A 
ATOM      9  C   UNL     1     -34.437  99.502  15.589  0.00  0.00    +0.000 A 
BRANCH   7  10
ATOM     10  O   UNL     1     -37.534  98.717  13.851  0.00  0.00    +0.000 OA
ATOM     11  H   UNL     1     -37.628  97.918  14.399  0.00  0.00    +0.000 HD
ENDBRANCH   7  10
ENDBRANCH   1   4
BRANCH   1  12
ATOM     12  C   UNL     1     -31.619 100.200  15.947  0.00  0.00    +0.000 A 
ATOM     13  C   UNL     1     -31.434 100.544  17.299  0.00  0.00    +0.000 A 
ATOM     14  C   UNL     1     -30.642  99.770  18.144  0.00  0.00    +0.000 A 
ATOM     15  C   UNL     1     -30.018  98.635  17.639  0.00  0.00    +0.000 A 
ATOM     16  C   UNL     1     -30.174  98.269  16.308  0.00  0.00    +0.000 A 
ATOM     17  C   UNL     1     -30.966  99.054  15.472  0.00  0.00    +0.000 A 
BRANCH  15  18
ATOM     18  O   UNL     1     -29.241  97.851  18.440  0.00  0.00    +0.000 OA
ATOM     19  H   UNL     1     -28.537  97.455  17.896  0.00  0.00    +0.000 HD
ENDBRANCH  15  18
ENDBRANCH   1  12
TORSDOF 4
ENDMDL
MODEL 9
REMARK VINA RESULT:      -5.1      9.183     10.622
REMARK  Name = Bisphenol_A.pdbqt.pdb
REMARK  4 active torsions:
REMARK  status: ('A' for Active; 'I' for Inactive)
REMARK    1  A    between atoms: C_1  and  C_4
REMARK    2  A    between atoms: C_1  and  C_12
REMARK    3  A    between atoms: C_7  and  O_10
REMARK    4  A    between atoms: C_15  and  O_18
REMARK                            x       y       z     vdW  Elec       q    Type
REMARK                         _______ _______ _______ _____ _____    ______ ____
ROOT
ATOM      1  C   UNL     1     -37.376  89.750  -6.808  0.00  0.00    +0.000 C 
ATOM      2  C   UNL     1     -36.247  89.613  -5.727  0.00  0.00    +0.000 C 
ATOM      3  C   UNL     1     -37.987  88.325  -7.059  0.00  0.00    +0.000 C 
ENDROOT
BRANCH   1   4
ATOM      4  C   UNL     1     -38.420  90.724  -6.241  0.00  0.00    +0.000 A 
ATOM      5  C   UNL     1     -38.027  92.010  -5.828  0.00  0.00    +0.000 A 
ATOM      6  C   UNL     1     -38.944  92.913  -5.292  0.00  0.00    +0.000 A 
ATOM      7  C   UNL     1     -40.273  92.531  -5.158  0.00  0.00    +0.000 A 
ATOM      8  C   UNL     1     -40.694  91.266  -5.548  0.00  0.00    +0.000 A 
ATOM      9  C   UNL     1     -39.767  90.372  -6.080  0.00  0.00    +0.000 A 
BRANCH   7  10
ATOM     10  O   UNL     1     -41.197  93.391  -4.641  0.00  0.00    +0.000 OA
ATOM     11  H   UNL     1     -41.922  93.489  -5.283  0.00  0.00    +0.000 HD
ENDBRANCH   7  10
ENDBRANCH   1   4
BRANCH   1  12
ATOM     12  C   UNL     1     -36.821  90.238  -8.154  0.00  0.00    +0.000 A 
ATOM     13  C   UNL     1     -37.676  90.858  -9.084  0.00  0.00    +0.000 A 
ATOM     14  C   UNL     1     -37.209  91.296 -10.321  0.00  0.00    +0.000 A 
ATOM     15  C   UNL     1     -35.870  91.114 -10.645  0.00  0.00    +0.000 A 
ATOM     16  C   UNL     1     -34.999  90.500  -9.754  0.00  0.00    +0.000 A 
ATOM     17  C   UNL     1     -35.478  90.063  -8.521  0.00  0.00    +0.000 A 
BRANCH  15  18
ATOM     18  O   UNL     1     -35.379  91.537 -11.845  0.00  0.00    +0.000 OA
ATOM     19  H   UNL     1     -35.418  90.796 -12.474  0.00  0.00    +0.000 HD
ENDBRANCH  15  18
ENDBRANCH   1  12
TORSDOF 4
ENDMDL
