MODEL 1
REMARK VINA RESULT:      -6.4      0.000      0.000
REMARK  Name = BX795.pdbqt.pdb
REMARK  7 active torsions:
REMARK  status: ('A' for Active; 'I' for Inactive)
REMARK    1  A    between atoms: C_4  and  N_25
REMARK    2  A    between atoms: N_8  and  C_10
REMARK    3  A    between atoms: C_12  and  N_16
REMARK    4  A    between atoms: N_25  and  C_27
REMARK    5  A    between atoms: C_27  and  C_28
REMARK    6  A    between atoms: C_29  and  N_30
REMARK    7  A    between atoms: C_31  and  C_34
REMARK                            x       y       z     vdW  Elec       q    Type
REMARK                         _______ _______ _______ _____ _____    ______ ____
ROOT
ATOM      1  I   UNL     1     -34.990  89.437  24.724  0.00  0.00    +0.000 I 
ATOM      2  N   UNL     1     -32.347  90.079  21.361  0.00  0.00    +0.000 NA
ATOM      3  N   UNL     1     -31.458  88.286  22.599  0.00  0.00    +0.000 NA
ATOM      4  C   UNL     1     -33.360  90.228  22.242  0.00  0.00    +0.000 A 
ATOM      5  C   UNL     1     -31.427  89.123  21.560  0.00  0.00    +0.000 A 
ATOM      6  C   UNL     1     -33.487  89.368  23.315  0.00  0.00    +0.000 A 
ATOM      7  C   UNL     1     -32.500  88.423  23.440  0.00  0.00    +0.000 A 
ATOM      8  N   UNL     1     -30.350  88.994  20.690  0.00  0.00    +0.000 N 
ATOM      9  H   UNL     1     -29.704  88.285  21.006  0.00  0.00    +0.000 HD
ENDROOT
BRANCH   8  10
ATOM     10  C   UNL     1     -30.150  89.533  19.414  0.00  0.00    +0.000 A 
ATOM     11  C   UNL     1     -29.861  88.738  18.301  0.00  0.00    +0.000 A 
ATOM     12  C   UNL     1     -29.761  89.273  17.017  0.00  0.00    +0.000 A 
ATOM     13  C   UNL     1     -29.982  90.633  16.830  0.00  0.00    +0.000 A 
ATOM     14  C   UNL     1     -30.282  91.446  17.920  0.00  0.00    +0.000 A 
ATOM     15  C   UNL     1     -30.368  90.897  19.200  0.00  0.00    +0.000 A 
BRANCH  12  16
ATOM     16  N   UNL     1     -29.392  88.400  15.978  0.00  0.00    +0.000 N 
ATOM     17  C   UNL     1     -28.324  88.566  15.114  0.00  0.00    +0.000 C 
ATOM     18  O   UNL     1     -27.633  89.582  15.058  0.00  0.00    +0.000 OA
ATOM     19  N   UNL     1     -28.109  87.473  14.275  0.00  0.00    +0.000 N 
ATOM     20  C   UNL     1     -28.748  86.277  14.140  0.00  0.00    +0.000 A 
ATOM     21  C   UNL     1     -27.158  87.313  13.313  0.00  0.00    +0.000 A 
ATOM     22  C   UNL     1     -28.283  85.262  13.090  0.00  0.00    +0.000 A 
ATOM     23  C   UNL     1     -27.103  86.030  12.476  0.00  0.00    +0.000 A 
ATOM     24  H   UNL     1     -30.012  87.617  15.804  0.00  0.00    +0.000 HD
ENDBRANCH  12  16
ENDBRANCH   8  10
BRANCH   4  25
ATOM     25  N   UNL     1     -34.326  91.239  22.003  0.00  0.00    +0.000 N 
ATOM     26  H   UNL     1     -34.770  91.503  22.879  0.00  0.00    +0.000 HD
BRANCH  25  27
ATOM     27  C   UNL     1     -33.881  92.367  21.189  0.00  0.00    +0.000 C 
BRANCH  27  28
ATOM     28  C   UNL     1     -33.320  93.548  20.389  0.00  0.00    +0.000 C 
ATOM     29  C   UNL     1     -32.687  94.672  19.565  0.00  0.00    +0.000 C 
BRANCH  29  30
ATOM     30  N   UNL     1     -32.106  95.627  18.804  0.00  0.00    +0.000 N 
ATOM     31  C   UNL     1     -32.450  96.964  18.671  0.00  0.00    +0.000 C 
ATOM     32  O   UNL     1     -33.382  97.447  19.314  0.00  0.00    +0.000 OA
ATOM     33  H   UNL     1     -31.358  95.275  18.217  0.00  0.00    +0.000 HD
BRANCH  31  34
ATOM     34  C   UNL     1     -31.648  97.712  17.718  0.00  0.00    +0.000 A 
ATOM     35  S   UNL     1     -32.278  98.068  16.156  0.00  0.00    +0.000 S 
ATOM     36  C   UNL     1     -30.853  98.865  15.703  0.00  0.00    +0.000 A 
ATOM     37  C   UNL     1     -29.907  98.879  16.690  0.00  0.00    +0.000 A 
ATOM     38  C   UNL     1     -30.369  98.215  17.848  0.00  0.00    +0.000 A 
ENDBRANCH  31  34
ENDBRANCH  29  30
ENDBRANCH  27  28
ENDBRANCH  25  27
ENDBRANCH   4  25
TORSDOF 7
ENDMDL
MODEL 2
REMARK VINA RESULT:      -5.7      8.003     10.567
REMARK  Name = BX795.pdbqt.pdb
REMARK  7 active torsions:
REMARK  status: ('A' for Active; 'I' for Inactive)
REMARK    1  A    between atoms: C_4  and  N_25
REMARK    2  A    between atoms: N_8  and  C_10
REMARK    3  A    between atoms: C_12  and  N_16
REMARK    4  A    between atoms: N_25  and  C_27
REMARK    5  A    between atoms: C_27  and  C_28
REMARK    6  A    between atoms: C_29  and  N_30
REMARK    7  A    between atoms: C_31  and  C_34
REMARK                            x       y       z     vdW  Elec       q    Type
REMARK                         _______ _______ _______ _____ _____    ______ ____
ROOT
ATOM      1  I   UNL     1     -26.375  81.133  18.127  0.00  0.00    +0.000 I 
ATOM      2  N   UNL     1     -27.788  83.435  14.749  0.00  0.00    +0.000 NA
ATOM      3  N   UNL     1     -25.629  84.221  15.259  0.00  0.00    +0.000 NA
ATOM      4  C   UNL     1     -27.747  82.558  15.774  0.00  0.00    +0.000 A 
ATOM      5  C   UNL     1     -26.741  84.241  14.520  0.00  0.00    +0.000 A 
ATOM      6  C   UNL     1     -26.613  82.444  16.554  0.00  0.00    +0.000 A 
ATOM      7  C   UNL     1     -25.591  83.309  16.248  0.00  0.00    +0.000 A 
ATOM      8  N   UNL     1     -26.791  85.186  13.501  0.00  0.00    +0.000 N 
ATOM      9  H   UNL     1     -25.966  85.767  13.495  0.00  0.00    +0.000 HD
ENDROOT
BRANCH   8  10
ATOM     10  C   UNL     1     -27.678  85.306  12.425  0.00  0.00    +0.000 A 
ATOM     11  C   UNL     1     -27.979  84.236  11.578  0.00  0.00    +0.000 A 
ATOM     12  C   UNL     1     -28.937  84.337  10.570  0.00  0.00    +0.000 A 
ATOM     13  C   UNL     1     -29.637  85.529  10.417  0.00  0.00    +0.000 A 
ATOM     14  C   UNL     1     -29.365  86.608  11.254  0.00  0.00    +0.000 A 
ATOM     15  C   UNL     1     -28.395  86.493  12.251  0.00  0.00    +0.000 A 
BRANCH  12  16
ATOM     16  N   UNL     1     -29.111  83.226   9.725  0.00  0.00    +0.000 N 
ATOM     17  C   UNL     1     -29.795  82.064  10.038  0.00  0.00    +0.000 C 
ATOM     18  O   UNL     1     -30.227  81.797  11.158  0.00  0.00    +0.000 OA
ATOM     19  N   UNL     1     -29.933  81.190   8.960  0.00  0.00    +0.000 N 
ATOM     20  C   UNL     1     -29.522  81.257   7.662  0.00  0.00    +0.000 A 
ATOM     21  C   UNL     1     -30.538  79.970   8.925  0.00  0.00    +0.000 A 
ATOM     22  C   UNL     1     -29.809  80.104   6.695  0.00  0.00    +0.000 A 
ATOM     23  C   UNL     1     -30.563  79.148   7.632  0.00  0.00    +0.000 A 
ATOM     24  H   UNL     1     -28.628  83.255   8.836  0.00  0.00    +0.000 HD
ENDBRANCH  12  16
ENDBRANCH   8  10
BRANCH   4  25
ATOM     25  N   UNL     1     -28.863  81.709  15.988  0.00  0.00    +0.000 N 
ATOM     26  H   UNL     1     -28.665  81.068  16.753  0.00  0.00    +0.000 HD
BRANCH  25  27
ATOM     27  C   UNL     1     -30.161  82.372  16.079  0.00  0.00    +0.000 C 
BRANCH  27  28
ATOM     28  C   UNL     1     -31.496  83.099  16.274  0.00  0.00    +0.000 C 
ATOM     29  C   UNL     1     -32.808  83.833  16.562  0.00  0.00    +0.000 C 
BRANCH  29  30
ATOM     30  N   UNL     1     -33.943  84.508  16.858  0.00  0.00    +0.000 N 
ATOM     31  C   UNL     1     -34.105  85.858  17.134  0.00  0.00    +0.000 C 
ATOM     32  O   UNL     1     -33.150  86.632  17.105  0.00  0.00    +0.000 OA
ATOM     33  H   UNL     1     -34.757  83.910  16.940  0.00  0.00    +0.000 HD
BRANCH  31  34
ATOM     34  C   UNL     1     -35.462  86.254  17.472  0.00  0.00    +0.000 A 
ATOM     35  S   UNL     1     -36.778  85.205  17.111  0.00  0.00    +0.000 S 
ATOM     36  C   UNL     1     -37.900  86.309  17.741  0.00  0.00    +0.000 A 
ATOM     37  C   UNL     1     -37.321  87.450  18.222  0.00  0.00    +0.000 A 
ATOM     38  C   UNL     1     -35.917  87.413  18.066  0.00  0.00    +0.000 A 
ENDBRANCH  31  34
ENDBRANCH  29  30
ENDBRANCH  27  28
ENDBRANCH  25  27
ENDBRANCH   4  25
TORSDOF 7
ENDMDL
MODEL 3
REMARK VINA RESULT:      -5.7      5.646      7.836
REMARK  Name = BX795.pdbqt.pdb
REMARK  7 active torsions:
REMARK  status: ('A' for Active; 'I' for Inactive)
REMARK    1  A    between atoms: C_4  and  N_25
REMARK    2  A    between atoms: N_8  and  C_10
REMARK    3  A    between atoms: C_12  and  N_16
REMARK    4  A    between atoms: N_25  and  C_27
REMARK    5  A    between atoms: C_27  and  C_28
REMARK    6  A    between atoms: C_29  and  N_30
REMARK    7  A    between atoms: C_31  and  C_34
REMARK                            x       y       z     vdW  Elec       q    Type
REMARK                         _______ _______ _______ _____ _____    ______ ____
ROOT
ATOM      1  I   UNL     1     -32.478  85.395  23.186  0.00  0.00    +0.000 I 
ATOM      2  N   UNL     1     -30.703  86.931  19.554  0.00  0.00    +0.000 NA
ATOM      3  N   UNL     1     -33.037  87.058  19.282  0.00  0.00    +0.000 NA
ATOM      4  C   UNL     1     -30.842  86.377  20.777  0.00  0.00    +0.000 A 
ATOM      5  C   UNL     1     -31.792  87.252  18.841  0.00  0.00    +0.000 A 
ATOM      6  C   UNL     1     -32.096  86.190  21.323  0.00  0.00    +0.000 A 
ATOM      7  C   UNL     1     -33.153  86.546  20.521  0.00  0.00    +0.000 A 
ATOM      8  N   UNL     1     -31.663  87.774  17.558  0.00  0.00    +0.000 N 
ATOM      9  H   UNL     1     -32.563  87.897  17.118  0.00  0.00    +0.000 HD
ENDROOT
BRANCH   8  10
ATOM     10  C   UNL     1     -30.544  88.307  16.909  0.00  0.00    +0.000 A 
ATOM     11  C   UNL     1     -29.700  87.530  16.109  0.00  0.00    +0.000 A 
ATOM     12  C   UNL     1     -28.646  88.087  15.388  0.00  0.00    +0.000 A 
ATOM     13  C   UNL     1     -28.440  89.462  15.440  0.00  0.00    +0.000 A 
ATOM     14  C   UNL     1     -29.272  90.261  16.219  0.00  0.00    +0.000 A 
ATOM     15  C   UNL     1     -30.316  89.685  16.944  0.00  0.00    +0.000 A 
BRANCH  12  16
ATOM     16  N   UNL     1     -27.812  87.208  14.673  0.00  0.00    +0.000 N 
ATOM     17  C   UNL     1     -27.871  86.952  13.315  0.00  0.00    +0.000 C 
ATOM     18  O   UNL     1     -28.762  87.363  12.573  0.00  0.00    +0.000 OA
ATOM     19  N   UNL     1     -26.829  86.148  12.852  0.00  0.00    +0.000 N 
ATOM     20  C   UNL     1     -25.769  85.566  13.478  0.00  0.00    +0.000 A 
ATOM     21  C   UNL     1     -26.596  85.704  11.585  0.00  0.00    +0.000 A 
ATOM     22  C   UNL     1     -24.780  84.700  12.689  0.00  0.00    +0.000 A 
ATOM     23  C   UNL     1     -25.393  84.802  11.285  0.00  0.00    +0.000 A 
ATOM     24  H   UNL     1     -27.158  86.661  15.220  0.00  0.00    +0.000 HD
ENDBRANCH  12  16
ENDBRANCH   8  10
BRANCH   4  25
ATOM     25  N   UNL     1     -29.673  86.056  21.515  0.00  0.00    +0.000 N 
ATOM     26  H   UNL     1     -29.746  85.107  21.877  0.00  0.00    +0.000 HD
BRANCH  25  27
ATOM     27  C   UNL     1     -28.403  86.355  20.860  0.00  0.00    +0.000 C 
BRANCH  27  28
ATOM     28  C   UNL     1     -27.095  86.594  20.099  0.00  0.00    +0.000 C 
ATOM     29  C   UNL     1     -25.794  86.744  19.306  0.00  0.00    +0.000 C 
BRANCH  29  30
ATOM     30  N   UNL     1     -24.663  86.839  18.569  0.00  0.00    +0.000 N 
ATOM     31  C   UNL     1     -24.530  86.993  17.196  0.00  0.00    +0.000 C 
ATOM     32  O   UNL     1     -25.517  87.092  16.469  0.00  0.00    +0.000 OA
ATOM     33  H   UNL     1     -23.817  86.718  19.112  0.00  0.00    +0.000 HD
BRANCH  31  34
ATOM     34  C   UNL     1     -23.159  87.003  16.713  0.00  0.00    +0.000 A 
ATOM     35  S   UNL     1     -21.877  87.442  17.773  0.00  0.00    +0.000 S 
ATOM     36  C   UNL     1     -20.723  87.240  16.549  0.00  0.00    +0.000 A 
ATOM     37  C   UNL     1     -21.265  86.848  15.357  0.00  0.00    +0.000 A 
ATOM     38  C   UNL     1     -22.668  86.712  15.456  0.00  0.00    +0.000 A 
ENDBRANCH  31  34
ENDBRANCH  29  30
ENDBRANCH  27  28
ENDBRANCH  25  27
ENDBRANCH   4  25
TORSDOF 7
ENDMDL
MODEL 4
REMARK VINA RESULT:      -5.5     17.531     19.597
REMARK  Name = BX795.pdbqt.pdb
REMARK  7 active torsions:
REMARK  status: ('A' for Active; 'I' for Inactive)
REMARK    1  A    between atoms: C_4  and  N_25
REMARK    2  A    between atoms: N_8  and  C_10
REMARK    3  A    between atoms: C_12  and  N_16
REMARK    4  A    between atoms: N_25  and  C_27
REMARK    5  A    between atoms: C_27  and  C_28
REMARK    6  A    between atoms: C_29  and  N_30
REMARK    7  A    between atoms: C_31  and  C_34
REMARK                            x       y       z     vdW  Elec       q    Type
REMARK                         _______ _______ _______ _____ _____    ______ ____
ROOT
ATOM      1  I   UNL     1     -19.875 107.722  12.077  0.00  0.00    +0.000 I 
ATOM      2  N   UNL     1     -20.745 104.290   9.594  0.00  0.00    +0.000 NA
ATOM      3  N   UNL     1     -20.242 103.472  11.743  0.00  0.00    +0.000 NA
ATOM      4  C   UNL     1     -20.525 105.561   9.991  0.00  0.00    +0.000 A 
ATOM      5  C   UNL     1     -20.596 103.284  10.469  0.00  0.00    +0.000 A 
ATOM      6  C   UNL     1     -20.204 105.840  11.304  0.00  0.00    +0.000 A 
ATOM      7  C   UNL     1     -20.071 104.750  12.129  0.00  0.00    +0.000 A 
ATOM      8  N   UNL     1     -20.767 101.966  10.060  0.00  0.00    +0.000 N 
ATOM      9  H   UNL     1     -20.551 101.318  10.803  0.00  0.00    +0.000 HD
ENDROOT
BRANCH   8  10
ATOM     10  C   UNL     1     -21.352 101.450   8.898  0.00  0.00    +0.000 A 
ATOM     11  C   UNL     1     -20.608 100.799   7.910  0.00  0.00    +0.000 A 
ATOM     12  C   UNL     1     -21.211 100.202   6.804  0.00  0.00    +0.000 A 
ATOM     13  C   UNL     1     -22.597 100.229   6.690  0.00  0.00    +0.000 A 
ATOM     14  C   UNL     1     -23.362 100.862   7.665  0.00  0.00    +0.000 A 
ATOM     15  C   UNL     1     -22.742 101.464   8.760  0.00  0.00    +0.000 A 
BRANCH  12  16
ATOM     16  N   UNL     1     -20.367  99.637   5.830  0.00  0.00    +0.000 N 
ATOM     17  C   UNL     1     -20.191  98.286   5.590  0.00  0.00    +0.000 C 
ATOM     18  O   UNL     1     -20.652  97.392   6.300  0.00  0.00    +0.000 OA
ATOM     19  N   UNL     1     -19.406  98.015   4.470  0.00  0.00    +0.000 N 
ATOM     20  C   UNL     1     -18.779  98.823   3.569  0.00  0.00    +0.000 A 
ATOM     21  C   UNL     1     -19.034  96.807   3.963  0.00  0.00    +0.000 A 
ATOM     22  C   UNL     1     -17.951  98.220   2.429  0.00  0.00    +0.000 A 
ATOM     23  C   UNL     1     -18.140  96.724   2.720  0.00  0.00    +0.000 A 
ATOM     24  H   UNL     1     -19.784 100.281   5.310  0.00  0.00    +0.000 HD
ENDBRANCH  12  16
ENDBRANCH   8  10
BRANCH   4  25
ATOM     25  N   UNL     1     -20.700 106.608   9.049  0.00  0.00    +0.000 N 
ATOM     26  H   UNL     1     -19.829 107.124   8.945  0.00  0.00    +0.000 HD
BRANCH  25  27
ATOM     27  C   UNL     1     -21.332 106.231   7.787  0.00  0.00    +0.000 C 
BRANCH  27  28
ATOM     28  C   UNL     1     -21.917 105.893   6.412  0.00  0.00    +0.000 C 
ATOM     29  C   UNL     1     -22.423 105.505   5.020  0.00  0.00    +0.000 C 
BRANCH  29  30
ATOM     30  N   UNL     1     -22.839 105.116   3.793  0.00  0.00    +0.000 N 
ATOM     31  C   UNL     1     -23.729 104.106   3.456  0.00  0.00    +0.000 C 
ATOM     32  O   UNL     1     -24.287 103.435   4.323  0.00  0.00    +0.000 OA
ATOM     33  H   UNL     1     -22.377 105.606   3.036  0.00  0.00    +0.000 HD
BRANCH  31  34
ATOM     34  C   UNL     1     -23.917 103.908   2.029  0.00  0.00    +0.000 A 
ATOM     35  S   UNL     1     -23.127 102.604   1.230  0.00  0.00    +0.000 S 
ATOM     36  C   UNL     1     -23.788 103.048  -0.265  0.00  0.00    +0.000 A 
ATOM     37  C   UNL     1     -24.593 104.150  -0.193  0.00  0.00    +0.000 A 
ATOM     38  C   UNL     1     -24.665 104.642   1.130  0.00  0.00    +0.000 A 
ENDBRANCH  31  34
ENDBRANCH  29  30
ENDBRANCH  27  28
ENDBRANCH  25  27
ENDBRANCH   4  25
TORSDOF 7
ENDMDL
MODEL 5
REMARK VINA RESULT:      -5.3     12.421     16.906
REMARK  Name = BX795.pdbqt.pdb
REMARK  7 active torsions:
REMARK  status: ('A' for Active; 'I' for Inactive)
REMARK    1  A    between atoms: C_4  and  N_25
REMARK    2  A    between atoms: N_8  and  C_10
REMARK    3  A    between atoms: C_12  and  N_16
REMARK    4  A    between atoms: N_25  and  C_27
REMARK    5  A    between atoms: C_27  and  C_28
REMARK    6  A    between atoms: C_29  and  N_30
REMARK    7  A    between atoms: C_31  and  C_34
REMARK                            x       y       z     vdW  Elec       q    Type
REMARK                         _______ _______ _______ _____ _____    ______ ____
ROOT
ATOM      1  I   UNL     1     -24.251  76.226   6.018  0.00  0.00    +0.000 I 
ATOM      2  N   UNL     1     -27.954  78.252   6.962  0.00  0.00    +0.000 NA
ATOM      3  N   UNL     1     -28.428  76.731   5.229  0.00  0.00    +0.000 NA
ATOM      4  C   UNL     1     -26.651  77.900   6.959  0.00  0.00    +0.000 A 
ATOM      5  C   UNL     1     -28.803  77.667   6.104  0.00  0.00    +0.000 A 
ATOM      6  C   UNL     1     -26.195  76.904   6.119  0.00  0.00    +0.000 A 
ATOM      7  C   UNL     1     -27.133  76.364   5.274  0.00  0.00    +0.000 A 
ATOM      8  N   UNL     1     -30.137  78.058   6.059  0.00  0.00    +0.000 N 
ATOM      9  H   UNL     1     -30.635  77.588   5.319  0.00  0.00    +0.000 HD
ENDROOT
BRANCH   8  10
ATOM     10  C   UNL     1     -30.886  78.815   6.968  0.00  0.00    +0.000 A 
ATOM     11  C   UNL     1     -30.350  79.908   7.655  0.00  0.00    +0.000 A 
ATOM     12  C   UNL     1     -31.129  80.715   8.483  0.00  0.00    +0.000 A 
ATOM     13  C   UNL     1     -32.488  80.445   8.609  0.00  0.00    +0.000 A 
ATOM     14  C   UNL     1     -33.050  79.370   7.927  0.00  0.00    +0.000 A 
ATOM     15  C   UNL     1     -32.254  78.565   7.112  0.00  0.00    +0.000 A 
BRANCH  12  16
ATOM     16  N   UNL     1     -30.477  81.744   9.187  0.00  0.00    +0.000 N 
ATOM     17  C   UNL     1     -30.013  81.673  10.488  0.00  0.00    +0.000 C 
ATOM     18  O   UNL     1     -30.237  80.734  11.251  0.00  0.00    +0.000 OA
ATOM     19  N   UNL     1     -29.278  82.791  10.881  0.00  0.00    +0.000 N 
ATOM     20  C   UNL     1     -28.932  83.939  10.232  0.00  0.00    +0.000 A 
ATOM     21  C   UNL     1     -28.692  83.045  12.084  0.00  0.00    +0.000 A 
ATOM     22  C   UNL     1     -28.117  85.020  10.949  0.00  0.00    +0.000 A 
ATOM     23  C   UNL     1     -27.939  84.358  12.323  0.00  0.00    +0.000 A 
ATOM     24  H   UNL     1     -30.409  82.639   8.718  0.00  0.00    +0.000 HD
ENDBRANCH  12  16
ENDBRANCH   8  10
BRANCH   4  25
ATOM     25  N   UNL     1     -25.776  78.526   7.885  0.00  0.00    +0.000 N 
ATOM     26  H   UNL     1     -25.093  77.850   8.221  0.00  0.00    +0.000 HD
BRANCH  25  27
ATOM     27  C   UNL     1     -25.204  79.801   7.461  0.00  0.00    +0.000 C 
BRANCH  27  28
ATOM     28  C   UNL     1     -24.506  81.097   7.038  0.00  0.00    +0.000 C 
ATOM     29  C   UNL     1     -23.853  82.437   6.685  0.00  0.00    +0.000 C 
BRANCH  29  30
ATOM     30  N   UNL     1     -23.281  83.635   6.427  0.00  0.00    +0.000 N 
ATOM     31  C   UNL     1     -23.644  84.891   6.893  0.00  0.00    +0.000 C 
ATOM     32  O   UNL     1     -24.585  85.032   7.673  0.00  0.00    +0.000 OA
ATOM     33  H   UNL     1     -22.526  83.585   5.753  0.00  0.00    +0.000 HD
BRANCH  31  34
ATOM     34  C   UNL     1     -22.847  85.989   6.374  0.00  0.00    +0.000 A 
ATOM     35  S   UNL     1     -21.194  85.735   5.966  0.00  0.00    +0.000 S 
ATOM     36  C   UNL     1     -21.003  87.354   5.505  0.00  0.00    +0.000 A 
ATOM     37  C   UNL     1     -22.145  88.092   5.642  0.00  0.00    +0.000 A 
ATOM     38  C   UNL     1     -23.204  87.302   6.142  0.00  0.00    +0.000 A 
ENDBRANCH  31  34
ENDBRANCH  29  30
ENDBRANCH  27  28
ENDBRANCH  25  27
ENDBRANCH   4  25
TORSDOF 7
ENDMDL
MODEL 6
REMARK VINA RESULT:      -5.3     11.516     13.677
REMARK  Name = BX795.pdbqt.pdb
REMARK  7 active torsions:
REMARK  status: ('A' for Active; 'I' for Inactive)
REMARK    1  A    between atoms: C_4  and  N_25
REMARK    2  A    between atoms: N_8  and  C_10
REMARK    3  A    between atoms: C_12  and  N_16
REMARK    4  A    between atoms: N_25  and  C_27
REMARK    5  A    between atoms: C_27  and  C_28
REMARK    6  A    between atoms: C_29  and  N_30
REMARK    7  A    between atoms: C_31  and  C_34
REMARK                            x       y       z     vdW  Elec       q    Type
REMARK                         _______ _______ _______ _____ _____    ______ ____
ROOT
ATOM      1  I   UNL     1     -12.593  92.411  22.485  0.00  0.00    +0.000 I 
ATOM      2  N   UNL     1     -16.735  92.617  21.258  0.00  0.00    +0.000 NA
ATOM      3  N   UNL     1     -15.494  93.862  19.693  0.00  0.00    +0.000 NA
ATOM      4  C   UNL     1     -15.622  92.341  21.971  0.00  0.00    +0.000 A 
ATOM      5  C   UNL     1     -16.647  93.366  20.149  0.00  0.00    +0.000 A 
ATOM      6  C   UNL     1     -14.386  92.777  21.537  0.00  0.00    +0.000 A 
ATOM      7  C   UNL     1     -14.392  93.538  20.394  0.00  0.00    +0.000 A 
ATOM      8  N   UNL     1     -17.793  93.702  19.436  0.00  0.00    +0.000 N 
ATOM      9  H   UNL     1     -17.582  94.327  18.672  0.00  0.00    +0.000 HD
ENDROOT
BRANCH   8  10
ATOM     10  C   UNL     1     -19.085  93.169  19.501  0.00  0.00    +0.000 A 
ATOM     11  C   UNL     1     -19.435  91.972  18.870  0.00  0.00    +0.000 A 
ATOM     12  C   UNL     1     -20.697  91.398  19.021  0.00  0.00    +0.000 A 
ATOM     13  C   UNL     1     -21.629  92.018  19.846  0.00  0.00    +0.000 A 
ATOM     14  C   UNL     1     -21.303  93.206  20.496  0.00  0.00    +0.000 A 
ATOM     15  C   UNL     1     -20.040  93.772  20.325  0.00  0.00    +0.000 A 
BRANCH  12  16
ATOM     16  N   UNL     1     -20.972  90.232  18.284  0.00  0.00    +0.000 N 
ATOM     17  C   UNL     1     -21.053  88.948  18.792  0.00  0.00    +0.000 C 
ATOM     18  O   UNL     1     -20.755  88.641  19.946  0.00  0.00    +0.000 OA
ATOM     19  N   UNL     1     -21.484  88.004  17.859  0.00  0.00    +0.000 N 
ATOM     20  C   UNL     1     -21.837  88.103  16.547  0.00  0.00    +0.000 A 
ATOM     21  C   UNL     1     -21.663  86.664  18.025  0.00  0.00    +0.000 A 
ATOM     22  C   UNL     1     -22.256  86.857  15.760  0.00  0.00    +0.000 A 
ATOM     23  C   UNL     1     -22.127  85.788  16.856  0.00  0.00    +0.000 A 
ATOM     24  H   UNL     1     -21.046  90.339  17.280  0.00  0.00    +0.000 HD
ENDBRANCH  12  16
ENDBRANCH   8  10
BRANCH   4  25
ATOM     25  N   UNL     1     -15.741  91.537  23.134  0.00  0.00    +0.000 N 
ATOM     26  H   UNL     1     -15.315  92.014  23.925  0.00  0.00    +0.000 HD
BRANCH  25  27
ATOM     27  C   UNL     1     -17.070  90.994  23.402  0.00  0.00    +0.000 C 
BRANCH  27  28
ATOM     28  C   UNL     1     -18.429  90.329  23.647  0.00  0.00    +0.000 C 
ATOM     29  C   UNL     1     -19.808  89.737  23.949  0.00  0.00    +0.000 C 
BRANCH  29  30
ATOM     30  N   UNL     1     -21.045  89.265  24.224  0.00  0.00    +0.000 N 
ATOM     31  C   UNL     1     -22.275  89.752  23.804  0.00  0.00    +0.000 C 
ATOM     32  O   UNL     1     -22.351  90.726  23.056  0.00  0.00    +0.000 OA
ATOM     33  H   UNL     1     -21.046  88.488  24.874  0.00  0.00    +0.000 HD
BRANCH  31  34
ATOM     34  C   UNL     1     -23.427  89.039  24.330  0.00  0.00    +0.000 A 
ATOM     35  S   UNL     1     -23.600  88.822  26.029  0.00  0.00    +0.000 S 
ATOM     36  C   UNL     1     -25.046  87.963  25.826  0.00  0.00    +0.000 A 
ATOM     37  C   UNL     1     -25.416  87.831  24.517  0.00  0.00    +0.000 A 
ATOM     38  C   UNL     1     -24.481  88.453  23.659  0.00  0.00    +0.000 A 
ENDBRANCH  31  34
ENDBRANCH  29  30
ENDBRANCH  27  28
ENDBRANCH  25  27
ENDBRANCH   4  25
TORSDOF 7
ENDMDL
MODEL 7
REMARK VINA RESULT:      -5.1     18.510     21.286
REMARK  Name = BX795.pdbqt.pdb
REMARK  7 active torsions:
REMARK  status: ('A' for Active; 'I' for Inactive)
REMARK    1  A    between atoms: C_4  and  N_25
REMARK    2  A    between atoms: N_8  and  C_10
REMARK    3  A    between atoms: C_12  and  N_16
REMARK    4  A    between atoms: N_25  and  C_27
REMARK    5  A    between atoms: C_27  and  C_28
REMARK    6  A    between atoms: C_29  and  N_30
REMARK    7  A    between atoms: C_31  and  C_34
REMARK                            x       y       z     vdW  Elec       q    Type
REMARK                         _______ _______ _______ _____ _____    ______ ____
ROOT
ATOM      1  I   UNL     1     -18.751 107.149   9.829  0.00  0.00    +0.000 I 
ATOM      2  N   UNL     1     -21.120 104.186   7.752  0.00  0.00    +0.000 NA
ATOM      3  N   UNL     1     -22.626 105.726   8.700  0.00  0.00    +0.000 NA
ATOM      4  C   UNL     1     -20.065 104.844   8.277  0.00  0.00    +0.000 A 
ATOM      5  C   UNL     1     -22.364 104.635   7.976  0.00  0.00    +0.000 A 
ATOM      6  C   UNL     1     -20.252 106.008   8.996  0.00  0.00    +0.000 A 
ATOM      7  C   UNL     1     -21.558 106.392   9.177  0.00  0.00    +0.000 A 
ATOM      8  N   UNL     1     -23.462 103.937   7.486  0.00  0.00    +0.000 N 
ATOM      9  H   UNL     1     -24.330 104.350   7.794  0.00  0.00    +0.000 HD
ENDROOT
BRANCH   8  10
ATOM     10  C   UNL     1     -23.531 102.925   6.522  0.00  0.00    +0.000 A 
ATOM     11  C   UNL     1     -23.469 103.190   5.151  0.00  0.00    +0.000 A 
ATOM     12  C   UNL     1     -23.439 102.170   4.201  0.00  0.00    +0.000 A 
ATOM     13  C   UNL     1     -23.443 100.846   4.627  0.00  0.00    +0.000 A 
ATOM     14  C   UNL     1     -23.492 100.554   5.987  0.00  0.00    +0.000 A 
ATOM     15  C   UNL     1     -23.533 101.586   6.924  0.00  0.00    +0.000 A 
BRANCH  12  16
ATOM     16  N   UNL     1     -23.452 102.545   2.845  0.00  0.00    +0.000 N 
ATOM     17  C   UNL     1     -22.362 102.969   2.107  0.00  0.00    +0.000 C 
ATOM     18  O   UNL     1     -21.254 103.207   2.586  0.00  0.00    +0.000 OA
ATOM     19  N   UNL     1     -22.637 103.136   0.750  0.00  0.00    +0.000 N 
ATOM     20  C   UNL     1     -23.770 102.964   0.012  0.00  0.00    +0.000 A 
ATOM     21  C   UNL     1     -21.800 103.546  -0.244  0.00  0.00    +0.000 A 
ATOM     22  C   UNL     1     -23.769 103.254  -1.492  0.00  0.00    +0.000 A 
ATOM     23  C   UNL     1     -22.308 103.686  -1.684  0.00  0.00    +0.000 A 
ATOM     24  H   UNL     1     -24.358 102.573   2.393  0.00  0.00    +0.000 HD
ENDBRANCH  12  16
ENDBRANCH   8  10
BRANCH   4  25
ATOM     25  N   UNL     1     -18.759 104.355   8.015  0.00  0.00    +0.000 N 
ATOM     26  H   UNL     1     -18.192 104.425   8.857  0.00  0.00    +0.000 HD
BRANCH  25  27
ATOM     27  C   UNL     1     -18.685 103.059   7.345  0.00  0.00    +0.000 C 
BRANCH  27  28
ATOM     28  C   UNL     1     -18.542 101.667   6.721  0.00  0.00    +0.000 C 
ATOM     29  C   UNL     1     -18.426 100.313   6.016  0.00  0.00    +0.000 C 
BRANCH  29  30
ATOM     30  N   UNL     1     -18.313  99.144   5.345  0.00  0.00    +0.000 N 
ATOM     31  C   UNL     1     -19.304  98.397   4.725  0.00  0.00    +0.000 C 
ATOM     32  O   UNL     1     -20.473  98.782   4.708  0.00  0.00    +0.000 OA
ATOM     33  H   UNL     1     -17.377  98.756   5.366  0.00  0.00    +0.000 HD
BRANCH  31  34
ATOM     34  C   UNL     1     -18.851  97.148   4.137  0.00  0.00    +0.000 A 
ATOM     35  S   UNL     1     -17.322  96.494   4.581  0.00  0.00    +0.000 S 
ATOM     36  C   UNL     1     -17.524  95.174   3.537  0.00  0.00    +0.000 A 
ATOM     37  C   UNL     1     -18.711  95.200   2.859  0.00  0.00    +0.000 A 
ATOM     38  C   UNL     1     -19.472  96.338   3.208  0.00  0.00    +0.000 A 
ENDBRANCH  31  34
ENDBRANCH  29  30
ENDBRANCH  27  28
ENDBRANCH  25  27
ENDBRANCH   4  25
TORSDOF 7
ENDMDL
MODEL 8
REMARK VINA RESULT:      -5.1     24.533     26.271
REMARK  Name = BX795.pdbqt.pdb
REMARK  7 active torsions:
REMARK  status: ('A' for Active; 'I' for Inactive)
REMARK    1  A    between atoms: C_4  and  N_25
REMARK    2  A    between atoms: N_8  and  C_10
REMARK    3  A    between atoms: C_12  and  N_16
REMARK    4  A    between atoms: N_25  and  C_27
REMARK    5  A    between atoms: C_27  and  C_28
REMARK    6  A    between atoms: C_29  and  N_30
REMARK    7  A    between atoms: C_31  and  C_34
REMARK                            x       y       z     vdW  Elec       q    Type
REMARK                         _______ _______ _______ _____ _____    ______ ____
ROOT
ATOM      1  I   UNL     1     -26.671  81.635  -7.194  0.00  0.00    +0.000 I 
ATOM      2  N   UNL     1     -25.562  85.683  -6.153  0.00  0.00    +0.000 NA
ATOM      3  N   UNL     1     -26.760  85.800  -8.175  0.00  0.00    +0.000 NA
ATOM      4  C   UNL     1     -25.670  84.338  -6.127  0.00  0.00    +0.000 A 
ATOM      5  C   UNL     1     -26.101  86.376  -7.167  0.00  0.00    +0.000 A 
ATOM      6  C   UNL     1     -26.380  83.674  -7.108  0.00  0.00    +0.000 A 
ATOM      7  C   UNL     1     -26.895  84.463  -8.107  0.00  0.00    +0.000 A 
ATOM      8  N   UNL     1     -25.950  87.757  -7.233  0.00  0.00    +0.000 N 
ATOM      9  H   UNL     1     -26.342  88.131  -8.085  0.00  0.00    +0.000 HD
ENDROOT
BRANCH   8  10
ATOM     10  C   UNL     1     -25.536  88.667  -6.254  0.00  0.00    +0.000 A 
ATOM     11  C   UNL     1     -24.201  89.052  -6.104  0.00  0.00    +0.000 A 
ATOM     12  C   UNL     1     -23.812  90.032  -5.192  0.00  0.00    +0.000 A 
ATOM     13  C   UNL     1     -24.782  90.669  -4.426  0.00  0.00    +0.000 A 
ATOM     14  C   UNL     1     -26.121  90.314  -4.563  0.00  0.00    +0.000 A 
ATOM     15  C   UNL     1     -26.492  89.322  -5.472  0.00  0.00    +0.000 A 
BRANCH  12  16
ATOM     16  N   UNL     1     -22.435  90.292  -5.067  0.00  0.00    +0.000 N 
ATOM     17  C   UNL     1     -21.826  91.529  -5.182  0.00  0.00    +0.000 C 
ATOM     18  O   UNL     1     -22.403  92.552  -5.551  0.00  0.00    +0.000 OA
ATOM     19  N   UNL     1     -20.467  91.515  -4.867  0.00  0.00    +0.000 N 
ATOM     20  C   UNL     1     -19.626  90.519  -4.470  0.00  0.00    +0.000 A 
ATOM     21  C   UNL     1     -19.578  92.547  -4.885  0.00  0.00    +0.000 A 
ATOM     22  C   UNL     1     -18.144  90.812  -4.212  0.00  0.00    +0.000 A 
ATOM     23  C   UNL     1     -18.108  92.316  -4.520  0.00  0.00    +0.000 A 
ATOM     24  H   UNL     1     -21.832  89.487  -4.953  0.00  0.00    +0.000 HD
ENDBRANCH  12  16
ENDBRANCH   8  10
BRANCH   4  25
ATOM     25  N   UNL     1     -25.101  83.630  -5.038  0.00  0.00    +0.000 N 
ATOM     26  H   UNL     1     -24.922  82.666  -5.311  0.00  0.00    +0.000 HD
BRANCH  25  27
ATOM     27  C   UNL     1     -23.980  84.283  -4.368  0.00  0.00    +0.000 C 
BRANCH  27  28
ATOM     28  C   UNL     1     -22.745  84.953  -3.755  0.00  0.00    +0.000 C 
ATOM     29  C   UNL     1     -21.470  85.617  -3.228  0.00  0.00    +0.000 C 
BRANCH  29  30
ATOM     30  N   UNL     1     -20.336  86.225  -2.813  0.00  0.00    +0.000 N 
ATOM     31  C   UNL     1     -19.364  86.864  -3.570  0.00  0.00    +0.000 C 
ATOM     32  O   UNL     1     -19.474  86.964  -4.791  0.00  0.00    +0.000 OA
ATOM     33  H   UNL     1     -20.170  86.134  -1.818  0.00  0.00    +0.000 HD
BRANCH  31  34
ATOM     34  C   UNL     1     -18.230  87.366  -2.812  0.00  0.00    +0.000 A 
ATOM     35  S   UNL     1     -16.634  87.183  -3.430  0.00  0.00    +0.000 S 
ATOM     36  C   UNL     1     -15.963  87.939  -2.070  0.00  0.00    +0.000 A 
ATOM     37  C   UNL     1     -16.900  88.335  -1.156  0.00  0.00    +0.000 A 
ATOM     38  C   UNL     1     -18.204  88.003  -1.588  0.00  0.00    +0.000 A 
ENDBRANCH  31  34
ENDBRANCH  29  30
ENDBRANCH  27  28
ENDBRANCH  25  27
ENDBRANCH   4  25
TORSDOF 7
ENDMDL
MODEL 9
REMARK VINA RESULT:      -5.1      5.694      8.422
REMARK  Name = BX795.pdbqt.pdb
REMARK  7 active torsions:
REMARK  status: ('A' for Active; 'I' for Inactive)
REMARK    1  A    between atoms: C_4  and  N_25
REMARK    2  A    between atoms: N_8  and  C_10
REMARK    3  A    between atoms: C_12  and  N_16
REMARK    4  A    between atoms: N_25  and  C_27
REMARK    5  A    between atoms: C_27  and  C_28
REMARK    6  A    between atoms: C_29  and  N_30
REMARK    7  A    between atoms: C_31  and  C_34
REMARK                            x       y       z     vdW  Elec       q    Type
REMARK                         _______ _______ _______ _____ _____    ______ ____
ROOT
ATOM      1  I   UNL     1     -28.582  82.885  22.595  0.00  0.00    +0.000 I 
ATOM      2  N   UNL     1     -29.110  85.931  19.571  0.00  0.00    +0.000 NA
ATOM      3  N   UNL     1     -30.854  86.202  21.128  0.00  0.00    +0.000 NA
ATOM      4  C   UNL     1     -28.627  84.866  20.247  0.00  0.00    +0.000 A 
ATOM      5  C   UNL     1     -30.202  86.565  20.020  0.00  0.00    +0.000 A 
ATOM      6  C   UNL     1     -29.216  84.461  21.427  0.00  0.00    +0.000 A 
ATOM      7  C   UNL     1     -30.330  85.166  21.810  0.00  0.00    +0.000 A 
ATOM      8  N   UNL     1     -30.741  87.629  19.305  0.00  0.00    +0.000 N 
ATOM      9  H   UNL     1     -31.599  87.957  19.722  0.00  0.00    +0.000 HD
ENDROOT
BRANCH   8  10
ATOM     10  C   UNL     1     -30.190  88.391  18.268  0.00  0.00    +0.000 A 
ATOM     11  C   UNL     1     -29.705  87.814  17.090  0.00  0.00    +0.000 A 
ATOM     12  C   UNL     1     -29.248  88.586  16.023  0.00  0.00    +0.000 A 
ATOM     13  C   UNL     1     -29.300  89.973  16.118  0.00  0.00    +0.000 A 
ATOM     14  C   UNL     1     -29.789  90.573  17.275  0.00  0.00    +0.000 A 
ATOM     15  C   UNL     1     -30.232  89.786  18.338  0.00  0.00    +0.000 A 
BRANCH  12  16
ATOM     16  N   UNL     1     -28.712  87.907  14.914  0.00  0.00    +0.000 N 
ATOM     17  C   UNL     1     -27.371  87.657  14.683  0.00  0.00    +0.000 C 
ATOM     18  O   UNL     1     -26.454  88.123  15.359  0.00  0.00    +0.000 OA
ATOM     19  N   UNL     1     -27.138  86.838  13.578  0.00  0.00    +0.000 N 
ATOM     20  C   UNL     1     -27.974  86.240  12.683  0.00  0.00    +0.000 A 
ATOM     21  C   UNL     1     -25.948  86.408  13.074  0.00  0.00    +0.000 A 
ATOM     22  C   UNL     1     -27.409  85.397  11.536  0.00  0.00    +0.000 A 
ATOM     23  C   UNL     1     -25.905  85.520  11.824  0.00  0.00    +0.000 A 
ATOM     24  H   UNL     1     -29.365  87.644  14.186  0.00  0.00    +0.000 HD
ENDBRANCH  12  16
ENDBRANCH   8  10
BRANCH   4  25
ATOM     25  N   UNL     1     -27.463  84.220  19.756  0.00  0.00    +0.000 N 
ATOM     26  H   UNL     1     -27.729  83.395  19.222  0.00  0.00    +0.000 HD
BRANCH  25  27
ATOM     27  C   UNL     1     -26.488  85.079  19.092  0.00  0.00    +0.000 C 
BRANCH  27  28
ATOM     28  C   UNL     1     -25.394  85.956  18.473  0.00  0.00    +0.000 C 
ATOM     29  C   UNL     1     -24.253  86.825  17.937  0.00  0.00    +0.000 C 
BRANCH  29  30
ATOM     30  N   UNL     1     -23.209  87.564  17.496  0.00  0.00    +0.000 N 
ATOM     31  C   UNL     1     -21.963  87.138  17.060  0.00  0.00    +0.000 C 
ATOM     32  O   UNL     1     -21.684  85.941  17.007  0.00  0.00    +0.000 OA
ATOM     33  H   UNL     1     -23.367  88.563  17.561  0.00  0.00    +0.000 HD
BRANCH  31  34
ATOM     34  C   UNL     1     -21.041  88.204  16.705  0.00  0.00    +0.000 A 
ATOM     35  S   UNL     1     -20.235  88.172  15.185  0.00  0.00    +0.000 S 
ATOM     36  C   UNL     1     -19.412  89.613  15.531  0.00  0.00    +0.000 A 
ATOM     37  C   UNL     1     -19.723  90.130  16.758  0.00  0.00    +0.000 A 
ATOM     38  C   UNL     1     -20.662  89.316  17.430  0.00  0.00    +0.000 A 
ENDBRANCH  31  34
ENDBRANCH  29  30
ENDBRANCH  27  28
ENDBRANCH  25  27
ENDBRANCH   4  25
TORSDOF 7
ENDMDL
