MODEL 1
REMARK VINA RESULT:      -3.0      0.000      0.000
REMARK  Name = CadmiumAcetate.pdbqt.pdb
REMARK  1 active torsions:
REMARK  status: ('A' for Active; 'I' for Inactive)
REMARK    1  A    between atoms: C_3  and  O_4
REMARK                            x       y       z     vdW  Elec       q    Type
REMARK                         _______ _______ _______ _____ _____    ______ ____
ROOT
ATOM      1  O   UNL     1     -34.455  98.142 -11.856  0.00  0.00    +0.000 OA
ATOM      2  C   UNL     1     -35.830  99.556 -10.675  0.00  0.00    +0.000 C 
ATOM      3  C   UNL     1     -34.729  98.578 -10.757  0.00  0.00    +0.000 C 
ENDROOT
BRANCH   3   4
ATOM      4  O   UNL     1     -34.136  98.264  -9.606  0.00  0.00    +0.000 OA
ATOM      5  H   UNL     1     -33.285  97.889  -9.901  0.00  0.00    +0.000 HD
ENDBRANCH   3   4
TORSDOF 1
ENDMDL
MODEL 2
REMARK VINA RESULT:      -2.9     12.987     13.594
REMARK  Name = CadmiumAcetate.pdbqt.pdb
REMARK  1 active torsions:
REMARK  status: ('A' for Active; 'I' for Inactive)
REMARK    1  A    between atoms: C_3  and  O_4
REMARK                            x       y       z     vdW  Elec       q    Type
REMARK                         _______ _______ _______ _____ _____    ______ ____
ROOT
ATOM      1  O   UNL     1     -26.582  91.103  -5.383  0.00  0.00    +0.000 OA
ATOM      2  C   UNL     1     -26.431  89.362  -3.889  0.00  0.00    +0.000 C 
ATOM      3  C   UNL     1     -25.973  90.653  -4.435  0.00  0.00    +0.000 C 
ENDROOT
BRANCH   3   4
ATOM      4  O   UNL     1     -24.924  91.208  -3.829  0.00  0.00    +0.000 OA
ATOM      5  H   UNL     1     -24.329  90.447  -3.694  0.00  0.00    +0.000 HD
ENDBRANCH   3   4
TORSDOF 1
ENDMDL
MODEL 3
REMARK VINA RESULT:      -2.9     10.482     10.904
REMARK  Name = CadmiumAcetate.pdbqt.pdb
REMARK  1 active torsions:
REMARK  status: ('A' for Active; 'I' for Inactive)
REMARK    1  A    between atoms: C_3  and  O_4
REMARK                            x       y       z     vdW  Elec       q    Type
REMARK                         _______ _______ _______ _____ _____    ______ ____
ROOT
ATOM      1  O   UNL     1     -26.149 101.889  -6.730  0.00  0.00    +0.000 OA
ATOM      2  C   UNL     1     -24.035 101.034  -6.431  0.00  0.00    +0.000 C 
ATOM      3  C   UNL     1     -25.467 101.120  -6.085  0.00  0.00    +0.000 C 
ENDROOT
BRANCH   3   4
ATOM      4  O   UNL     1     -25.878 100.336  -5.090  0.00  0.00    +0.000 OA
ATOM      5  H   UNL     1     -26.773 100.078  -5.378  0.00  0.00    +0.000 HD
ENDBRANCH   3   4
TORSDOF 1
ENDMDL
MODEL 4
REMARK VINA RESULT:      -2.6     23.534     23.853
REMARK  Name = CadmiumAcetate.pdbqt.pdb
REMARK  1 active torsions:
REMARK  status: ('A' for Active; 'I' for Inactive)
REMARK    1  A    between atoms: C_3  and  O_4
REMARK                            x       y       z     vdW  Elec       q    Type
REMARK                         _______ _______ _______ _____ _____    ______ ____
ROOT
ATOM      1  O   UNL     1     -38.456 101.692  12.020  0.00  0.00    +0.000 OA
ATOM      2  C   UNL     1     -37.169  99.979  12.854  0.00  0.00    +0.000 C 
ATOM      3  C   UNL     1     -38.460 100.669  12.672  0.00  0.00    +0.000 C 
ENDROOT
BRANCH   3   4
ATOM      4  O   UNL     1     -39.517 100.095  13.245  0.00  0.00    +0.000 OA
ATOM      5  H   UNL     1     -39.299  99.146  13.192  0.00  0.00    +0.000 HD
ENDBRANCH   3   4
TORSDOF 1
ENDMDL
MODEL 5
REMARK VINA RESULT:      -2.6     25.757     26.117
REMARK  Name = CadmiumAcetate.pdbqt.pdb
REMARK  1 active torsions:
REMARK  status: ('A' for Active; 'I' for Inactive)
REMARK    1  A    between atoms: C_3  and  O_4
REMARK                            x       y       z     vdW  Elec       q    Type
REMARK                         _______ _______ _______ _____ _____    ______ ____
ROOT
ATOM      1  O   UNL     1     -48.394  84.436   7.725  0.00  0.00    +0.000 OA
ATOM      2  C   UNL     1     -46.192  84.422   7.065  0.00  0.00    +0.000 C 
ATOM      3  C   UNL     1     -47.359  85.068   7.695  0.00  0.00    +0.000 C 
ENDROOT
BRANCH   3   4
ATOM      4  O   UNL     1     -47.162  86.295   8.175  0.00  0.00    +0.000 OA
ATOM      5  H   UNL     1     -46.756  86.757   7.419  0.00  0.00    +0.000 HD
ENDBRANCH   3   4
TORSDOF 1
ENDMDL
MODEL 6
REMARK VINA RESULT:      -2.4     12.745     13.431
REMARK  Name = CadmiumAcetate.pdbqt.pdb
REMARK  1 active torsions:
REMARK  status: ('A' for Active; 'I' for Inactive)
REMARK    1  A    between atoms: C_3  and  O_4
REMARK                            x       y       z     vdW  Elec       q    Type
REMARK                         _______ _______ _______ _____ _____    ______ ____
ROOT
ATOM      1  O   UNL     1     -26.921  89.791  -3.861  0.00  0.00    +0.000 OA
ATOM      2  C   UNL     1     -24.887  90.700  -4.426  0.00  0.00    +0.000 C 
ATOM      3  C   UNL     1     -26.323  90.468  -4.671  0.00  0.00    +0.000 C 
ENDROOT
BRANCH   3   4
ATOM      4  O   UNL     1     -26.830  91.029  -5.767  0.00  0.00    +0.000 OA
ATOM      5  H   UNL     1     -27.116  91.904  -5.446  0.00  0.00    +0.000 HD
ENDBRANCH   3   4
TORSDOF 1
ENDMDL
MODEL 7
REMARK VINA RESULT:      -2.4     21.577     22.202
REMARK  Name = CadmiumAcetate.pdbqt.pdb
REMARK  1 active torsions:
REMARK  status: ('A' for Active; 'I' for Inactive)
REMARK    1  A    between atoms: C_3  and  O_4
REMARK                            x       y       z     vdW  Elec       q    Type
REMARK                         _______ _______ _______ _____ _____    ______ ____
ROOT
ATOM      1  O   UNL     1     -22.533  87.414   4.231  0.00  0.00    +0.000 OA
ATOM      2  C   UNL     1     -23.976  86.455   5.743  0.00  0.00    +0.000 C 
ATOM      3  C   UNL     1     -23.668  87.028   4.419  0.00  0.00    +0.000 C 
ENDROOT
BRANCH   3   4
ATOM      4  O   UNL     1     -24.675  87.066   3.548  0.00  0.00    +0.000 OA
ATOM      5  H   UNL     1     -24.345  87.682   2.868  0.00  0.00    +0.000 HD
ENDBRANCH   3   4
TORSDOF 1
ENDMDL
MODEL 8
REMARK VINA RESULT:      -2.3     34.387     34.591
REMARK  Name = CadmiumAcetate.pdbqt.pdb
REMARK  1 active torsions:
REMARK  status: ('A' for Active; 'I' for Inactive)
REMARK    1  A    between atoms: C_3  and  O_4
REMARK                            x       y       z     vdW  Elec       q    Type
REMARK                         _______ _______ _______ _____ _____    ______ ____
ROOT
ATOM      1  O   UNL     1     -21.285  94.334  21.230  0.00  0.00    +0.000 OA
ATOM      2  C   UNL     1     -21.629  92.321  20.173  0.00  0.00    +0.000 C 
ATOM      3  C   UNL     1     -22.086  93.452  21.003  0.00  0.00    +0.000 C 
ENDROOT
BRANCH   3   4
ATOM      4  O   UNL     1     -23.348  93.395  21.427  0.00  0.00    +0.000 OA
ATOM      5  H   UNL     1     -23.278  93.719  22.344  0.00  0.00    +0.000 HD
ENDBRANCH   3   4
TORSDOF 1
ENDMDL
MODEL 9
REMARK VINA RESULT:      -2.3      9.484      9.769
REMARK  Name = CadmiumAcetate.pdbqt.pdb
REMARK  1 active torsions:
REMARK  status: ('A' for Active; 'I' for Inactive)
REMARK    1  A    between atoms: C_3  and  O_4
REMARK                            x       y       z     vdW  Elec       q    Type
REMARK                         _______ _______ _______ _____ _____    ______ ____
ROOT
ATOM      1  O   UNL     1     -40.671  91.665  -5.631  0.00  0.00    +0.000 OA
ATOM      2  C   UNL     1     -38.571  92.549  -5.937  0.00  0.00    +0.000 C 
ATOM      3  C   UNL     1     -39.854  92.459  -5.214  0.00  0.00    +0.000 C 
ENDROOT
BRANCH   3   4
ATOM      4  O   UNL     1     -39.992  93.264  -4.162  0.00  0.00    +0.000 OA
ATOM      5  H   UNL     1     -40.959  93.283  -4.034  0.00  0.00    +0.000 HD
ENDBRANCH   3   4
TORSDOF 1
ENDMDL
