MODEL 1
REMARK VINA RESULT:      -6.5      0.000      0.000
REMARK  Name = Calcitriol.pdbqt.pdb
REMARK  9 active torsions:
REMARK  status: ('A' for Active; 'I' for Inactive)
REMARK    1  A    between atoms: C_2  and  C_24
REMARK    2  A    between atoms: C_7  and  C_11
REMARK    3  A    between atoms: C_12  and  C_13
REMARK    4  A    between atoms: C_16  and  O_20
REMARK    5  A    between atoms: C_18  and  O_22
REMARK    6  A    between atoms: C_24  and  C_26
REMARK    7  A    between atoms: C_27  and  C_28
REMARK    8  A    between atoms: C_28  and  C_29
REMARK    9  A    between atoms: C_29  and  O_32
REMARK                            x       y       z     vdW  Elec       q    Type
REMARK                         _______ _______ _______ _____ _____    ______ ____
ROOT
ATOM      1  C   UNL     1     -27.570  84.594  11.535  0.00  0.00    +0.000 C 
ATOM      2  C   UNL     1     -26.068  84.690  11.289  0.00  0.00    +0.000 C 
ATOM      3  C   UNL     1     -27.809  85.655  12.741  0.00  0.00    +0.000 C 
ATOM      4  C   UNL     1     -25.517  85.741  12.081  0.00  0.00    +0.000 C 
ATOM      5  C   UNL     1     -26.580  86.355  12.951  0.00  0.00    +0.000 C 
ATOM      6  C   UNL     1     -28.023  83.285  12.034  0.00  0.00    +0.000 C 
ATOM      7  C   UNL     1     -28.695  85.331  13.865  0.00  0.00    +0.000 C 
ATOM      8  C   UNL     1     -28.371  85.120  10.311  0.00  0.00    +0.000 C 
ATOM      9  C   UNL     1     -28.811  82.691  13.188  0.00  0.00    +0.000 C 
ATOM     10  C   UNL     1     -29.060  83.962  13.973  0.00  0.00    +0.000 C 
ENDROOT
BRANCH   7  11
ATOM     11  C   UNL     1     -29.029  86.165  14.800  0.00  0.00    +0.000 C 
ATOM     12  C   UNL     1     -29.410  87.152  15.910  0.00  0.00    +0.000 C 
BRANCH  12  13
ATOM     13  C   UNL     1     -29.724  87.990  16.850  0.00  0.00    +0.000 A 
ATOM     14  C   UNL     1     -30.018  89.351  16.517  0.00  0.00    +0.000 A 
ATOM     15  C   UNL     1     -29.765  87.712  18.321  0.00  0.00    +0.000 A 
ATOM     16  C   UNL     1     -30.342  90.498  17.298  0.00  0.00    +0.000 A 
ATOM     17  C   UNL     1     -30.338  90.093  18.663  0.00  0.00    +0.000 A 
ATOM     18  C   UNL     1     -30.087  88.827  19.266  0.00  0.00    +0.000 A 
ATOM     19  C   UNL     1     -29.530  86.486  18.824  0.00  0.00    +0.000 C 
BRANCH  16  20
ATOM     20  O   UNL     1     -31.192  91.457  16.830  0.00  0.00    +0.000 OA
ATOM     21  H   UNL     1     -32.095  91.323  17.164  0.00  0.00    +0.000 HD
ENDBRANCH  16  20
BRANCH  18  22
ATOM     22  O   UNL     1     -30.148  88.631  20.625  0.00  0.00    +0.000 OA
ATOM     23  H   UNL     1     -29.463  89.163  21.074  0.00  0.00    +0.000 HD
ENDBRANCH  18  22
ENDBRANCH  12  13
ENDBRANCH   7  11
BRANCH   2  24
ATOM     24  C   UNL     1     -25.347  83.958  10.295  0.00  0.00    +0.000 C 
ATOM     25  C   UNL     1     -24.881  82.539  10.496  0.00  0.00    +0.000 C 
BRANCH  24  26
ATOM     26  C   UNL     1     -24.863  84.596   9.120  0.00  0.00    +0.000 C 
ATOM     27  C   UNL     1     -24.353  85.277   7.844  0.00  0.00    +0.000 C 
BRANCH  27  28
ATOM     28  C   UNL     1     -23.853  85.952   6.561  0.00  0.00    +0.000 C 
BRANCH  28  29
ATOM     29  C   UNL     1     -23.379  86.600   5.338  0.00  0.00    +0.000 C 
ATOM     30  C   UNL     1     -22.659  87.927   5.607  0.00  0.00    +0.000 C 
ATOM     31  C   UNL     1     -22.513  85.683   4.467  0.00  0.00    +0.000 C 
BRANCH  29  32
ATOM     32  O   UNL     1     -24.489  86.931   4.535  0.00  0.00    +0.000 OA
ATOM     33  H   UNL     1     -24.233  86.453   3.732  0.00  0.00    +0.000 HD
ENDBRANCH  29  32
ENDBRANCH  28  29
ENDBRANCH  27  28
ENDBRANCH  24  26
ENDBRANCH   2  24
TORSDOF 9
ENDMDL
MODEL 2
REMARK VINA RESULT:      -6.3     22.552     25.254
REMARK  Name = Calcitriol.pdbqt.pdb
REMARK  9 active torsions:
REMARK  status: ('A' for Active; 'I' for Inactive)
REMARK    1  A    between atoms: C_2  and  C_24
REMARK    2  A    between atoms: C_7  and  C_11
REMARK    3  A    between atoms: C_12  and  C_13
REMARK    4  A    between atoms: C_16  and  O_20
REMARK    5  A    between atoms: C_18  and  O_22
REMARK    6  A    between atoms: C_24  and  C_26
REMARK    7  A    between atoms: C_27  and  C_28
REMARK    8  A    between atoms: C_28  and  C_29
REMARK    9  A    between atoms: C_29  and  O_32
REMARK                            x       y       z     vdW  Elec       q    Type
REMARK                         _______ _______ _______ _____ _____    ______ ____
ROOT
ATOM      1  C   UNL     1     -42.514 101.269   3.460  0.00  0.00    +0.000 C 
ATOM      2  C   UNL     1     -43.600 102.203   3.986  0.00  0.00    +0.000 C 
ATOM      3  C   UNL     1     -41.231 102.252   3.310  0.00  0.00    +0.000 C 
ATOM      4  C   UNL     1     -43.037 103.483   4.267  0.00  0.00    +0.000 C 
ATOM      5  C   UNL     1     -41.583 103.514   3.883  0.00  0.00    +0.000 C 
ATOM      6  C   UNL     1     -42.781 100.719   2.121  0.00  0.00    +0.000 C 
ATOM      7  C   UNL     1     -40.357 102.174   2.133  0.00  0.00    +0.000 C 
ATOM      8  C   UNL     1     -42.136 100.200   4.524  0.00  0.00    +0.000 C 
ATOM      9  C   UNL     1     -42.123 100.617   0.756  0.00  0.00    +0.000 C 
ATOM     10  C   UNL     1     -40.876 101.429   1.042  0.00  0.00    +0.000 C 
ENDROOT
BRANCH   7  11
ATOM     11  C   UNL     1     -39.252 102.838   1.996  0.00  0.00    +0.000 C 
ATOM     12  C   UNL     1     -37.950 103.633   1.843  0.00  0.00    +0.000 C 
BRANCH  12  13
ATOM     13  C   UNL     1     -36.849 104.311   1.721  0.00  0.00    +0.000 A 
ATOM     14  C   UNL     1     -36.472 104.825   0.439  0.00  0.00    +0.000 A 
ATOM     15  C   UNL     1     -35.845 104.589   2.796  0.00  0.00    +0.000 A 
ATOM     16  C   UNL     1     -35.335 105.549  -0.025  0.00  0.00    +0.000 A 
ATOM     17  C   UNL     1     -34.469 105.734   1.089  0.00  0.00    +0.000 A 
ATOM     18  C   UNL     1     -34.595 105.337   2.452  0.00  0.00    +0.000 A 
ATOM     19  C   UNL     1     -36.032 104.195   4.069  0.00  0.00    +0.000 C 
BRANCH  16  20
ATOM     20  O   UNL     1     -35.444 106.476  -1.020  0.00  0.00    +0.000 OA
ATOM     21  H   UNL     1     -35.263 107.372  -0.689  0.00  0.00    +0.000 HD
ENDBRANCH  16  20
BRANCH  18  22
ATOM     22  O   UNL     1     -33.641 105.628   3.397  0.00  0.00    +0.000 OA
ATOM     23  H   UNL     1     -33.628 104.938   4.088  0.00  0.00    +0.000 HD
ENDBRANCH  18  22
ENDBRANCH  12  13
ENDBRANCH   7  11
BRANCH   2  24
ATOM     24  C   UNL     1     -44.936 101.814   4.309  0.00  0.00    +0.000 C 
ATOM     25  C   UNL     1     -45.541 102.010   5.676  0.00  0.00    +0.000 C 
BRANCH  24  26
ATOM     26  C   UNL     1     -45.716 101.044   3.404  0.00  0.00    +0.000 C 
ATOM     27  C   UNL     1     -46.571 100.222   2.432  0.00  0.00    +0.000 C 
BRANCH  27  28
ATOM     28  C   UNL     1     -47.438  99.406   1.464  0.00  0.00    +0.000 C 
BRANCH  28  29
ATOM     29  C   UNL     1     -48.265  98.626   0.544  0.00  0.00    +0.000 C 
ATOM     30  C   UNL     1     -48.371  97.150   0.944  0.00  0.00    +0.000 C 
ATOM     31  C   UNL     1     -49.658  99.228   0.327  0.00  0.00    +0.000 C 
BRANCH  29  32
ATOM     32  O   UNL     1     -47.660  98.627  -0.730  0.00  0.00    +0.000 OA
ATOM     33  H   UNL     1     -48.359  99.085  -1.220  0.00  0.00    +0.000 HD
ENDBRANCH  29  32
ENDBRANCH  28  29
ENDBRANCH  27  28
ENDBRANCH  24  26
ENDBRANCH   2  24
TORSDOF 9
ENDMDL
MODEL 3
REMARK VINA RESULT:      -6.3     18.358     23.537
REMARK  Name = Calcitriol.pdbqt.pdb
REMARK  9 active torsions:
REMARK  status: ('A' for Active; 'I' for Inactive)
REMARK    1  A    between atoms: C_2  and  C_24
REMARK    2  A    between atoms: C_7  and  C_11
REMARK    3  A    between atoms: C_12  and  C_13
REMARK    4  A    between atoms: C_16  and  O_20
REMARK    5  A    between atoms: C_18  and  O_22
REMARK    6  A    between atoms: C_24  and  C_26
REMARK    7  A    between atoms: C_27  and  C_28
REMARK    8  A    between atoms: C_28  and  C_29
REMARK    9  A    between atoms: C_29  and  O_32
REMARK                            x       y       z     vdW  Elec       q    Type
REMARK                         _______ _______ _______ _____ _____    ______ ____
ROOT
ATOM      1  C   UNL     1     -24.244 102.865   3.582  0.00  0.00    +0.000 C 
ATOM      2  C   UNL     1     -22.929 102.874   4.356  0.00  0.00    +0.000 C 
ATOM      3  C   UNL     1     -23.754 102.813   2.035  0.00  0.00    +0.000 C 
ATOM      4  C   UNL     1     -21.840 102.688   3.454  0.00  0.00    +0.000 C 
ATOM      5  C   UNL     1     -22.337 102.622   2.036  0.00  0.00    +0.000 C 
ATOM      6  C   UNL     1     -25.044 104.092   3.727  0.00  0.00    +0.000 C 
ATOM      7  C   UNL     1     -24.404 103.640   1.011  0.00  0.00    +0.000 C 
ATOM      8  C   UNL     1     -25.036 101.554   3.845  0.00  0.00    +0.000 C 
ATOM      9  C   UNL     1     -25.706 105.155   2.868  0.00  0.00    +0.000 C 
ATOM     10  C   UNL     1     -25.242 104.673   1.509  0.00  0.00    +0.000 C 
ENDROOT
BRANCH   7  11
ATOM     11  C   UNL     1     -24.153 103.567  -0.259  0.00  0.00    +0.000 C 
ATOM     12  C   UNL     1     -23.842 103.474  -1.757  0.00  0.00    +0.000 C 
BRANCH  12  13
ATOM     13  C   UNL     1     -23.574 103.388  -3.025  0.00  0.00    +0.000 A 
ATOM     14  C   UNL     1     -24.645 103.326  -3.973  0.00  0.00    +0.000 A 
ATOM     15  C   UNL     1     -22.216 103.285  -3.648  0.00  0.00    +0.000 A 
ATOM     16  C   UNL     1     -24.684 103.185  -5.391  0.00  0.00    +0.000 A 
ATOM     17  C   UNL     1     -23.338 103.091  -5.843  0.00  0.00    +0.000 A 
ATOM     18  C   UNL     1     -22.104 103.127  -5.132  0.00  0.00    +0.000 A 
ATOM     19  C   UNL     1     -21.087 103.338  -2.917  0.00  0.00    +0.000 C 
BRANCH  16  20
ATOM     20  O   UNL     1     -25.659 103.785  -6.135  0.00  0.00    +0.000 OA
ATOM     21  H   UNL     1     -26.128 103.138  -6.687  0.00  0.00    +0.000 HD
ENDBRANCH  16  20
BRANCH  18  22
ATOM     22  O   UNL     1     -20.886 103.035  -5.761  0.00  0.00    +0.000 OA
ATOM     23  H   UNL     1     -20.409 102.238  -5.460  0.00  0.00    +0.000 HD
ENDBRANCH  18  22
ENDBRANCH  12  13
ENDBRANCH   7  11
BRANCH   2  24
ATOM     24  C   UNL     1     -22.811 102.894   5.780  0.00  0.00    +0.000 C 
ATOM     25  C   UNL     1     -22.491 101.667   6.595  0.00  0.00    +0.000 C 
BRANCH  24  26
ATOM     26  C   UNL     1     -23.175 104.044   6.531  0.00  0.00    +0.000 C 
ATOM     27  C   UNL     1     -23.574 105.276   7.354  0.00  0.00    +0.000 C 
BRANCH  27  28
ATOM     28  C   UNL     1     -23.978 106.499   8.186  0.00  0.00    +0.000 C 
BRANCH  28  29
ATOM     29  C   UNL     1     -24.368 107.665   8.978  0.00  0.00    +0.000 C 
ATOM     30  C   UNL     1     -23.208 108.640   9.214  0.00  0.00    +0.000 C 
ATOM     31  C   UNL     1     -25.586 108.402   8.409  0.00  0.00    +0.000 C 
BRANCH  29  32
ATOM     32  O   UNL     1     -24.763 107.236  10.262  0.00  0.00    +0.000 OA
ATOM     33  H   UNL     1     -23.959 107.474  10.746  0.00  0.00    +0.000 HD
ENDBRANCH  29  32
ENDBRANCH  28  29
ENDBRANCH  27  28
ENDBRANCH  24  26
ENDBRANCH   2  24
TORSDOF 9
ENDMDL
MODEL 4
REMARK VINA RESULT:      -6.3      4.003     11.361
REMARK  Name = Calcitriol.pdbqt.pdb
REMARK  9 active torsions:
REMARK  status: ('A' for Active; 'I' for Inactive)
REMARK    1  A    between atoms: C_2  and  C_24
REMARK    2  A    between atoms: C_7  and  C_11
REMARK    3  A    between atoms: C_12  and  C_13
REMARK    4  A    between atoms: C_16  and  O_20
REMARK    5  A    between atoms: C_18  and  O_22
REMARK    6  A    between atoms: C_24  and  C_26
REMARK    7  A    between atoms: C_27  and  C_28
REMARK    8  A    between atoms: C_28  and  C_29
REMARK    9  A    between atoms: C_29  and  O_32
REMARK                            x       y       z     vdW  Elec       q    Type
REMARK                         _______ _______ _______ _____ _____    ______ ____
ROOT
ATOM      1  C   UNL     1     -30.325  89.293  17.411  0.00  0.00    +0.000 C 
ATOM      2  C   UNL     1     -29.960  88.952  18.854  0.00  0.00    +0.000 C 
ATOM      3  C   UNL     1     -29.793  88.000  16.587  0.00  0.00    +0.000 C 
ATOM      4  C   UNL     1     -29.453  87.621  18.918  0.00  0.00    +0.000 C 
ATOM      5  C   UNL     1     -29.373  87.021  17.542  0.00  0.00    +0.000 C 
ATOM      6  C   UNL     1     -29.614  90.461  16.864  0.00  0.00    +0.000 C 
ATOM      7  C   UNL     1     -29.088  88.159  15.309  0.00  0.00    +0.000 C 
ATOM      8  C   UNL     1     -31.867  89.340  17.223  0.00  0.00    +0.000 C 
ATOM      9  C   UNL     1     -28.748  90.840  15.676  0.00  0.00    +0.000 C 
ATOM     10  C   UNL     1     -28.649  89.478  15.020  0.00  0.00    +0.000 C 
ENDROOT
BRANCH   7  11
ATOM     11  C   UNL     1     -28.740  87.177  14.537  0.00  0.00    +0.000 C 
ATOM     12  C   UNL     1     -28.314  86.021  13.624  0.00  0.00    +0.000 C 
BRANCH  12  13
ATOM     13  C   UNL     1     -27.944  85.043  12.855  0.00  0.00    +0.000 A 
ATOM     14  C   UNL     1     -28.765  84.667  11.743  0.00  0.00    +0.000 A 
ATOM     15  C   UNL     1     -26.735  84.177  13.025  0.00  0.00    +0.000 A 
ATOM     16  C   UNL     1     -28.667  83.638  10.763  0.00  0.00    +0.000 A 
ATOM     17  C   UNL     1     -27.486  82.895  11.048  0.00  0.00    +0.000 A 
ATOM     18  C   UNL     1     -26.505  83.048  12.070  0.00  0.00    +0.000 A 
ATOM     19  C   UNL     1     -25.838  84.385  14.007  0.00  0.00    +0.000 C 
BRANCH  16  20
ATOM     20  O   UNL     1     -29.112  83.829   9.487  0.00  0.00    +0.000 OA
ATOM     21  H   UNL     1     -29.068  83.007   8.971  0.00  0.00    +0.000 HD
ENDBRANCH  16  20
BRANCH  18  22
ATOM     22  O   UNL     1     -25.409  82.225  12.170  0.00  0.00    +0.000 OA
ATOM     23  H   UNL     1     -25.093  82.195  13.094  0.00  0.00    +0.000 HD
ENDBRANCH  18  22
ENDBRANCH  12  13
ENDBRANCH   7  11
BRANCH   2  24
ATOM     24  C   UNL     1     -30.239  89.772  19.990  0.00  0.00    +0.000 C 
ATOM     25  C   UNL     1     -30.048  89.303  21.409  0.00  0.00    +0.000 C 
BRANCH  24  26
ATOM     26  C   UNL     1     -30.896  91.026  19.848  0.00  0.00    +0.000 C 
ATOM     27  C   UNL     1     -31.610  92.372  19.680  0.00  0.00    +0.000 C 
BRANCH  27  28
ATOM     28  C   UNL     1     -32.329  93.715  19.500  0.00  0.00    +0.000 C 
BRANCH  28  29
ATOM     29  C   UNL     1     -33.018  94.994  19.328  0.00  0.00    +0.000 C 
ATOM     30  C   UNL     1     -34.101  95.233  20.387  0.00  0.00    +0.000 C 
ATOM     31  C   UNL     1     -32.062  96.190  19.255  0.00  0.00    +0.000 C 
BRANCH  29  32
ATOM     32  O   UNL     1     -33.697  94.987  18.093  0.00  0.00    +0.000 OA
ATOM     33  H   UNL     1     -34.568  95.272  18.407  0.00  0.00    +0.000 HD
ENDBRANCH  29  32
ENDBRANCH  28  29
ENDBRANCH  27  28
ENDBRANCH  24  26
ENDBRANCH   2  24
TORSDOF 9
ENDMDL
MODEL 5
REMARK VINA RESULT:      -6.0     21.765     24.074
REMARK  Name = Calcitriol.pdbqt.pdb
REMARK  9 active torsions:
REMARK  status: ('A' for Active; 'I' for Inactive)
REMARK    1  A    between atoms: C_2  and  C_24
REMARK    2  A    between atoms: C_7  and  C_11
REMARK    3  A    between atoms: C_12  and  C_13
REMARK    4  A    between atoms: C_16  and  O_20
REMARK    5  A    between atoms: C_18  and  O_22
REMARK    6  A    between atoms: C_24  and  C_26
REMARK    7  A    between atoms: C_27  and  C_28
REMARK    8  A    between atoms: C_28  and  C_29
REMARK    9  A    between atoms: C_29  and  O_32
REMARK                            x       y       z     vdW  Elec       q    Type
REMARK                         _______ _______ _______ _____ _____    ______ ____
ROOT
ATOM      1  C   UNL     1     -39.909 103.298   2.851  0.00  0.00    +0.000 C 
ATOM      2  C   UNL     1     -38.761 103.154   3.845  0.00  0.00    +0.000 C 
ATOM      3  C   UNL     1     -41.221 103.039   3.771  0.00  0.00    +0.000 C 
ATOM      4  C   UNL     1     -39.283 103.003   5.164  0.00  0.00    +0.000 C 
ATOM      5  C   UNL     1     -40.786 102.959   5.132  0.00  0.00    +0.000 C 
ATOM      6  C   UNL     1     -39.930 102.276   1.793  0.00  0.00    +0.000 C 
ATOM      7  C   UNL     1     -42.331 102.211   3.284  0.00  0.00    +0.000 C 
ATOM      8  C   UNL     1     -40.013 104.759   2.327  0.00  0.00    +0.000 C 
ATOM      9  C   UNL     1     -40.870 101.245   1.193  0.00  0.00    +0.000 C 
ATOM     10  C   UNL     1     -42.045 101.434   2.130  0.00  0.00    +0.000 C 
ENDROOT
BRANCH   7  11
ATOM     11  C   UNL     1     -43.457 102.054   3.907  0.00  0.00    +0.000 C 
ATOM     12  C   UNL     1     -44.785 101.856   4.647  0.00  0.00    +0.000 C 
BRANCH  12  13
ATOM     13  C   UNL     1     -45.906 101.681   5.280  0.00  0.00    +0.000 A 
ATOM     14  C   UNL     1     -46.936 100.882   4.688  0.00  0.00    +0.000 A 
ATOM     15  C   UNL     1     -46.297 102.287   6.592  0.00  0.00    +0.000 A 
ATOM     16  C   UNL     1     -48.260 100.544   5.092  0.00  0.00    +0.000 A 
ATOM     17  C   UNL     1     -48.498 101.188   6.339  0.00  0.00    +0.000 A 
ATOM     18  C   UNL     1     -47.665 102.022   7.138  0.00  0.00    +0.000 A 
ATOM     19  C   UNL     1     -45.455 103.058   7.304  0.00  0.00    +0.000 C 
BRANCH  16  20
ATOM     20  O   UNL     1     -48.806  99.331   4.787  0.00  0.00    +0.000 OA
ATOM     21  H   UNL     1     -48.219  98.816   4.207  0.00  0.00    +0.000 HD
ENDBRANCH  16  20
BRANCH  18  22
ATOM     22  O   UNL     1     -48.079 102.544   8.341  0.00  0.00    +0.000 OA
ATOM     23  H   UNL     1     -48.871 102.070   8.660  0.00  0.00    +0.000 HD
ENDBRANCH  18  22
ENDBRANCH  12  13
ENDBRANCH   7  11
BRANCH   2  24
ATOM     24  C   UNL     1     -37.376 103.315   3.533  0.00  0.00    +0.000 C 
ATOM     25  C   UNL     1     -36.617 102.362   2.645  0.00  0.00    +0.000 C 
BRANCH  24  26
ATOM     26  C   UNL     1     -36.581 104.289   4.198  0.00  0.00    +0.000 C 
ATOM     27  C   UNL     1     -35.732 105.351   4.906  0.00  0.00    +0.000 C 
BRANCH  27  28
ATOM     28  C   UNL     1     -34.888 106.424   5.607  0.00  0.00    +0.000 C 
BRANCH  28  29
ATOM     29  C   UNL     1     -34.080 107.445   6.273  0.00  0.00    +0.000 C 
ATOM     30  C   UNL     1     -33.213 108.248   5.297  0.00  0.00    +0.000 C 
ATOM     31  C   UNL     1     -34.906 108.385   7.159  0.00  0.00    +0.000 C 
BRANCH  29  32
ATOM     32  O   UNL     1     -33.173 106.814   7.148  0.00  0.00    +0.000 OA
ATOM     33  H   UNL     1     -32.809 107.605   7.572  0.00  0.00    +0.000 HD
ENDBRANCH  29  32
ENDBRANCH  28  29
ENDBRANCH  27  28
ENDBRANCH  24  26
ENDBRANCH   2  24
TORSDOF 9
ENDMDL
MODEL 6
REMARK VINA RESULT:      -6.0     19.060     23.026
REMARK  Name = Calcitriol.pdbqt.pdb
REMARK  9 active torsions:
REMARK  status: ('A' for Active; 'I' for Inactive)
REMARK    1  A    between atoms: C_2  and  C_24
REMARK    2  A    between atoms: C_7  and  C_11
REMARK    3  A    between atoms: C_12  and  C_13
REMARK    4  A    between atoms: C_16  and  O_20
REMARK    5  A    between atoms: C_18  and  O_22
REMARK    6  A    between atoms: C_24  and  C_26
REMARK    7  A    between atoms: C_27  and  C_28
REMARK    8  A    between atoms: C_28  and  C_29
REMARK    9  A    between atoms: C_29  and  O_32
REMARK                            x       y       z     vdW  Elec       q    Type
REMARK                         _______ _______ _______ _____ _____    ______ ____
ROOT
ATOM      1  C   UNL     1     -31.909  87.938  -9.217  0.00  0.00    +0.000 C 
ATOM      2  C   UNL     1     -32.511  89.236  -9.748  0.00  0.00    +0.000 C 
ATOM      3  C   UNL     1     -30.525  88.436  -8.528  0.00  0.00    +0.000 C 
ATOM      4  C   UNL     1     -31.724  90.343  -9.315  0.00  0.00    +0.000 C 
ATOM      5  C   UNL     1     -30.524  89.866  -8.545  0.00  0.00    +0.000 C 
ATOM      6  C   UNL     1     -31.533  86.970 -10.260  0.00  0.00    +0.000 C 
ATOM      7  C   UNL     1     -29.281  87.677  -8.705  0.00  0.00    +0.000 C 
ATOM      8  C   UNL     1     -32.785  87.341  -8.080  0.00  0.00    +0.000 C 
ATOM      9  C   UNL     1     -30.330  86.164 -10.718  0.00  0.00    +0.000 C 
ATOM     10  C   UNL     1     -29.310  86.698  -9.734  0.00  0.00    +0.000 C 
ENDROOT
BRANCH   7  11
ATOM     11  C   UNL     1     -28.168  87.941  -8.094  0.00  0.00    +0.000 C 
ATOM     12  C   UNL     1     -26.857  88.267  -7.370  0.00  0.00    +0.000 C 
BRANCH  12  13
ATOM     13  C   UNL     1     -25.751  88.551  -6.751  0.00  0.00    +0.000 A 
ATOM     14  C   UNL     1     -25.734  89.596  -5.772  0.00  0.00    +0.000 A 
ATOM     15  C   UNL     1     -24.410  87.927  -6.985  0.00  0.00    +0.000 A 
ATOM     16  C   UNL     1     -24.701  90.165  -4.973  0.00  0.00    +0.000 A 
ATOM     17  C   UNL     1     -23.492  89.489  -5.301  0.00  0.00    +0.000 A 
ATOM     18  C   UNL     1     -23.228  88.431  -6.218  0.00  0.00    +0.000 A 
ATOM     19  C   UNL     1     -24.231  86.919  -7.858  0.00  0.00    +0.000 C 
BRANCH  16  20
ATOM     20  O   UNL     1     -24.953  90.629  -3.715  0.00  0.00    +0.000 OA
ATOM     21  H   UNL     1     -25.005  89.900  -3.074  0.00  0.00    +0.000 HD
ENDBRANCH  16  20
BRANCH  18  22
ATOM     22  O   UNL     1     -21.973  87.894  -6.383  0.00  0.00    +0.000 OA
ATOM     23  H   UNL     1     -21.530  88.301  -7.152  0.00  0.00    +0.000 HD
ENDBRANCH  18  22
ENDBRANCH  12  13
ENDBRANCH   7  11
BRANCH   2  24
ATOM     24  C   UNL     1     -33.762  89.344 -10.431  0.00  0.00    +0.000 C 
ATOM     25  C   UNL     1     -33.913  89.106 -11.911  0.00  0.00    +0.000 C 
BRANCH  24  26
ATOM     26  C   UNL     1     -34.911  89.869  -9.779  0.00  0.00    +0.000 C 
ATOM     27  C   UNL     1     -36.144  90.433  -9.061  0.00  0.00    +0.000 C 
BRANCH  27  28
ATOM     28  C   UNL     1     -37.371  90.994  -8.331  0.00  0.00    +0.000 C 
BRANCH  28  29
ATOM     29  C   UNL     1     -38.543  91.528  -7.638  0.00  0.00    +0.000 C 
ATOM     30  C   UNL     1     -39.419  90.432  -7.020  0.00  0.00    +0.000 C 
ATOM     31  C   UNL     1     -38.193  92.593  -6.593  0.00  0.00    +0.000 C 
BRANCH  29  32
ATOM     32  O   UNL     1     -39.369  92.185  -8.574  0.00  0.00    +0.000 OA
ATOM     33  H   UNL     1     -40.037  92.525  -7.960  0.00  0.00    +0.000 HD
ENDBRANCH  29  32
ENDBRANCH  28  29
ENDBRANCH  27  28
ENDBRANCH  24  26
ENDBRANCH   2  24
TORSDOF 9
ENDMDL
MODEL 7
REMARK VINA RESULT:      -6.0     22.876     24.806
REMARK  Name = Calcitriol.pdbqt.pdb
REMARK  9 active torsions:
REMARK  status: ('A' for Active; 'I' for Inactive)
REMARK    1  A    between atoms: C_2  and  C_24
REMARK    2  A    between atoms: C_7  and  C_11
REMARK    3  A    between atoms: C_12  and  C_13
REMARK    4  A    between atoms: C_16  and  O_20
REMARK    5  A    between atoms: C_18  and  O_22
REMARK    6  A    between atoms: C_24  and  C_26
REMARK    7  A    between atoms: C_27  and  C_28
REMARK    8  A    between atoms: C_28  and  C_29
REMARK    9  A    between atoms: C_29  and  O_32
REMARK                            x       y       z     vdW  Elec       q    Type
REMARK                         _______ _______ _______ _____ _____    ______ ____
ROOT
ATOM      1  C   UNL     1     -41.131 102.566   2.307  0.00  0.00    +0.000 C 
ATOM      2  C   UNL     1     -40.321 102.351   3.582  0.00  0.00    +0.000 C 
ATOM      3  C   UNL     1     -42.569 101.906   2.674  0.00  0.00    +0.000 C 
ATOM      4  C   UNL     1     -41.162 101.812   4.600  0.00  0.00    +0.000 C 
ATOM      5  C   UNL     1     -42.545 101.563   4.063  0.00  0.00    +0.000 C 
ATOM      6  C   UNL     1     -40.623 101.837   1.133  0.00  0.00    +0.000 C 
ATOM      7  C   UNL     1     -43.285 101.071   1.702  0.00  0.00    +0.000 C 
ATOM      8  C   UNL     1     -41.385 104.079   2.056  0.00  0.00    +0.000 C 
ATOM      9  C   UNL     1     -41.104 100.858   0.077  0.00  0.00    +0.000 C 
ATOM     10  C   UNL     1     -42.514 100.645   0.588  0.00  0.00    +0.000 C 
ENDROOT
BRANCH   7  11
ATOM     11  C   UNL     1     -44.483 100.609   1.875  0.00  0.00    +0.000 C 
ATOM     12  C   UNL     1     -45.899 100.052   2.070  0.00  0.00    +0.000 C 
BRANCH  12  13
ATOM     13  C   UNL     1     -47.094  99.572   2.232  0.00  0.00    +0.000 A 
ATOM     14  C   UNL     1     -47.669  98.743   1.215  0.00  0.00    +0.000 A 
ATOM     15  C   UNL     1     -48.017  99.836   3.381  0.00  0.00    +0.000 A 
ATOM     16  C   UNL     1     -48.940  98.116   1.072  0.00  0.00    +0.000 A 
ATOM     17  C   UNL     1     -49.709  98.455   2.222  0.00  0.00    +0.000 A 
ATOM     18  C   UNL     1     -49.391  99.244   3.364  0.00  0.00    +0.000 A 
ATOM     19  C   UNL     1     -47.648 100.582   4.438  0.00  0.00    +0.000 C 
BRANCH  16  20
ATOM     20  O   UNL     1     -49.069  96.912   0.443  0.00  0.00    +0.000 OA
ATOM     21  H   UNL     1     -48.484  96.854  -0.331  0.00  0.00    +0.000 HD
ENDBRANCH  16  20
BRANCH  18  22
ATOM     22  O   UNL     1     -50.280  99.444   4.394  0.00  0.00    +0.000 OA
ATOM     23  H   UNL     1     -51.138  99.753   4.044  0.00  0.00    +0.000 HD
ENDBRANCH  18  22
ENDBRANCH  12  13
ENDBRANCH   7  11
BRANCH   2  24
ATOM     24  C   UNL     1     -38.973 102.779   3.783  0.00  0.00    +0.000 C 
ATOM     25  C   UNL     1     -38.334 102.868   5.146  0.00  0.00    +0.000 C 
BRANCH  24  26
ATOM     26  C   UNL     1     -38.209 103.328   2.717  0.00  0.00    +0.000 C 
ATOM     27  C   UNL     1     -37.379 103.905   1.564  0.00  0.00    +0.000 C 
BRANCH  27  28
ATOM     28  C   UNL     1     -36.542 104.470   0.409  0.00  0.00    +0.000 C 
BRANCH  28  29
ATOM     29  C   UNL     1     -35.744 105.012  -0.690  0.00  0.00    +0.000 C 
ATOM     30  C   UNL     1     -36.599 105.683  -1.772  0.00  0.00    +0.000 C 
ATOM     31  C   UNL     1     -34.631 105.956  -0.219  0.00  0.00    +0.000 C 
BRANCH  29  32
ATOM     32  O   UNL     1     -35.079 103.953  -1.341  0.00  0.00    +0.000 OA
ATOM     33  H   UNL     1     -34.766 104.437  -2.119  0.00  0.00    +0.000 HD
ENDBRANCH  29  32
ENDBRANCH  28  29
ENDBRANCH  27  28
ENDBRANCH  24  26
ENDBRANCH   2  24
TORSDOF 9
ENDMDL
MODEL 8
REMARK VINA RESULT:      -6.0      4.466     10.891
REMARK  Name = Calcitriol.pdbqt.pdb
REMARK  9 active torsions:
REMARK  status: ('A' for Active; 'I' for Inactive)
REMARK    1  A    between atoms: C_2  and  C_24
REMARK    2  A    between atoms: C_7  and  C_11
REMARK    3  A    between atoms: C_12  and  C_13
REMARK    4  A    between atoms: C_16  and  O_20
REMARK    5  A    between atoms: C_18  and  O_22
REMARK    6  A    between atoms: C_24  and  C_26
REMARK    7  A    between atoms: C_27  and  C_28
REMARK    8  A    between atoms: C_28  and  C_29
REMARK    9  A    between atoms: C_29  and  O_32
REMARK                            x       y       z     vdW  Elec       q    Type
REMARK                         _______ _______ _______ _____ _____    ______ ____
ROOT
ATOM      1  C   UNL     1     -27.603  85.097  12.630  0.00  0.00    +0.000 C 
ATOM      2  C   UNL     1     -28.327  86.439  12.681  0.00  0.00    +0.000 C 
ATOM      3  C   UNL     1     -28.396  84.301  11.457  0.00  0.00    +0.000 C 
ATOM      4  C   UNL     1     -29.276  86.513  11.619  0.00  0.00    +0.000 C 
ATOM      5  C   UNL     1     -29.306  85.222  10.849  0.00  0.00    +0.000 C 
ATOM      6  C   UNL     1     -27.738  84.286  13.851  0.00  0.00    +0.000 C 
ATOM      7  C   UNL     1     -28.746  82.884  11.612  0.00  0.00    +0.000 C 
ATOM      8  C   UNL     1     -26.138  85.272  12.140  0.00  0.00    +0.000 C 
ATOM      9  C   UNL     1     -28.175  82.896  14.280  0.00  0.00    +0.000 C 
ATOM     10  C   UNL     1     -28.626  82.373  12.932  0.00  0.00    +0.000 C 
ENDROOT
BRANCH   7  11
ATOM     11  C   UNL     1     -29.269  82.152  10.679  0.00  0.00    +0.000 C 
ATOM     12  C   UNL     1     -29.875  81.286   9.569  0.00  0.00    +0.000 C 
BRANCH  12  13
ATOM     13  C   UNL     1     -30.380  80.550   8.626  0.00  0.00    +0.000 A 
ATOM     14  C   UNL     1     -29.540  80.086   7.562  0.00  0.00    +0.000 A 
ATOM     15  C   UNL     1     -31.815  80.150   8.473  0.00  0.00    +0.000 A 
ATOM     16  C   UNL     1     -29.790  79.322   6.387  0.00  0.00    +0.000 A 
ATOM     17  C   UNL     1     -31.181  79.021   6.366  0.00  0.00    +0.000 A 
ATOM     18  C   UNL     1     -32.225  79.347   7.278  0.00  0.00    +0.000 A 
ATOM     19  C   UNL     1     -32.751  80.482   9.381  0.00  0.00    +0.000 C 
BRANCH  16  20
ATOM     20  O   UNL     1     -28.855  78.460   5.890  0.00  0.00    +0.000 OA
ATOM     21  H   UNL     1     -28.219  78.922   5.318  0.00  0.00    +0.000 HD
ENDBRANCH  16  20
BRANCH  18  22
ATOM     22  O   UNL     1     -33.525  78.944   7.087  0.00  0.00    +0.000 OA
ATOM     23  H   UNL     1     -34.076  79.701   6.810  0.00  0.00    +0.000 HD
ENDBRANCH  18  22
ENDBRANCH  12  13
ENDBRANCH   7  11
BRANCH   2  24
ATOM     24  C   UNL     1     -27.993  87.523  13.550  0.00  0.00    +0.000 C 
ATOM     25  C   UNL     1     -26.745  88.353  13.386  0.00  0.00    +0.000 C 
BRANCH  24  26
ATOM     26  C   UNL     1     -28.731  87.764  14.741  0.00  0.00    +0.000 C 
ATOM     27  C   UNL     1     -29.535  88.010  16.024  0.00  0.00    +0.000 C 
BRANCH  27  28
ATOM     28  C   UNL     1     -30.346  88.244  17.305  0.00  0.00    +0.000 C 
BRANCH  28  29
ATOM     29  C   UNL     1     -31.123  88.466  18.524  0.00  0.00    +0.000 C 
ATOM     30  C   UNL     1     -32.631  88.553  18.261  0.00  0.00    +0.000 C 
ATOM     31  C   UNL     1     -30.825  87.442  19.625  0.00  0.00    +0.000 C 
BRANCH  29  32
ATOM     32  O   UNL     1     -30.766  89.714  19.074  0.00  0.00    +0.000 OA
ATOM     33  H   UNL     1     -31.043  90.280  18.338  0.00  0.00    +0.000 HD
ENDBRANCH  29  32
ENDBRANCH  28  29
ENDBRANCH  27  28
ENDBRANCH  24  26
ENDBRANCH   2  24
TORSDOF 9
ENDMDL
MODEL 9
REMARK VINA RESULT:      -5.9     11.906     14.630
REMARK  Name = Calcitriol.pdbqt.pdb
REMARK  9 active torsions:
REMARK  status: ('A' for Active; 'I' for Inactive)
REMARK    1  A    between atoms: C_2  and  C_24
REMARK    2  A    between atoms: C_7  and  C_11
REMARK    3  A    between atoms: C_12  and  C_13
REMARK    4  A    between atoms: C_16  and  O_20
REMARK    5  A    between atoms: C_18  and  O_22
REMARK    6  A    between atoms: C_24  and  C_26
REMARK    7  A    between atoms: C_27  and  C_28
REMARK    8  A    between atoms: C_28  and  C_29
REMARK    9  A    between atoms: C_29  and  O_32
REMARK                            x       y       z     vdW  Elec       q    Type
REMARK                         _______ _______ _______ _____ _____    ______ ____
ROOT
ATOM      1  C   UNL     1     -17.805  94.679   4.258  0.00  0.00    +0.000 C 
ATOM      2  C   UNL     1     -17.885  93.269   4.835  0.00  0.00    +0.000 C 
ATOM      3  C   UNL     1     -18.406  95.596   5.455  0.00  0.00    +0.000 C 
ATOM      4  C   UNL     1     -18.300  93.331   6.198  0.00  0.00    +0.000 C 
ATOM      5  C   UNL     1     -18.594  94.752   6.594  0.00  0.00    +0.000 C 
ATOM      6  C   UNL     1     -18.664  94.906   3.084  0.00  0.00    +0.000 C 
ATOM      7  C   UNL     1     -19.337  96.695   5.168  0.00  0.00    +0.000 C 
ATOM      8  C   UNL     1     -16.327  95.116   4.059  0.00  0.00    +0.000 C 
ATOM      9  C   UNL     1     -19.749  95.855   2.605  0.00  0.00    +0.000 C 
ATOM     10  C   UNL     1     -19.891  96.692   3.860  0.00  0.00    +0.000 C 
ENDROOT
BRANCH   7  11
ATOM     11  C   UNL     1     -19.765  97.542   6.050  0.00  0.00    +0.000 C 
ATOM     12  C   UNL     1     -20.281  98.535   7.099  0.00  0.00    +0.000 C 
BRANCH  12  13
ATOM     13  C   UNL     1     -20.720  99.368   7.993  0.00  0.00    +0.000 A 
ATOM     14  C   UNL     1     -21.902 100.133   7.727  0.00  0.00    +0.000 A 
ATOM     15  C   UNL     1     -20.084  99.687   9.310  0.00  0.00    +0.000 A 
ATOM     16  C   UNL     1     -22.597 101.137   8.461  0.00  0.00    +0.000 A 
ATOM     17  C   UNL     1     -21.884 101.343   9.676  0.00  0.00    +0.000 A 
ATOM     18  C   UNL     1     -20.704 100.730  10.186  0.00  0.00    +0.000 A 
ATOM     19  C   UNL     1     -18.974  99.059   9.739  0.00  0.00    +0.000 C 
BRANCH  16  20
ATOM     20  O   UNL     1     -23.955 101.254   8.389  0.00  0.00    +0.000 OA
ATOM     21  H   UNL     1     -24.394 100.670   9.029  0.00  0.00    +0.000 HD
ENDBRANCH  16  20
BRANCH  18  22
ATOM     22  O   UNL     1     -20.171 101.059  11.409  0.00  0.00    +0.000 OA
ATOM     23  H   UNL     1     -19.300 100.632  11.524  0.00  0.00    +0.000 HD
ENDBRANCH  18  22
ENDBRANCH  12  13
ENDBRANCH   7  11
BRANCH   2  24
ATOM     24  C   UNL     1     -17.451  92.081   4.170  0.00  0.00    +0.000 C 
ATOM     25  C   UNL     1     -16.063  91.915   3.606  0.00  0.00    +0.000 C 
BRANCH  24  26
ATOM     26  C   UNL     1     -18.370  91.048   3.836  0.00  0.00    +0.000 C 
ATOM     27  C   UNL     1     -19.373  89.945   3.480  0.00  0.00    +0.000 C 
BRANCH  27  28
ATOM     28  C   UNL     1     -20.387  88.849   3.128  0.00  0.00    +0.000 C 
BRANCH  28  29
ATOM     29  C   UNL     1     -21.357  87.807   2.791  0.00  0.00    +0.000 C 
ATOM     30  C   UNL     1     -21.096  87.172   1.419  0.00  0.00    +0.000 C 
ATOM     31  C   UNL     1     -21.482  86.726   3.870  0.00  0.00    +0.000 C 
BRANCH  29  32
ATOM     32  O   UNL     1     -22.639  88.386   2.697  0.00  0.00    +0.000 OA
ATOM     33  H   UNL     1     -22.878  88.357   3.635  0.00  0.00    +0.000 HD
ENDBRANCH  29  32
ENDBRANCH  28  29
ENDBRANCH  27  28
ENDBRANCH  24  26
ENDBRANCH   2  24
TORSDOF 9
ENDMDL
