MODEL 1
REMARK VINA RESULT:      -7.9      0.000      0.000
REMARK  Name = 
REMARK  17 active torsions:
REMARK  status: ('A' for Active; 'I' for Inactive)
REMARK    1  A    between atoms: O_1  and  C_14
REMARK    2  A    between atoms: O_2  and  C_32
REMARK    3  A    between atoms: O_2  and  C_36
REMARK    4  A    between atoms: O_6  and  C_39
REMARK    5  A    between atoms: O_7  and  C_41
REMARK    6  A    between atoms: O_7  and  C_43
REMARK    7  A    between atoms: O_9  and  C_47
REMARK    8  A    between atoms: O_9  and  C_49
REMARK    9  A    between atoms: O_10  and  C_45
REMARK   10  A    between atoms: O_12  and  C_51
REMARK   11  A    between atoms: O_13  and  C_53
REMARK   12  A    between atoms: C_17  and  C_29
REMARK   13  A    between atoms: C_18  and  C_30
REMARK   14  A    between atoms: C_22  and  C_33
REMARK   15  A    between atoms: C_40  and  C_42
REMARK   16  A    between atoms: C_46  and  C_48
REMARK   17  A    between atoms: C_52  and  C_54
REMARK                            x       y       z     vdW  Elec       q    Type
REMARK                         _______ _______ _______ _____ _____    ______ ____
ROOT
ATOM      1  O   UNL     1     -40.831 100.647  19.661  0.00  0.00    +0.000 OA
ATOM      2  C   UNL     1     -40.533  99.829  18.533  0.00  0.00    +0.000 C 
ATOM      3  C   UNL     1     -41.777  99.515  17.697  0.00  0.00    +0.000 C 
ATOM      4  C   UNL     1     -42.970 100.348  18.140  0.00  0.00    +0.000 C 
ATOM      5  C   UNL     1     -41.339 101.934  19.287  0.00  0.00    +0.000 C 
ATOM      6  C   UNL     1     -42.626 101.822  18.435  0.00  0.00    +0.000 C 
ATOM      7  C   UNL     1     -41.601 102.698  20.584  0.00  0.00    +0.000 C 
ENDROOT
BRANCH   4   8
ATOM      8  O   UNL     1     -44.075 100.192  17.256  0.00  0.00    +0.000 OA
ATOM      9  H   UNL     1     -44.780  99.749  17.773  0.00  0.00    +0.000 HD
ENDBRANCH   4   8
BRANCH   2  10
ATOM     10  O   UNL     1     -39.847  98.633  18.904  0.00  0.00    +0.000 OA
BRANCH  10  29
ATOM     11  C   UNL     1     -32.346  98.262  16.868  0.00  0.00    +0.000 C 
ATOM     12  C   UNL     1     -33.828  98.309  17.330  0.00  0.00    +0.000 C 
ATOM     13  C   UNL     1     -34.102  99.376  18.420  0.00  0.00    +0.000 C 
ATOM     14  C   UNL     1     -31.744  99.650  16.508  0.00  0.00    +0.000 C 
ATOM     15  C   UNL     1     -35.616  99.425  18.884  0.00  0.00    +0.000 C 
ATOM     16  C   UNL     1     -36.115  97.984  19.234  0.00  0.00    +0.000 C 
ATOM     17  C   UNL     1     -33.551 100.743  17.964  0.00  0.00    +0.000 C 
ATOM     18  C   UNL     1     -32.062 100.678  17.621  0.00  0.00    +0.000 C 
ATOM     19  C   UNL     1     -30.220  99.313  16.437  0.00  0.00    +0.000 C 
ATOM     20  C   UNL     1     -34.313  96.928  17.796  0.00  0.00    +0.000 C 
ATOM     21  C   UNL     1     -31.363  97.696  17.909  0.00  0.00    +0.000 C 
ATOM     22  C   UNL     1     -35.795  96.955  18.136  0.00  0.00    +0.000 C 
ATOM     23  C   UNL     1     -30.001  98.331  17.606  0.00  0.00    +0.000 C 
ATOM     24  C   UNL     1     -36.539 100.050  17.801  0.00  0.00    +0.000 C 
ATOM     25  C   UNL     1     -37.623  97.936  19.553  0.00  0.00    +0.000 C 
ATOM     26  C   UNL     1     -32.260 100.179  15.154  0.00  0.00    +0.000 C 
ATOM     27  C   UNL     1     -35.693 100.301  20.166  0.00  0.00    +0.000 C 
ATOM     28  C   UNL     1     -38.026  99.983  18.148  0.00  0.00    +0.000 C 
ATOM     29  C   UNL     1     -38.489  98.560  18.454  0.00  0.00    +0.000 C 
BRANCH  19  32
ATOM     30  O   UNL     1     -27.842 102.020  15.427  0.00  0.00    +0.000 OA
ATOM     31  O   UNL     1     -27.137 102.943  17.407  0.00  0.00    +0.000 OA
ATOM     32  C   UNL     1     -29.264 100.473  16.377  0.00  0.00    +0.000 C 
ATOM     33  C   UNL     1     -28.749 100.975  15.078  0.00  0.00    +0.000 C 
ATOM     34  C   UNL     1     -28.696 101.150  17.376  0.00  0.00    +0.000 C 
ATOM     35  C   UNL     1     -27.804 102.142  16.779  0.00  0.00    +0.000 C 
ENDBRANCH  19  32
BRANCH  11  36
ATOM     36  O   UNL     1     -32.248  97.391  15.728  0.00  0.00    +0.000 OA
ATOM     37  H   UNL     1     -31.424  96.879  15.798  0.00  0.00    +0.000 HD
ENDBRANCH  11  36
ENDBRANCH  10  29
ENDBRANCH   2  10
BRANCH   6  38
ATOM     38  O   UNL     1     -42.670 102.798  17.390  0.00  0.00    +0.000 OA
BRANCH  38  40
ATOM     39  O   UNL     1     -40.875 103.833  16.234  0.00  0.00    +0.000 OA
ATOM     40  C   UNL     1     -41.850 102.800  16.230  0.00  0.00    +0.000 C 
ATOM     41  C   UNL     1     -42.587 102.729  14.897  0.00  0.00    +0.000 C 
ATOM     42  C   UNL     1     -41.843 103.456  13.780  0.00  0.00    +0.000 C 
ATOM     43  C   UNL     1     -39.800 103.536  15.321  0.00  0.00    +0.000 C 
ATOM     44  C   UNL     1     -40.306 103.377  13.865  0.00  0.00    +0.000 C 
ATOM     45  C   UNL     1     -38.798 104.682  15.435  0.00  0.00    +0.000 C 
BRANCH  42  46
ATOM     46  O   UNL     1     -42.330 103.054  12.500  0.00  0.00    +0.000 OA
ATOM     47  H   UNL     1     -42.663 102.143  12.573  0.00  0.00    +0.000 HD
ENDBRANCH  42  46
BRANCH  44  48
ATOM     48  O   UNL     1     -39.652 102.294  13.191  0.00  0.00    +0.000 OA
BRANCH  48  50
ATOM     49  O   UNL     1     -37.383 102.887  13.064  0.00  0.00    +0.000 OA
ATOM     50  C   UNL     1     -38.325 101.950  13.571  0.00  0.00    +0.000 C 
ATOM     51  C   UNL     1     -38.038 100.572  12.964  0.00  0.00    +0.000 C 
ATOM     52  C   UNL     1     -36.555 100.368  12.667  0.00  0.00    +0.000 C 
ATOM     53  C   UNL     1     -36.051 102.668  13.562  0.00  0.00    +0.000 C 
ATOM     54  C   UNL     1     -35.683 101.175  13.632  0.00  0.00    +0.000 C 
ATOM     55  C   UNL     1     -35.118 103.425  12.624  0.00  0.00    +0.000 C 
BRANCH  52  56
ATOM     56  O   UNL     1     -36.244  98.976  12.805  0.00  0.00    +0.000 OA
ATOM     57  H   UNL     1     -36.104  98.618  11.909  0.00  0.00    +0.000 HD
ENDBRANCH  52  56
BRANCH  54  58
ATOM     58  O   UNL     1     -35.924 100.691  14.966  0.00  0.00    +0.000 OA
ATOM     59  H   UNL     1     -36.887 100.788  15.113  0.00  0.00    +0.000 HD
ENDBRANCH  54  58
ENDBRANCH  48  50
ENDBRANCH  44  48
ENDBRANCH  38  40
ENDBRANCH   6  38
TORSDOF 12
ENDMDL
MODEL 2
REMARK VINA RESULT:      -7.8      5.226      7.416
REMARK  Name = 
REMARK  17 active torsions:
REMARK  status: ('A' for Active; 'I' for Inactive)
REMARK    1  A    between atoms: O_1  and  C_14
REMARK    2  A    between atoms: O_2  and  C_32
REMARK    3  A    between atoms: O_2  and  C_36
REMARK    4  A    between atoms: O_6  and  C_39
REMARK    5  A    between atoms: O_7  and  C_41
REMARK    6  A    between atoms: O_7  and  C_43
REMARK    7  A    between atoms: O_9  and  C_47
REMARK    8  A    between atoms: O_9  and  C_49
REMARK    9  A    between atoms: O_10  and  C_45
REMARK   10  A    between atoms: O_12  and  C_51
REMARK   11  A    between atoms: O_13  and  C_53
REMARK   12  A    between atoms: C_17  and  C_29
REMARK   13  A    between atoms: C_18  and  C_30
REMARK   14  A    between atoms: C_22  and  C_33
REMARK   15  A    between atoms: C_40  and  C_42
REMARK   16  A    between atoms: C_46  and  C_48
REMARK   17  A    between atoms: C_52  and  C_54
REMARK                            x       y       z     vdW  Elec       q    Type
REMARK                         _______ _______ _______ _____ _____    ______ ____
ROOT
ATOM      1  O   UNL     1     -37.332 105.691  12.129  0.00  0.00    +0.000 OA
ATOM      2  C   UNL     1     -38.597 105.086  12.381  0.00  0.00    +0.000 C 
ATOM      3  C   UNL     1     -39.677 106.116  12.725  0.00  0.00    +0.000 C 
ATOM      4  C   UNL     1     -39.190 107.536  12.478  0.00  0.00    +0.000 C 
ATOM      5  C   UNL     1     -37.358 106.568  10.996  0.00  0.00    +0.000 C 
ATOM      6  C   UNL     1     -38.395 107.703  11.167  0.00  0.00    +0.000 C 
ATOM      7  C   UNL     1     -35.945 107.130  10.842  0.00  0.00    +0.000 C 
ENDROOT
BRANCH   4   8
ATOM      8  O   UNL     1     -40.242 108.483  12.625  0.00  0.00    +0.000 OA
ATOM      9  H   UNL     1     -41.054 107.966  12.813  0.00  0.00    +0.000 HD
ENDBRANCH   4   8
BRANCH   2  10
ATOM     10  O   UNL     1     -38.518 104.070  13.380  0.00  0.00    +0.000 OA
BRANCH  10  29
ATOM     11  C   UNL     1     -31.502 101.054  14.874  0.00  0.00    +0.000 C 
ATOM     12  C   UNL     1     -32.923 101.597  14.562  0.00  0.00    +0.000 C 
ATOM     13  C   UNL     1     -33.969 101.255  15.654  0.00  0.00    +0.000 C 
ATOM     14  C   UNL     1     -30.994 101.377  16.308  0.00  0.00    +0.000 C 
ATOM     15  C   UNL     1     -35.415 101.816  15.336  0.00  0.00    +0.000 C 
ATOM     16  C   UNL     1     -35.833 101.424  13.879  0.00  0.00    +0.000 C 
ATOM     17  C   UNL     1     -33.435 101.673  17.040  0.00  0.00    +0.000 C 
ATOM     18  C   UNL     1     -32.083 101.031  17.353  0.00  0.00    +0.000 C 
ATOM     19  C   UNL     1     -29.756 100.430  16.413  0.00  0.00    +0.000 C 
ATOM     20  C   UNL     1     -33.412 101.128  13.184  0.00  0.00    +0.000 C 
ATOM     21  C   UNL     1     -31.359  99.525  14.771  0.00  0.00    +0.000 C 
ATOM     22  C   UNL     1     -34.752 101.757  12.836  0.00  0.00    +0.000 C 
ATOM     23  C   UNL     1     -30.217  99.134  15.717  0.00  0.00    +0.000 C 
ATOM     24  C   UNL     1     -35.495 103.359  15.506  0.00  0.00    +0.000 C 
ATOM     25  C   UNL     1     -37.169 102.063  13.450  0.00  0.00    +0.000 C 
ATOM     26  C   UNL     1     -30.579 102.854  16.464  0.00  0.00    +0.000 C 
ATOM     27  C   UNL     1     -36.412 101.156  16.330  0.00  0.00    +0.000 C 
ATOM     28  C   UNL     1     -36.831 103.958  15.069  0.00  0.00    +0.000 C 
ATOM     29  C   UNL     1     -37.195 103.583  13.633  0.00  0.00    +0.000 C 
BRANCH  19  32
ATOM     30  O   UNL     1     -28.589  99.180  19.742  0.00  0.00    +0.000 OA
ATOM     31  O   UNL     1     -27.617 101.005  20.741  0.00  0.00    +0.000 OA
ATOM     32  C   UNL     1     -29.145 100.251  17.777  0.00  0.00    +0.000 C 
ATOM     33  C   UNL     1     -29.213  98.945  18.481  0.00  0.00    +0.000 C 
ATOM     34  C   UNL     1     -28.557 101.153  18.563  0.00  0.00    +0.000 C 
ATOM     35  C   UNL     1     -28.190 100.477  19.806  0.00  0.00    +0.000 C 
ENDBRANCH  19  32
BRANCH  11  36
ATOM     36  O   UNL     1     -30.583 101.597  13.911  0.00  0.00    +0.000 OA
ATOM     37  H   UNL     1     -29.677 101.481  14.247  0.00  0.00    +0.000 HD
ENDBRANCH  11  36
ENDBRANCH  10  29
ENDBRANCH   2  10
BRANCH   6  38
ATOM     38  O   UNL     1     -39.073 108.007   9.944  0.00  0.00    +0.000 OA
BRANCH  38  40
ATOM     39  O   UNL     1     -39.481 107.550   7.651  0.00  0.00    +0.000 OA
ATOM     40  C   UNL     1     -39.501 107.053   8.982  0.00  0.00    +0.000 C 
ATOM     41  C   UNL     1     -40.813 106.340   9.295  0.00  0.00    +0.000 C 
ATOM     42  C   UNL     1     -41.583 105.958   8.034  0.00  0.00    +0.000 C 
ATOM     43  C   UNL     1     -39.462 106.472   6.695  0.00  0.00    +0.000 C 
ATOM     44  C   UNL     1     -40.705 105.557   6.832  0.00  0.00    +0.000 C 
ATOM     45  C   UNL     1     -39.400 107.114   5.311  0.00  0.00    +0.000 C 
BRANCH  42  46
ATOM     46  O   UNL     1     -42.576 104.976   8.324  0.00  0.00    +0.000 OA
ATOM     47  H   UNL     1     -42.274 104.452   9.087  0.00  0.00    +0.000 HD
ENDBRANCH  42  46
BRANCH  44  48
ATOM     48  O   UNL     1     -40.364 104.173   6.684  0.00  0.00    +0.000 OA
BRANCH  48  50
ATOM     49  O   UNL     1     -41.195 102.444   5.329  0.00  0.00    +0.000 OA
ATOM     50  C   UNL     1     -40.367 103.600   5.382  0.00  0.00    +0.000 C 
ATOM     51  C   UNL     1     -38.920 103.195   5.078  0.00  0.00    +0.000 C 
ATOM     52  C   UNL     1     -38.841 102.007   4.121  0.00  0.00    +0.000 C 
ATOM     53  C   UNL     1     -41.356 101.932   3.993  0.00  0.00    +0.000 C 
ATOM     54  C   UNL     1     -40.049 101.975   3.181  0.00  0.00    +0.000 C 
ATOM     55  C   UNL     1     -41.866 100.503   4.147  0.00  0.00    +0.000 C 
BRANCH  52  56
ATOM     56  O   UNL     1     -37.643 102.121   3.342  0.00  0.00    +0.000 OA
ATOM     57  H   UNL     1     -36.998 102.625   3.871  0.00  0.00    +0.000 HD
ENDBRANCH  52  56
BRANCH  54  58
ATOM     58  O   UNL     1     -40.029 103.172   2.382  0.00  0.00    +0.000 OA
ATOM     59  H   UNL     1     -40.149 103.913   3.012  0.00  0.00    +0.000 HD
ENDBRANCH  54  58
ENDBRANCH  48  50
ENDBRANCH  44  48
ENDBRANCH  38  40
ENDBRANCH   6  38
TORSDOF 12
ENDMDL
MODEL 3
REMARK VINA RESULT:      -7.4     23.502     28.343
REMARK  Name = 
REMARK  17 active torsions:
REMARK  status: ('A' for Active; 'I' for Inactive)
REMARK    1  A    between atoms: O_1  and  C_14
REMARK    2  A    between atoms: O_2  and  C_32
REMARK    3  A    between atoms: O_2  and  C_36
REMARK    4  A    between atoms: O_6  and  C_39
REMARK    5  A    between atoms: O_7  and  C_41
REMARK    6  A    between atoms: O_7  and  C_43
REMARK    7  A    between atoms: O_9  and  C_47
REMARK    8  A    between atoms: O_9  and  C_49
REMARK    9  A    between atoms: O_10  and  C_45
REMARK   10  A    between atoms: O_12  and  C_51
REMARK   11  A    between atoms: O_13  and  C_53
REMARK   12  A    between atoms: C_17  and  C_29
REMARK   13  A    between atoms: C_18  and  C_30
REMARK   14  A    between atoms: C_22  and  C_33
REMARK   15  A    between atoms: C_40  and  C_42
REMARK   16  A    between atoms: C_46  and  C_48
REMARK   17  A    between atoms: C_52  and  C_54
REMARK                            x       y       z     vdW  Elec       q    Type
REMARK                         _______ _______ _______ _____ _____    ______ ____
ROOT
ATOM      1  O   UNL     1     -30.217  86.892  -6.525  0.00  0.00    +0.000 OA
ATOM      2  C   UNL     1     -30.383  86.697  -7.927  0.00  0.00    +0.000 C 
ATOM      3  C   UNL     1     -29.932  87.912  -8.742  0.00  0.00    +0.000 C 
ATOM      4  C   UNL     1     -29.200  88.924  -7.873  0.00  0.00    +0.000 C 
ATOM      5  C   UNL     1     -28.845  87.077  -6.155  0.00  0.00    +0.000 C 
ATOM      6  C   UNL     1     -28.209  88.289  -6.877  0.00  0.00    +0.000 C 
ATOM      7  C   UNL     1     -28.820  87.262  -4.638  0.00  0.00    +0.000 C 
ENDROOT
BRANCH   4   8
ATOM      8  O   UNL     1     -28.626  89.966  -8.654  0.00  0.00    +0.000 OA
ATOM      9  H   UNL     1     -28.113  89.528  -9.365  0.00  0.00    +0.000 HD
ENDBRANCH   4   8
BRANCH   2  10
ATOM     10  O   UNL     1     -31.718  86.318  -8.263  0.00  0.00    +0.000 OA
BRANCH  10  29
ATOM     11  C   UNL     1     -36.562  84.728  -2.384  0.00  0.00    +0.000 C 
ATOM     12  C   UNL     1     -35.602  84.986  -3.578  0.00  0.00    +0.000 C 
ATOM     13  C   UNL     1     -36.328  85.088  -4.944  0.00  0.00    +0.000 C 
ATOM     14  C   UNL     1     -37.792  85.679  -2.337  0.00  0.00    +0.000 C 
ATOM     15  C   UNL     1     -35.347  85.356  -6.158  0.00  0.00    +0.000 C 
ATOM     16  C   UNL     1     -34.158  84.340  -6.119  0.00  0.00    +0.000 C 
ATOM     17  C   UNL     1     -37.485  86.104  -4.847  0.00  0.00    +0.000 C 
ATOM     18  C   UNL     1     -38.466  85.754  -3.728  0.00  0.00    +0.000 C 
ATOM     19  C   UNL     1     -38.693  84.957  -1.284  0.00  0.00    +0.000 C 
ATOM     20  C   UNL     1     -34.488  83.930  -3.639  0.00  0.00    +0.000 C 
ATOM     21  C   UNL     1     -37.185  83.321  -2.349  0.00  0.00    +0.000 C 
ATOM     22  C   UNL     1     -33.487  84.254  -4.737  0.00  0.00    +0.000 C 
ATOM     23  C   UNL     1     -38.520  83.460  -1.609  0.00  0.00    +0.000 C 
ATOM     24  C   UNL     1     -34.796  86.809  -6.153  0.00  0.00    +0.000 C 
ATOM     25  C   UNL     1     -33.085  84.637  -7.187  0.00  0.00    +0.000 C 
ATOM     26  C   UNL     1     -37.417  87.099  -1.867  0.00  0.00    +0.000 C 
ATOM     27  C   UNL     1     -36.145  85.133  -7.473  0.00  0.00    +0.000 C 
ATOM     28  C   UNL     1     -33.734  87.067  -7.222  0.00  0.00    +0.000 C 
ATOM     29  C   UNL     1     -32.571  86.079  -7.138  0.00  0.00    +0.000 C 
BRANCH  19  32
ATOM     30  O   UNL     1     -42.416  85.286  -1.082  0.00  0.00    +0.000 OA
ATOM     31  O   UNL     1     -42.795  87.549  -0.982  0.00  0.00    +0.000 OA
ATOM     32  C   UNL     1     -40.116  85.433  -1.160  0.00  0.00    +0.000 C 
ATOM     33  C   UNL     1     -41.247  84.471  -1.154  0.00  0.00    +0.000 C 
ATOM     34  C   UNL     1     -40.588  86.679  -1.114  0.00  0.00    +0.000 C 
ATOM     35  C   UNL     1     -42.045  86.593  -1.051  0.00  0.00    +0.000 C 
ENDBRANCH  19  32
BRANCH  11  36
ATOM     36  O   UNL     1     -35.816  84.855  -1.162  0.00  0.00    +0.000 OA
ATOM     37  H   UNL     1     -35.322  84.030  -1.013  0.00  0.00    +0.000 HD
ENDBRANCH  11  36
ENDBRANCH  10  29
ENDBRANCH   2  10
BRANCH   6  38
ATOM     38  O   UNL     1     -26.854  88.040  -7.263  0.00  0.00    +0.000 OA
BRANCH  38  40
ATOM     39  O   UNL     1     -24.803  87.777  -6.099  0.00  0.00    +0.000 OA
ATOM     40  C   UNL     1     -25.712  88.681  -6.714  0.00  0.00    +0.000 C 
ATOM     41  C   UNL     1     -25.993  89.887  -5.824  0.00  0.00    +0.000 C 
ATOM     42  C   UNL     1     -24.948  90.057  -4.725  0.00  0.00    +0.000 C 
ATOM     43  C   UNL     1     -23.492  88.363  -5.978  0.00  0.00    +0.000 C 
ATOM     44  C   UNL     1     -23.513  89.656  -5.124  0.00  0.00    +0.000 C 
ATOM     45  C   UNL     1     -22.595  87.301  -5.346  0.00  0.00    +0.000 C 
BRANCH  42  46
ATOM     46  O   UNL     1     -25.002  91.370  -4.170  0.00  0.00    +0.000 OA
ATOM     47  H   UNL     1     -24.340  91.920  -4.623  0.00  0.00    +0.000 HD
ENDBRANCH  42  46
BRANCH  44  48
ATOM     48  O   UNL     1     -22.664  90.670  -5.676  0.00  0.00    +0.000 OA
BRANCH  48  50
ATOM     49  O   UNL     1     -20.820  91.745  -4.697  0.00  0.00    +0.000 OA
ATOM     50  C   UNL     1     -21.265  90.606  -5.425  0.00  0.00    +0.000 C 
ATOM     51  C   UNL     1     -20.574  90.583  -6.792  0.00  0.00    +0.000 C 
ATOM     52  C   UNL     1     -19.177  91.199  -6.744  0.00  0.00    +0.000 C 
ATOM     53  C   UNL     1     -19.446  91.641  -4.279  0.00  0.00    +0.000 C 
ATOM     54  C   UNL     1     -18.543  91.023  -5.363  0.00  0.00    +0.000 C 
ATOM     55  C   UNL     1     -19.002  93.056  -3.928  0.00  0.00    +0.000 C 
BRANCH  52  56
ATOM     56  O   UNL     1     -18.355  90.553  -7.724  0.00  0.00    +0.000 OA
ATOM     57  H   UNL     1     -18.822  90.604  -8.578  0.00  0.00    +0.000 HD
ENDBRANCH  52  56
BRANCH  54  58
ATOM     58  O   UNL     1     -18.400  89.614  -5.111  0.00  0.00    +0.000 OA
ATOM     59  H   UNL     1     -19.249  89.327  -4.718  0.00  0.00    +0.000 HD
ENDBRANCH  54  58
ENDBRANCH  48  50
ENDBRANCH  44  48
ENDBRANCH  38  40
ENDBRANCH   6  38
TORSDOF 12
ENDMDL
MODEL 4
REMARK VINA RESULT:      -7.2     22.502     26.098
REMARK  Name = 
REMARK  17 active torsions:
REMARK  status: ('A' for Active; 'I' for Inactive)
REMARK    1  A    between atoms: O_1  and  C_14
REMARK    2  A    between atoms: O_2  and  C_32
REMARK    3  A    between atoms: O_2  and  C_36
REMARK    4  A    between atoms: O_6  and  C_39
REMARK    5  A    between atoms: O_7  and  C_41
REMARK    6  A    between atoms: O_7  and  C_43
REMARK    7  A    between atoms: O_9  and  C_47
REMARK    8  A    between atoms: O_9  and  C_49
REMARK    9  A    between atoms: O_10  and  C_45
REMARK   10  A    between atoms: O_12  and  C_51
REMARK   11  A    between atoms: O_13  and  C_53
REMARK   12  A    between atoms: C_17  and  C_29
REMARK   13  A    between atoms: C_18  and  C_30
REMARK   14  A    between atoms: C_22  and  C_33
REMARK   15  A    between atoms: C_40  and  C_42
REMARK   16  A    between atoms: C_46  and  C_48
REMARK   17  A    between atoms: C_52  and  C_54
REMARK                            x       y       z     vdW  Elec       q    Type
REMARK                         _______ _______ _______ _____ _____    ______ ____
ROOT
ATOM      1  O   UNL     1     -37.576  80.266   0.030  0.00  0.00    +0.000 OA
ATOM      2  C   UNL     1     -38.427  81.400   0.176  0.00  0.00    +0.000 C 
ATOM      3  C   UNL     1     -39.406  81.245   1.342  0.00  0.00    +0.000 C 
ATOM      4  C   UNL     1     -39.067  80.034   2.198  0.00  0.00    +0.000 C 
ATOM      5  C   UNL     1     -36.735  80.059   1.172  0.00  0.00    +0.000 C 
ATOM      6  C   UNL     1     -37.558  79.865   2.468  0.00  0.00    +0.000 C 
ATOM      7  C   UNL     1     -35.879  78.829   0.871  0.00  0.00    +0.000 C 
ENDROOT
BRANCH   4   8
ATOM      8  O   UNL     1     -39.860  79.987   3.378  0.00  0.00    +0.000 OA
ATOM      9  H   UNL     1     -40.756  80.291   3.120  0.00  0.00    +0.000 HD
ENDBRANCH   4   8
BRANCH   2  10
ATOM     10  O   UNL     1     -39.114  81.716  -1.035  0.00  0.00    +0.000 OA
BRANCH  10  29
ATOM     11  C   UNL     1     -35.991  87.656  -4.973  0.00  0.00    +0.000 C 
ATOM     12  C   UNL     1     -36.610  86.505  -4.133  0.00  0.00    +0.000 C 
ATOM     13  C   UNL     1     -38.068  86.781  -3.687  0.00  0.00    +0.000 C 
ATOM     14  C   UNL     1     -36.889  88.149  -6.142  0.00  0.00    +0.000 C 
ATOM     15  C   UNL     1     -38.698  85.603  -2.836  0.00  0.00    +0.000 C 
ATOM     16  C   UNL     1     -37.723  85.195  -1.683  0.00  0.00    +0.000 C 
ATOM     17  C   UNL     1     -38.921  87.188  -4.906  0.00  0.00    +0.000 C 
ATOM     18  C   UNL     1     -38.334  88.393  -5.642  0.00  0.00    +0.000 C 
ATOM     19  C   UNL     1     -36.172  89.480  -6.537  0.00  0.00    +0.000 C 
ATOM     20  C   UNL     1     -35.732  86.161  -2.921  0.00  0.00    +0.000 C 
ATOM     21  C   UNL     1     -35.684  88.939  -4.180  0.00  0.00    +0.000 C 
ATOM     22  C   UNL     1     -36.282  84.959  -2.171  0.00  0.00    +0.000 C 
ATOM     23  C   UNL     1     -35.755  90.095  -5.186  0.00  0.00    +0.000 C 
ATOM     24  C   UNL     1     -39.024  84.360  -3.711  0.00  0.00    +0.000 C 
ATOM     25  C   UNL     1     -38.206  83.954  -0.904  0.00  0.00    +0.000 C 
ATOM     26  C   UNL     1     -36.912  87.158  -7.323  0.00  0.00    +0.000 C 
ATOM     27  C   UNL     1     -40.019  86.125  -2.205  0.00  0.00    +0.000 C 
ATOM     28  C   UNL     1     -39.497  83.150  -2.907  0.00  0.00    +0.000 C 
ATOM     29  C   UNL     1     -38.509  82.757  -1.810  0.00  0.00    +0.000 C 
BRANCH  19  32
ATOM     30  O   UNL     1     -38.185  92.213  -8.113  0.00  0.00    +0.000 OA
ATOM     31  O   UNL     1     -38.354  91.611 -10.323  0.00  0.00    +0.000 OA
ATOM     32  C   UNL     1     -36.907  90.404  -7.470  0.00  0.00    +0.000 C 
ATOM     33  C   UNL     1     -37.551  91.645  -6.969  0.00  0.00    +0.000 C 
ATOM     34  C   UNL     1     -37.161  90.263  -8.771  0.00  0.00    +0.000 C 
ATOM     35  C   UNL     1     -37.960  91.413  -9.188  0.00  0.00    +0.000 C 
ENDBRANCH  19  32
BRANCH  11  36
ATOM     36  O   UNL     1     -34.728  87.212  -5.498  0.00  0.00    +0.000 OA
ATOM     37  H   UNL     1     -34.840  87.008  -6.443  0.00  0.00    +0.000 HD
ENDBRANCH  11  36
ENDBRANCH  10  29
ENDBRANCH   2  10
BRANCH   6  38
ATOM     38  O   UNL     1     -36.949  80.499   3.597  0.00  0.00    +0.000 OA
BRANCH  38  40
ATOM     39  O   UNL     1     -35.507  78.796   4.403  0.00  0.00    +0.000 OA
ATOM     40  C   UNL     1     -36.427  79.827   4.734  0.00  0.00    +0.000 C 
ATOM     41  C   UNL     1     -37.457  79.354   5.755  0.00  0.00    +0.000 C 
ATOM     42  C   UNL     1     -37.018  78.085   6.480  0.00  0.00    +0.000 C 
ATOM     43  C   UNL     1     -34.671  78.466   5.530  0.00  0.00    +0.000 C 
ATOM     44  C   UNL     1     -35.502  77.977   6.743  0.00  0.00    +0.000 C 
ATOM     45  C   UNL     1     -33.702  77.385   5.055  0.00  0.00    +0.000 C 
BRANCH  42  46
ATOM     46  O   UNL     1     -37.783  77.888   7.668  0.00  0.00    +0.000 OA
ATOM     47  H   UNL     1     -38.295  77.067   7.569  0.00  0.00    +0.000 HD
ENDBRANCH  42  46
BRANCH  44  48
ATOM     48  O   UNL     1     -34.998  78.500   7.978  0.00  0.00    +0.000 OA
BRANCH  48  50
ATOM     49  O   UNL     1     -32.895  77.552   8.415  0.00  0.00    +0.000 OA
ATOM     50  C   UNL     1     -33.602  78.746   8.100  0.00  0.00    +0.000 C 
ATOM     51  C   UNL     1     -33.431  79.746   9.249  0.00  0.00    +0.000 C 
ATOM     52  C   UNL     1     -32.086  79.592   9.955  0.00  0.00    +0.000 C 
ATOM     53  C   UNL     1     -31.465  77.723   8.385  0.00  0.00    +0.000 C 
ATOM     54  C   UNL     1     -31.017  79.063   8.997  0.00  0.00    +0.000 C 
ATOM     55  C   UNL     1     -30.881  76.541   9.149  0.00  0.00    +0.000 C 
BRANCH  52  56
ATOM     56  O   UNL     1     -31.678  80.872  10.454  0.00  0.00    +0.000 OA
ATOM     57  H   UNL     1     -32.314  81.133  11.145  0.00  0.00    +0.000 HD
ENDBRANCH  52  56
BRANCH  54  58
ATOM     58  O   UNL     1     -30.840  80.027   7.944  0.00  0.00    +0.000 OA
ATOM     59  H   UNL     1     -30.334  80.765   8.343  0.00  0.00    +0.000 HD
ENDBRANCH  54  58
ENDBRANCH  48  50
ENDBRANCH  44  48
ENDBRANCH  38  40
ENDBRANCH   6  38
TORSDOF 12
ENDMDL
MODEL 5
REMARK VINA RESULT:      -7.2     16.656     21.593
REMARK  Name = 
REMARK  17 active torsions:
REMARK  status: ('A' for Active; 'I' for Inactive)
REMARK    1  A    between atoms: O_1  and  C_14
REMARK    2  A    between atoms: O_2  and  C_32
REMARK    3  A    between atoms: O_2  and  C_36
REMARK    4  A    between atoms: O_6  and  C_39
REMARK    5  A    between atoms: O_7  and  C_41
REMARK    6  A    between atoms: O_7  and  C_43
REMARK    7  A    between atoms: O_9  and  C_47
REMARK    8  A    between atoms: O_9  and  C_49
REMARK    9  A    between atoms: O_10  and  C_45
REMARK   10  A    between atoms: O_12  and  C_51
REMARK   11  A    between atoms: O_13  and  C_53
REMARK   12  A    between atoms: C_17  and  C_29
REMARK   13  A    between atoms: C_18  and  C_30
REMARK   14  A    between atoms: C_22  and  C_33
REMARK   15  A    between atoms: C_40  and  C_42
REMARK   16  A    between atoms: C_46  and  C_48
REMARK   17  A    between atoms: C_52  and  C_54
REMARK                            x       y       z     vdW  Elec       q    Type
REMARK                         _______ _______ _______ _____ _____    ______ ____
ROOT
ATOM      1  O   UNL     1     -21.054  99.733  11.002  0.00  0.00    +0.000 OA
ATOM      2  C   UNL     1     -20.705  99.952   9.637  0.00  0.00    +0.000 C 
ATOM      3  C   UNL     1     -20.271 101.395   9.372  0.00  0.00    +0.000 C 
ATOM      4  C   UNL     1     -20.088 102.169  10.669  0.00  0.00    +0.000 C 
ATOM      5  C   UNL     1     -19.949  99.937  11.890  0.00  0.00    +0.000 C 
ATOM      6  C   UNL     1     -19.373 101.369  11.776  0.00  0.00    +0.000 C 
ATOM      7  C   UNL     1     -20.462  99.659  13.302  0.00  0.00    +0.000 C 
ENDROOT
BRANCH   4   8
ATOM      8  O   UNL     1     -19.515 103.451  10.439  0.00  0.00    +0.000 OA
ATOM      9  H   UNL     1     -18.625 103.433  10.850  0.00  0.00    +0.000 HD
ENDBRANCH   4   8
BRANCH   2  10
ATOM     10  O   UNL     1     -21.749  99.556   8.746  0.00  0.00    +0.000 OA
BRANCH  10  29
ATOM     11  C   UNL     1     -23.231 104.213   2.691  0.00  0.00    +0.000 C 
ATOM     12  C   UNL     1     -22.995 103.294   3.920  0.00  0.00    +0.000 C 
ATOM     13  C   UNL     1     -23.714 101.925   3.816  0.00  0.00    +0.000 C 
ATOM     14  C   UNL     1     -22.996 103.520   1.320  0.00  0.00    +0.000 C 
ATOM     15  C   UNL     1     -23.466 100.988   5.068  0.00  0.00    +0.000 C 
ATOM     16  C   UNL     1     -23.743 101.777   6.391  0.00  0.00    +0.000 C 
ATOM     17  C   UNL     1     -23.376 101.257   2.467  0.00  0.00    +0.000 C 
ATOM     18  C   UNL     1     -23.724 102.153   1.278  0.00  0.00    +0.000 C 
ATOM     19  C   UNL     1     -23.636 104.556   0.341  0.00  0.00    +0.000 C 
ATOM     20  C   UNL     1     -23.372 104.001   5.230  0.00  0.00    +0.000 C 
ATOM     21  C   UNL     1     -24.656 104.782   2.576  0.00  0.00    +0.000 C 
ATOM     22  C   UNL     1     -23.029 103.140   6.435  0.00  0.00    +0.000 C 
ATOM     23  C   UNL     1     -24.897 105.042   1.084  0.00  0.00    +0.000 C 
ATOM     24  C   UNL     1     -22.022 100.415   5.092  0.00  0.00    +0.000 C 
ATOM     25  C   UNL     1     -23.379 100.970   7.654  0.00  0.00    +0.000 C 
ATOM     26  C   UNL     1     -21.499 103.317   1.013  0.00  0.00    +0.000 C 
ATOM     27  C   UNL     1     -24.468  99.802   4.981  0.00  0.00    +0.000 C 
ATOM     28  C   UNL     1     -21.695  99.624   6.359  0.00  0.00    +0.000 C 
ATOM     29  C   UNL     1     -21.945 100.432   7.630  0.00  0.00    +0.000 C 
BRANCH  19  32
ATOM     30  O   UNL     1     -23.313 103.278  -3.162  0.00  0.00    +0.000 OA
ATOM     31  O   UNL     1     -25.376 103.639  -4.105  0.00  0.00    +0.000 OA
ATOM     32  C   UNL     1     -23.852 104.113  -1.081  0.00  0.00    +0.000 C 
ATOM     33  C   UNL     1     -22.751 103.507  -1.871  0.00  0.00    +0.000 C 
ATOM     34  C   UNL     1     -24.937 104.237  -1.847  0.00  0.00    +0.000 C 
ATOM     35  C   UNL     1     -24.605 103.697  -3.164  0.00  0.00    +0.000 C 
ENDBRANCH  19  32
BRANCH  11  36
ATOM     36  O   UNL     1     -22.364 105.355   2.800  0.00  0.00    +0.000 OA
ATOM     37  H   UNL     1     -22.881 106.157   2.611  0.00  0.00    +0.000 HD
ENDBRANCH  11  36
ENDBRANCH  10  29
ENDBRANCH   2  10
BRANCH   6  38
ATOM     38  O   UNL     1     -17.945 101.388  11.876  0.00  0.00    +0.000 OA
BRANCH  38  40
ATOM     39  O   UNL     1     -16.857 102.091  13.864  0.00  0.00    +0.000 OA
ATOM     40  C   UNL     1     -17.195 101.001  13.018  0.00  0.00    +0.000 C 
ATOM     41  C   UNL     1     -15.989 100.106  12.746  0.00  0.00    +0.000 C 
ATOM     42  C   UNL     1     -14.861 100.329  13.750  0.00  0.00    +0.000 C 
ATOM     43  C   UNL     1     -16.527 101.635  15.190  0.00  0.00    +0.000 C 
ATOM     44  C   UNL     1     -15.322 100.660  15.183  0.00  0.00    +0.000 C 
ATOM     45  C   UNL     1     -16.222 102.881  16.019  0.00  0.00    +0.000 C 
BRANCH  42  46
ATOM     46  O   UNL     1     -13.936  99.243  13.722  0.00  0.00    +0.000 OA
ATOM     47  H   UNL     1     -13.580  99.168  12.819  0.00  0.00    +0.000 HD
ENDBRANCH  42  46
BRANCH  44  48
ATOM     48  O   UNL     1     -15.516  99.570  16.093  0.00  0.00    +0.000 OA
BRANCH  48  50
ATOM     49  O   UNL     1     -15.854 100.227  18.322  0.00  0.00    +0.000 OA
ATOM     50  C   UNL     1     -14.944  99.650  17.393  0.00  0.00    +0.000 C 
ATOM     51  C   UNL     1     -13.710 100.552  17.275  0.00  0.00    +0.000 C 
ATOM     52  C   UNL     1     -13.405 101.289  18.577  0.00  0.00    +0.000 C 
ATOM     53  C   UNL     1     -15.377 100.174  19.680  0.00  0.00    +0.000 C 
ATOM     54  C   UNL     1     -13.872 100.482  19.790  0.00  0.00    +0.000 C 
ATOM     55  C   UNL     1     -16.208 101.187  20.460  0.00  0.00    +0.000 C 
BRANCH  52  56
ATOM     56  O   UNL     1     -11.990 101.498  18.668  0.00  0.00    +0.000 OA
ATOM     57  H   UNL     1     -11.837 102.460  18.673  0.00  0.00    +0.000 HD
ENDBRANCH  52  56
BRANCH  54  58
ATOM     58  O   UNL     1     -13.138  99.244  19.816  0.00  0.00    +0.000 OA
ATOM     59  H   UNL     1     -12.758  99.179  20.716  0.00  0.00    +0.000 HD
ENDBRANCH  54  58
ENDBRANCH  48  50
ENDBRANCH  44  48
ENDBRANCH  38  40
ENDBRANCH   6  38
TORSDOF 12
ENDMDL
MODEL 6
REMARK VINA RESULT:      -7.1     21.666     25.266
REMARK  Name = 
REMARK  17 active torsions:
REMARK  status: ('A' for Active; 'I' for Inactive)
REMARK    1  A    between atoms: O_1  and  C_14
REMARK    2  A    between atoms: O_2  and  C_32
REMARK    3  A    between atoms: O_2  and  C_36
REMARK    4  A    between atoms: O_6  and  C_39
REMARK    5  A    between atoms: O_7  and  C_41
REMARK    6  A    between atoms: O_7  and  C_43
REMARK    7  A    between atoms: O_9  and  C_47
REMARK    8  A    between atoms: O_9  and  C_49
REMARK    9  A    between atoms: O_10  and  C_45
REMARK   10  A    between atoms: O_12  and  C_51
REMARK   11  A    between atoms: O_13  and  C_53
REMARK   12  A    between atoms: C_17  and  C_29
REMARK   13  A    between atoms: C_18  and  C_30
REMARK   14  A    between atoms: C_22  and  C_33
REMARK   15  A    between atoms: C_40  and  C_42
REMARK   16  A    between atoms: C_46  and  C_48
REMARK   17  A    between atoms: C_52  and  C_54
REMARK                            x       y       z     vdW  Elec       q    Type
REMARK                         _______ _______ _______ _____ _____    ______ ____
ROOT
ATOM      1  O   UNL     1     -24.417  80.811   9.373  0.00  0.00    +0.000 OA
ATOM      2  C   UNL     1     -25.741  81.149   9.776  0.00  0.00    +0.000 C 
ATOM      3  C   UNL     1     -25.809  82.515  10.466  0.00  0.00    +0.000 C 
ATOM      4  C   UNL     1     -24.496  83.271  10.332  0.00  0.00    +0.000 C 
ATOM      5  C   UNL     1     -23.889  81.723   8.402  0.00  0.00    +0.000 C 
ATOM      6  C   UNL     1     -23.862  83.178   8.929  0.00  0.00    +0.000 C 
ATOM      7  C   UNL     1     -22.482  81.234   8.059  0.00  0.00    +0.000 C 
ENDROOT
BRANCH   4   8
ATOM      8  O   UNL     1     -24.609  84.606  10.813  0.00  0.00    +0.000 OA
ATOM      9  H   UNL     1     -25.200  85.075  10.187  0.00  0.00    +0.000 HD
ENDBRANCH   4   8
BRANCH   2  10
ATOM     10  O   UNL     1     -26.332  80.133  10.587  0.00  0.00    +0.000 OA
BRANCH  10  29
ATOM     11  C   UNL     1     -32.753  77.225   7.293  0.00  0.00    +0.000 C 
ATOM     12  C   UNL     1     -31.448  77.815   7.892  0.00  0.00    +0.000 C 
ATOM     13  C   UNL     1     -31.324  79.350   7.716  0.00  0.00    +0.000 C 
ATOM     14  C   UNL     1     -34.047  77.980   7.713  0.00  0.00    +0.000 C 
ATOM     15  C   UNL     1     -29.995  79.948   8.334  0.00  0.00    +0.000 C 
ATOM     16  C   UNL     1     -28.758  79.128   7.838  0.00  0.00    +0.000 C 
ATOM     17  C   UNL     1     -32.607  80.040   8.224  0.00  0.00    +0.000 C 
ATOM     18  C   UNL     1     -33.861  79.506   7.532  0.00  0.00    +0.000 C 
ATOM     19  C   UNL     1     -35.085  77.390   6.706  0.00  0.00    +0.000 C 
ATOM     20  C   UNL     1     -30.205  77.108   7.331  0.00  0.00    +0.000 C 
ATOM     21  C   UNL     1     -32.814  77.223   5.755  0.00  0.00    +0.000 C 
ATOM     22  C   UNL     1     -28.939  77.609   8.007  0.00  0.00    +0.000 C 
ATOM     23  C   UNL     1     -34.300  77.282   5.382  0.00  0.00    +0.000 C 
ATOM     24  C   UNL     1     -30.026  79.961   9.887  0.00  0.00    +0.000 C 
ATOM     25  C   UNL     1     -27.443  79.563   8.516  0.00  0.00    +0.000 C 
ATOM     26  C   UNL     1     -34.454  77.679   9.170  0.00  0.00    +0.000 C 
ATOM     27  C   UNL     1     -29.851  81.412   7.829  0.00  0.00    +0.000 C 
ATOM     28  C   UNL     1     -28.706  80.394  10.525  0.00  0.00    +0.000 C 
ATOM     29  C   UNL     1     -27.524  79.554  10.045  0.00  0.00    +0.000 C 
BRANCH  19  32
ATOM     30  O   UNL     1     -37.938  79.721   6.053  0.00  0.00    +0.000 OA
ATOM     31  O   UNL     1     -39.717  78.790   7.166  0.00  0.00    +0.000 OA
ATOM     32  C   UNL     1     -36.419  78.080   6.613  0.00  0.00    +0.000 C 
ATOM     33  C   UNL     1     -36.572  79.354   5.867  0.00  0.00    +0.000 C 
ATOM     34  C   UNL     1     -37.578  77.755   7.186  0.00  0.00    +0.000 C 
ATOM     35  C   UNL     1     -38.549  78.785   6.824  0.00  0.00    +0.000 C 
ENDBRANCH  19  32
BRANCH  11  36
ATOM     36  O   UNL     1     -32.858  75.847   7.689  0.00  0.00    +0.000 OA
ATOM     37  H   UNL     1     -32.308  75.311   7.092  0.00  0.00    +0.000 HD
ENDBRANCH  11  36
ENDBRANCH  10  29
ENDBRANCH   2  10
BRANCH   6  38
ATOM     38  O   UNL     1     -24.205  84.128   7.916  0.00  0.00    +0.000 OA
BRANCH  38  40
ATOM     39  O   UNL     1     -22.011  85.028   7.823  0.00  0.00    +0.000 OA
ATOM     40  C   UNL     1     -23.280  84.927   7.192  0.00  0.00    +0.000 C 
ATOM     41  C   UNL     1     -23.793  86.292   6.743  0.00  0.00    +0.000 C 
ATOM     42  C   UNL     1     -22.685  87.339   6.681  0.00  0.00    +0.000 C 
ATOM     43  C   UNL     1     -20.994  85.427   6.883  0.00  0.00    +0.000 C 
ATOM     44  C   UNL     1     -21.307  86.803   6.243  0.00  0.00    +0.000 C 
ATOM     45  C   UNL     1     -19.676  85.464   7.652  0.00  0.00    +0.000 C 
BRANCH  42  46
ATOM     46  O   UNL     1     -23.093  88.465   5.906  0.00  0.00    +0.000 OA
ATOM     47  H   UNL     1     -22.341  88.745   5.355  0.00  0.00    +0.000 HD
ENDBRANCH  42  46
BRANCH  44  48
ATOM     48  O   UNL     1     -20.995  86.822   4.845  0.00  0.00    +0.000 OA
BRANCH  48  50
ATOM     49  O   UNL     1     -20.331  85.214   3.268  0.00  0.00    +0.000 OA
ATOM     50  C   UNL     1     -21.413  85.732   4.033  0.00  0.00    +0.000 C 
ATOM     51  C   UNL     1     -22.483  86.278   3.082  0.00  0.00    +0.000 C 
ATOM     52  C   UNL     1     -22.529  85.513   1.761  0.00  0.00    +0.000 C 
ATOM     53  C   UNL     1     -20.672  84.008   2.559  0.00  0.00    +0.000 C 
ATOM     54  C   UNL     1     -22.086  84.060   1.950  0.00  0.00    +0.000 C 
ATOM     55  C   UNL     1     -19.609  83.836   1.480  0.00  0.00    +0.000 C 
BRANCH  52  56
ATOM     56  O   UNL     1     -23.872  85.533   1.262  0.00  0.00    +0.000 OA
ATOM     57  H   UNL     1     -23.943  86.282   0.644  0.00  0.00    +0.000 HD
ENDBRANCH  52  56
BRANCH  54  58
ATOM     58  O   UNL     1     -23.010  83.421   2.848  0.00  0.00    +0.000 OA
ATOM     59  H   UNL     1     -22.461  83.016   3.550  0.00  0.00    +0.000 HD
ENDBRANCH  54  58
ENDBRANCH  48  50
ENDBRANCH  44  48
ENDBRANCH  38  40
ENDBRANCH   6  38
TORSDOF 12
ENDMDL
MODEL 7
REMARK VINA RESULT:      -6.9     15.989     19.504
REMARK  Name = 
REMARK  17 active torsions:
REMARK  status: ('A' for Active; 'I' for Inactive)
REMARK    1  A    between atoms: O_1  and  C_14
REMARK    2  A    between atoms: O_2  and  C_32
REMARK    3  A    between atoms: O_2  and  C_36
REMARK    4  A    between atoms: O_6  and  C_39
REMARK    5  A    between atoms: O_7  and  C_41
REMARK    6  A    between atoms: O_7  and  C_43
REMARK    7  A    between atoms: O_9  and  C_47
REMARK    8  A    between atoms: O_9  and  C_49
REMARK    9  A    between atoms: O_10  and  C_45
REMARK   10  A    between atoms: O_12  and  C_51
REMARK   11  A    between atoms: O_13  and  C_53
REMARK   12  A    between atoms: C_17  and  C_29
REMARK   13  A    between atoms: C_18  and  C_30
REMARK   14  A    between atoms: C_22  and  C_33
REMARK   15  A    between atoms: C_40  and  C_42
REMARK   16  A    between atoms: C_46  and  C_48
REMARK   17  A    between atoms: C_52  and  C_54
REMARK                            x       y       z     vdW  Elec       q    Type
REMARK                         _______ _______ _______ _____ _____    ______ ____
ROOT
ATOM      1  O   UNL     1     -17.421  99.841  10.317  0.00  0.00    +0.000 OA
ATOM      2  C   UNL     1     -18.844  99.825  10.379  0.00  0.00    +0.000 C 
ATOM      3  C   UNL     1     -19.364  99.729  11.816  0.00  0.00    +0.000 C 
ATOM      4  C   UNL     1     -18.243  99.918  12.826  0.00  0.00    +0.000 C 
ATOM      5  C   UNL     1     -16.856 100.983  10.974  0.00  0.00    +0.000 C 
ATOM      6  C   UNL     1     -17.263 101.052  12.465  0.00  0.00    +0.000 C 
ATOM      7  C   UNL     1     -15.340 100.874  10.819  0.00  0.00    +0.000 C 
ENDROOT
BRANCH   4   8
ATOM      8  O   UNL     1     -18.745 100.008  14.155  0.00  0.00    +0.000 OA
ATOM      9  H   UNL     1     -19.369 100.764  14.164  0.00  0.00    +0.000 HD
ENDBRANCH   4   8
BRANCH   2  10
ATOM     10  O   UNL     1     -19.406  98.800   9.559  0.00  0.00    +0.000 OA
BRANCH  10  29
ATOM     11  C   UNL     1     -22.729 101.693   3.146  0.00  0.00    +0.000 C 
ATOM     12  C   UNL     1     -22.010 101.141   4.407  0.00  0.00    +0.000 C 
ATOM     13  C   UNL     1     -21.665 102.234   5.450  0.00  0.00    +0.000 C 
ATOM     14  C   UNL     1     -23.935 102.626   3.454  0.00  0.00    +0.000 C 
ATOM     15  C   UNL     1     -20.938 101.667   6.737  0.00  0.00    +0.000 C 
ATOM     16  C   UNL     1     -19.737 100.757   6.316  0.00  0.00    +0.000 C 
ATOM     17  C   UNL     1     -22.922 103.070   5.768  0.00  0.00    +0.000 C 
ATOM     18  C   UNL     1     -23.538 103.685   4.511  0.00  0.00    +0.000 C 
ATOM     19  C   UNL     1     -24.194 103.263   2.051  0.00  0.00    +0.000 C 
ATOM     20  C   UNL     1     -20.754 100.341   4.031  0.00  0.00    +0.000 C 
ATOM     21  C   UNL     1     -21.841 102.539   2.215  0.00  0.00    +0.000 C 
ATOM     22  C   UNL     1     -20.122  99.706   5.259  0.00  0.00    +0.000 C 
ATOM     23  C   UNL     1     -22.780 103.507   1.486  0.00  0.00    +0.000 C 
ATOM     24  C   UNL     1     -21.907 100.865   7.650  0.00  0.00    +0.000 C 
ATOM     25  C   UNL     1     -19.073 100.051   7.516  0.00  0.00    +0.000 C 
ATOM     26  C   UNL     1     -25.170 101.844   3.945  0.00  0.00    +0.000 C 
ATOM     27  C   UNL     1     -20.384 102.875   7.543  0.00  0.00    +0.000 C 
ATOM     28  C   UNL     1     -21.215 100.178   8.827  0.00  0.00    +0.000 C 
ATOM     29  C   UNL     1     -20.069  99.273   8.381  0.00  0.00    +0.000 C 
BRANCH  19  32
ATOM     30  O   UNL     1     -26.262 106.224   1.071  0.00  0.00    +0.000 OA
ATOM     31  O   UNL     1     -27.193 106.960   3.037  0.00  0.00    +0.000 OA
ATOM     32  C   UNL     1     -25.126 104.444   1.996  0.00  0.00    +0.000 C 
ATOM     33  C   UNL     1     -25.397 105.146   0.717  0.00  0.00    +0.000 C 
ATOM     34  C   UNL     1     -25.758 105.066   2.992  0.00  0.00    +0.000 C 
ATOM     35  C   UNL     1     -26.492 106.188   2.409  0.00  0.00    +0.000 C 
ENDBRANCH  19  32
BRANCH  11  36
ATOM     36  O   UNL     1     -23.179 100.582   2.351  0.00  0.00    +0.000 OA
ATOM     37  H   UNL     1     -23.960 100.860   1.843  0.00  0.00    +0.000 HD
ENDBRANCH  11  36
ENDBRANCH  10  29
ENDBRANCH   2  10
BRANCH   6  38
ATOM     38  O   UNL     1     -17.517 102.393  12.896  0.00  0.00    +0.000 OA
BRANCH  38  40
ATOM     39  O   UNL     1     -18.440 104.251  11.746  0.00  0.00    +0.000 OA
ATOM     40  C   UNL     1     -18.686 103.143  12.601  0.00  0.00    +0.000 C 
ATOM     41  C   UNL     1     -19.539 103.540  13.802  0.00  0.00    +0.000 C 
ATOM     42  C   UNL     1     -20.264 104.865  13.589  0.00  0.00    +0.000 C 
ATOM     43  C   UNL     1     -19.655 104.693  11.108  0.00  0.00    +0.000 C 
ATOM     44  C   UNL     1     -20.724 105.130  12.141  0.00  0.00    +0.000 C 
ATOM     45  C   UNL     1     -19.271 105.851  10.189  0.00  0.00    +0.000 C 
BRANCH  42  46
ATOM     46  O   UNL     1     -21.330 105.017  14.525  0.00  0.00    +0.000 OA
ATOM     47  H   UNL     1     -21.547 105.964  14.590  0.00  0.00    +0.000 HD
ENDBRANCH  42  46
BRANCH  44  48
ATOM     48  O   UNL     1     -22.036 104.693  11.764  0.00  0.00    +0.000 OA
BRANCH  48  50
ATOM     49  O   UNL     1     -22.779 105.490   9.684  0.00  0.00    +0.000 OA
ATOM     50  C   UNL     1     -22.899 105.606  11.097  0.00  0.00    +0.000 C 
ATOM     51  C   UNL     1     -22.464 107.012  11.523  0.00  0.00    +0.000 C 
ATOM     52  C   UNL     1     -22.760 108.059  10.451  0.00  0.00    +0.000 C 
ATOM     53  C   UNL     1     -23.753 106.277   8.973  0.00  0.00    +0.000 C 
ATOM     54  C   UNL     1     -23.976 107.661   9.612  0.00  0.00    +0.000 C 
ATOM     55  C   UNL     1     -23.234 106.403   7.545  0.00  0.00    +0.000 C 
BRANCH  52  56
ATOM     56  O   UNL     1     -23.023 109.313  11.092  0.00  0.00    +0.000 OA
ATOM     57  H   UNL     1     -23.247 109.956  10.396  0.00  0.00    +0.000 HD
ENDBRANCH  52  56
BRANCH  54  58
ATOM     58  O   UNL     1     -25.121 107.600  10.480  0.00  0.00    +0.000 OA
ATOM     59  H   UNL     1     -25.043 106.751  10.963  0.00  0.00    +0.000 HD
ENDBRANCH  54  58
ENDBRANCH  48  50
ENDBRANCH  44  48
ENDBRANCH  38  40
ENDBRANCH   6  38
TORSDOF 12
ENDMDL
MODEL 8
REMARK VINA RESULT:      -6.9     22.532     27.258
REMARK  Name = 
REMARK  17 active torsions:
REMARK  status: ('A' for Active; 'I' for Inactive)
REMARK    1  A    between atoms: O_1  and  C_14
REMARK    2  A    between atoms: O_2  and  C_32
REMARK    3  A    between atoms: O_2  and  C_36
REMARK    4  A    between atoms: O_6  and  C_39
REMARK    5  A    between atoms: O_7  and  C_41
REMARK    6  A    between atoms: O_7  and  C_43
REMARK    7  A    between atoms: O_9  and  C_47
REMARK    8  A    between atoms: O_9  and  C_49
REMARK    9  A    between atoms: O_10  and  C_45
REMARK   10  A    between atoms: O_12  and  C_51
REMARK   11  A    between atoms: O_13  and  C_53
REMARK   12  A    between atoms: C_17  and  C_29
REMARK   13  A    between atoms: C_18  and  C_30
REMARK   14  A    between atoms: C_22  and  C_33
REMARK   15  A    between atoms: C_40  and  C_42
REMARK   16  A    between atoms: C_46  and  C_48
REMARK   17  A    between atoms: C_52  and  C_54
REMARK                            x       y       z     vdW  Elec       q    Type
REMARK                         _______ _______ _______ _____ _____    ______ ____
ROOT
ATOM      1  O   UNL     1     -16.143  90.790  -3.270  0.00  0.00    +0.000 OA
ATOM      2  C   UNL     1     -17.161  90.462  -2.328  0.00  0.00    +0.000 C 
ATOM      3  C   UNL     1     -17.716  91.699  -1.616  0.00  0.00    +0.000 C 
ATOM      4  C   UNL     1     -17.217  92.983  -2.261  0.00  0.00    +0.000 C 
ATOM      5  C   UNL     1     -16.625  91.622  -4.332  0.00  0.00    +0.000 C 
ATOM      6  C   UNL     1     -17.221  92.949  -3.803  0.00  0.00    +0.000 C 
ATOM      7  C   UNL     1     -15.439  91.881  -5.261  0.00  0.00    +0.000 C 
ENDROOT
BRANCH   4   8
ATOM      8  O   UNL     1     -17.867  94.128  -1.720  0.00  0.00    +0.000 OA
ATOM      9  H   UNL     1     -17.602  94.886  -2.283  0.00  0.00    +0.000 HD
ENDBRANCH   4   8
BRANCH   2  10
ATOM     10  O   UNL     1     -16.727  89.479  -1.388  0.00  0.00    +0.000 OA
BRANCH  10  29
ATOM     11  C   UNL     1     -21.378  87.984   4.669  0.00  0.00    +0.000 C 
ATOM     12  C   UNL     1     -20.401  88.290   3.500  0.00  0.00    +0.000 C 
ATOM     13  C   UNL     1     -19.413  87.133   3.201  0.00  0.00    +0.000 C 
ATOM     14  C   UNL     1     -22.089  86.605   4.563  0.00  0.00    +0.000 C 
ATOM     15  C   UNL     1     -18.423  87.446   2.006  0.00  0.00    +0.000 C 
ATOM     16  C   UNL     1     -17.754  88.844   2.217  0.00  0.00    +0.000 C 
ATOM     17  C   UNL     1     -20.191  85.812   3.030  0.00  0.00    +0.000 C 
ATOM     18  C   UNL     1     -21.059  85.493   4.248  0.00  0.00    +0.000 C 
ATOM     19  C   UNL     1     -22.690  86.461   5.998  0.00  0.00    +0.000 C 
ATOM     20  C   UNL     1     -19.637  89.601   3.737  0.00  0.00    +0.000 C 
ATOM     21  C   UNL     1     -20.726  87.954   6.063  0.00  0.00    +0.000 C 
ATOM     22  C   UNL     1     -18.771  89.954   2.539  0.00  0.00    +0.000 C 
ATOM     23  C   UNL     1     -21.588  87.020   6.921  0.00  0.00    +0.000 C 
ATOM     24  C   UNL     1     -19.141  87.412   0.628  0.00  0.00    +0.000 C 
ATOM     25  C   UNL     1     -16.888  89.279   1.017  0.00  0.00    +0.000 C 
ATOM     26  C   UNL     1     -23.199  86.598   3.493  0.00  0.00    +0.000 C 
ATOM     27  C   UNL     1     -17.311  86.359   2.011  0.00  0.00    +0.000 C 
ATOM     28  C   UNL     1     -18.256  87.851  -0.538  0.00  0.00    +0.000 C 
ATOM     29  C   UNL     1     -17.643  89.233  -0.315  0.00  0.00    +0.000 C 
BRANCH  19  32
ATOM     30  O   UNL     1     -24.242  83.514   7.703  0.00  0.00    +0.000 OA
ATOM     31  O   UNL     1     -23.884  81.757   6.268  0.00  0.00    +0.000 OA
ATOM     32  C   UNL     1     -23.232  85.111   6.381  0.00  0.00    +0.000 C 
ATOM     33  C   UNL     1     -23.934  84.906   7.674  0.00  0.00    +0.000 C 
ATOM     34  C   UNL     1     -23.130  83.947   5.738  0.00  0.00    +0.000 C 
ATOM     35  C   UNL     1     -23.781  82.933   6.565  0.00  0.00    +0.000 C 
ENDBRANCH  19  32
BRANCH  11  36
ATOM     36  O   UNL     1     -22.367  89.026   4.723  0.00  0.00    +0.000 OA
ATOM     37  H   UNL     1     -22.574  89.305   3.815  0.00  0.00    +0.000 HD
ENDBRANCH  11  36
ENDBRANCH  10  29
ENDBRANCH   2  10
BRANCH   6  38
ATOM     38  O   UNL     1     -18.384  93.350  -4.533  0.00  0.00    +0.000 OA
BRANCH  38  40
ATOM     39  O   UNL     1     -19.509  91.970  -6.102  0.00  0.00    +0.000 OA
ATOM     40  C   UNL     1     -19.513  92.529  -4.796  0.00  0.00    +0.000 C 
ATOM     41  C   UNL     1     -20.869  93.136  -4.450  0.00  0.00    +0.000 C 
ATOM     42  C   UNL     1     -21.982  92.638  -5.368  0.00  0.00    +0.000 C 
ATOM     43  C   UNL     1     -20.372  90.819  -6.177  0.00  0.00    +0.000 C 
ATOM     44  C   UNL     1     -21.840  91.173  -5.827  0.00  0.00    +0.000 C 
ATOM     45  C   UNL     1     -20.261  90.279  -7.601  0.00  0.00    +0.000 C 
BRANCH  42  46
ATOM     46  O   UNL     1     -23.264  92.900  -4.800  0.00  0.00    +0.000 OA
ATOM     47  H   UNL     1     -23.144  93.103  -3.856  0.00  0.00    +0.000 HD
ENDBRANCH  42  46
BRANCH  44  48
ATOM     48  O   UNL     1     -22.454  90.157  -5.024  0.00  0.00    +0.000 OA
BRANCH  48  50
ATOM     49  O   UNL     1     -24.705  89.788  -4.468  0.00  0.00    +0.000 OA
ATOM     50  C   UNL     1     -23.692  89.601  -5.449  0.00  0.00    +0.000 C 
ATOM     51  C   UNL     1     -23.455  88.100  -5.645  0.00  0.00    +0.000 C 
ATOM     52  C   UNL     1     -24.722  87.279  -5.413  0.00  0.00    +0.000 C 
ATOM     53  C   UNL     1     -26.010  89.388  -4.926  0.00  0.00    +0.000 C 
ATOM     54  C   UNL     1     -25.975  88.089  -5.753  0.00  0.00    +0.000 C 
ATOM     55  C   UNL     1     -26.867  89.226  -3.676  0.00  0.00    +0.000 C 
BRANCH  52  56
ATOM     56  O   UNL     1     -24.675  86.114  -6.246  0.00  0.00    +0.000 OA
ATOM     57  H   UNL     1     -24.486  86.411  -7.155  0.00  0.00    +0.000 HD
ENDBRANCH  52  56
BRANCH  54  58
ATOM     58  O   UNL     1     -25.929  88.421  -7.152  0.00  0.00    +0.000 OA
ATOM     59  H   UNL     1     -25.104  88.019  -7.493  0.00  0.00    +0.000 HD
ENDBRANCH  54  58
ENDBRANCH  48  50
ENDBRANCH  44  48
ENDBRANCH  38  40
ENDBRANCH   6  38
TORSDOF 12
ENDMDL
MODEL 9
REMARK VINA RESULT:      -6.6      5.508     12.682
REMARK  Name = 
REMARK  17 active torsions:
REMARK  status: ('A' for Active; 'I' for Inactive)
REMARK    1  A    between atoms: O_1  and  C_14
REMARK    2  A    between atoms: O_2  and  C_32
REMARK    3  A    between atoms: O_2  and  C_36
REMARK    4  A    between atoms: O_6  and  C_39
REMARK    5  A    between atoms: O_7  and  C_41
REMARK    6  A    between atoms: O_7  and  C_43
REMARK    7  A    between atoms: O_9  and  C_47
REMARK    8  A    between atoms: O_9  and  C_49
REMARK    9  A    between atoms: O_10  and  C_45
REMARK   10  A    between atoms: O_12  and  C_51
REMARK   11  A    between atoms: O_13  and  C_53
REMARK   12  A    between atoms: C_17  and  C_29
REMARK   13  A    between atoms: C_18  and  C_30
REMARK   14  A    between atoms: C_22  and  C_33
REMARK   15  A    between atoms: C_40  and  C_42
REMARK   16  A    between atoms: C_46  and  C_48
REMARK   17  A    between atoms: C_52  and  C_54
REMARK                            x       y       z     vdW  Elec       q    Type
REMARK                         _______ _______ _______ _____ _____    ______ ____
ROOT
ATOM      1  O   UNL     1     -27.466 106.822  22.970  0.00  0.00    +0.000 OA
ATOM      2  C   UNL     1     -27.187 106.028  21.819  0.00  0.00    +0.000 C 
ATOM      3  C   UNL     1     -25.685 105.857  21.581  0.00  0.00    +0.000 C 
ATOM      4  C   UNL     1     -24.872 106.369  22.760  0.00  0.00    +0.000 C 
ATOM      5  C   UNL     1     -26.983 106.224  24.179  0.00  0.00    +0.000 C 
ATOM      6  C   UNL     1     -25.455 105.982  24.134  0.00  0.00    +0.000 C 
ATOM      7  C   UNL     1     -27.359 107.170  25.318  0.00  0.00    +0.000 C 
ENDROOT
BRANCH   4   8
ATOM      8  O   UNL     1     -23.491 106.051  22.623  0.00  0.00    +0.000 OA
ATOM      9  H   UNL     1     -23.313 106.007  21.659  0.00  0.00    +0.000 HD
ENDBRANCH   4   8
BRANCH   2  10
ATOM     10  O   UNL     1     -27.840 106.527  20.651  0.00  0.00    +0.000 OA
BRANCH  10  29
ATOM     11  C   UNL     1     -30.928 101.335  15.747  0.00  0.00    +0.000 C 
ATOM     12  C   UNL     1     -30.284 102.400  16.676  0.00  0.00    +0.000 C 
ATOM     13  C   UNL     1     -30.951 103.796  16.571  0.00  0.00    +0.000 C 
ATOM     14  C   UNL     1     -32.479 101.264  15.835  0.00  0.00    +0.000 C 
ATOM     15  C   UNL     1     -30.295 104.877  17.524  0.00  0.00    +0.000 C 
ATOM     16  C   UNL     1     -28.741 104.876  17.347  0.00  0.00    +0.000 C 
ATOM     17  C   UNL     1     -32.478 103.661  16.746  0.00  0.00    +0.000 C 
ATOM     18  C   UNL     1     -33.088 102.684  15.741  0.00  0.00    +0.000 C 
ATOM     19  C   UNL     1     -32.815 100.395  14.581  0.00  0.00    +0.000 C 
ATOM     20  C   UNL     1     -28.770 102.508  16.440  0.00  0.00    +0.000 C 
ATOM     21  C   UNL     1     -30.655 101.539  14.246  0.00  0.00    +0.000 C 
ATOM     22  C   UNL     1     -28.129 103.466  17.431  0.00  0.00    +0.000 C 
ATOM     23  C   UNL     1     -31.835 100.901  13.503  0.00  0.00    +0.000 C 
ATOM     24  C   UNL     1     -30.652 104.634  19.017  0.00  0.00    +0.000 C 
ATOM     25  C   UNL     1     -28.025 105.802  18.351  0.00  0.00    +0.000 C 
ATOM     26  C   UNL     1     -32.962 100.580  17.130  0.00  0.00    +0.000 C 
ATOM     27  C   UNL     1     -30.839 106.273  17.106  0.00  0.00    +0.000 C 
ATOM     28  C   UNL     1     -29.923 105.567  19.984  0.00  0.00    +0.000 C 
ATOM     29  C   UNL     1     -28.407 105.519  19.807  0.00  0.00    +0.000 C 
BRANCH  19  32
ATOM     30  O   UNL     1     -36.412  99.508  14.047  0.00  0.00    +0.000 OA
ATOM     31  O   UNL     1     -37.152 101.003  12.468  0.00  0.00    +0.000 OA
ATOM     32  C   UNL     1     -34.260 100.327  14.162  0.00  0.00    +0.000 C 
ATOM     33  C   UNL     1     -35.169  99.291  14.713  0.00  0.00    +0.000 C 
ATOM     34  C   UNL     1     -34.910 101.057  13.254  0.00  0.00    +0.000 C 
ATOM     35  C   UNL     1     -36.279 100.551  13.187  0.00  0.00    +0.000 C 
ENDBRANCH  19  32
BRANCH  11  36
ATOM     36  O   UNL     1     -30.373 100.049  16.072  0.00  0.00    +0.000 OA
ATOM     37  H   UNL     1     -31.062  99.374  15.945  0.00  0.00    +0.000 HD
ENDBRANCH  11  36
ENDBRANCH  10  29
ENDBRANCH   2  10
BRANCH   6  38
ATOM     38  O   UNL     1     -25.083 104.748  24.756  0.00  0.00    +0.000 OA
BRANCH  38  40
ATOM     39  O   UNL     1     -26.832 103.674  25.948  0.00  0.00    +0.000 OA
ATOM     40  C   UNL     1     -25.912 103.601  24.867  0.00  0.00    +0.000 C 
ATOM     41  C   UNL     1     -25.190 102.257  24.835  0.00  0.00    +0.000 C 
ATOM     42  C   UNL     1     -25.905 101.192  25.663  0.00  0.00    +0.000 C 
ATOM     43  C   UNL     1     -27.928 102.759  25.759  0.00  0.00    +0.000 C 
ATOM     44  C   UNL     1     -27.444 101.290  25.659  0.00  0.00    +0.000 C 
ATOM     45  C   UNL     1     -28.868 102.949  26.947  0.00  0.00    +0.000 C 
BRANCH  42  46
ATOM     46  O   UNL     1     -25.450  99.886  25.312  0.00  0.00    +0.000 OA
ATOM     47  H   UNL     1     -24.515  99.810  25.569  0.00  0.00    +0.000 HD
ENDBRANCH  42  46
BRANCH  44  48
ATOM     48  O   UNL     1     -28.159 100.563  24.653  0.00  0.00    +0.000 OA
BRANCH  48  50
ATOM     49  O   UNL     1     -29.707 101.391  23.094  0.00  0.00    +0.000 OA
ATOM     50  C   UNL     1     -28.332 101.154  23.371  0.00  0.00    +0.000 C 
ATOM     51  C   UNL     1     -27.780 100.155  22.348  0.00  0.00    +0.000 C 
ATOM     52  C   UNL     1     -28.475 100.271  20.993  0.00  0.00    +0.000 C 
ATOM     53  C   UNL     1     -29.914 102.137  21.880  0.00  0.00    +0.000 C 
ATOM     54  C   UNL     1     -28.970 101.697  20.746  0.00  0.00    +0.000 C 
ATOM     55  C   UNL     1     -31.375 101.927  21.498  0.00  0.00    +0.000 C 
BRANCH  52  56
ATOM     56  O   UNL     1     -27.543  99.913  19.965  0.00  0.00    +0.000 OA
ATOM     57  H   UNL     1     -26.650  99.955  20.352  0.00  0.00    +0.000 HD
ENDBRANCH  52  56
BRANCH  54  58
ATOM     58  O   UNL     1     -27.827 102.571  20.719  0.00  0.00    +0.000 OA
ATOM     59  H   UNL     1     -27.647 102.802  21.653  0.00  0.00    +0.000 HD
ENDBRANCH  54  58
ENDBRANCH  48  50
ENDBRANCH  44  48
ENDBRANCH  38  40
ENDBRANCH   6  38
TORSDOF 12
ENDMDL
