MODEL 1
REMARK VINA RESULT:      -8.0      0.000      0.000
REMARK  Name = Cdk12_Inhibitor.pdbqt.pdb
REMARK  6 active torsions:
REMARK  status: ('A' for Active; 'I' for Inactive)
REMARK    1  A    between atoms: N_1  and  C_23
REMARK    2  A    between atoms: N_9  and  C_11
REMARK    3  A    between atoms: C_14  and  S_17
REMARK    4  A    between atoms: S_17  and  N_20
REMARK    5  A    between atoms: C_23  and  N_25
REMARK    6  A    between atoms: N_25  and  C_27
REMARK                            x       y       z     vdW  Elec       q    Type
REMARK                         _______ _______ _______ _____ _____    ______ ____
ROOT
ATOM      1  N   UNL     1     -34.956  97.969  17.436  0.00  0.00    +0.000 N 
ATOM      2  N   UNL     1     -33.749  98.554  17.216  0.00  0.00    +0.000 NA
ATOM      3  N   UNL     1     -33.462  96.358  17.704  0.00  0.00    +0.000 NA
ATOM      4  N   UNL     1     -35.698  95.763  18.189  0.00  0.00    +0.000 N 
ATOM      5  C   UNL     1     -32.893  97.547  17.354  0.00  0.00    +0.000 A 
ATOM      6  C   UNL     1     -34.736  96.637  17.797  0.00  0.00    +0.000 A 
ATOM      7  H   UNL     1     -36.355  96.098  18.895  0.00  0.00    +0.000 HD
ATOM      8  H   UNL     1     -35.310  94.871  18.497  0.00  0.00    +0.000 HD
ATOM      9  N   UNL     1     -31.556  97.550  17.208  0.00  0.00    +0.000 N 
ATOM     10  H   UNL     1     -31.101  96.659  17.361  0.00  0.00    +0.000 HD
ENDROOT
BRANCH   9  11
ATOM     11  C   UNL     1     -30.683  98.592  16.850  0.00  0.00    +0.000 A 
ATOM     12  C   UNL     1     -30.071  99.345  17.861  0.00  0.00    +0.000 A 
ATOM     13  C   UNL     1     -29.210 100.396  17.558  0.00  0.00    +0.000 A 
ATOM     14  C   UNL     1     -28.972 100.709  16.227  0.00  0.00    +0.000 A 
ATOM     15  C   UNL     1     -29.546  99.972  15.198  0.00  0.00    +0.000 A 
ATOM     16  C   UNL     1     -30.406  98.925  15.519  0.00  0.00    +0.000 A 
BRANCH  14  17
ATOM     17  S   UNL     1     -27.845 101.985  15.833  0.00  0.00    +0.000 S 
ATOM     18  O   UNL     1     -28.404 103.256  16.232  0.00  0.00    +0.000 OA
ATOM     19  O   UNL     1     -26.512 101.581  16.210  0.00  0.00    +0.000 OA
BRANCH  17  20
ATOM     20  N   UNL     1     -27.876 101.985  14.154  0.00  0.00    +0.000 NA
ATOM     21  H   UNL     1     -26.923 101.944  13.792  0.00  0.00    +0.000 HD
ATOM     22  H   UNL     1     -28.476 101.229  13.822  0.00  0.00    +0.000 HD
ENDBRANCH  17  20
ENDBRANCH  14  17
ENDBRANCH   9  11
BRANCH   1  23
ATOM     23  C   UNL     1     -36.164  98.707  17.268  0.00  0.00    +0.000 C 
ATOM     24  S   UNL     1     -36.666  99.973  18.264  0.00  0.00    +0.000 S 
BRANCH  23  25
ATOM     25  N   UNL     1     -36.795  98.309  16.083  0.00  0.00    +0.000 N 
ATOM     26  H   UNL     1     -36.988  97.305  15.994  0.00  0.00    +0.000 HD
BRANCH  25  27
ATOM     27  C   UNL     1     -36.988  99.028  14.874  0.00  0.00    +0.000 A 
ATOM     28  C   UNL     1     -38.272  99.528  14.627  0.00  0.00    +0.000 A 
ATOM     29  F   UNL     1     -39.249  99.298  15.519  0.00  0.00    +0.000 F 
ATOM     30  C   UNL     1     -38.570 100.254  13.476  0.00  0.00    +0.000 A 
ATOM     31  C   UNL     1     -37.563 100.513  12.553  0.00  0.00    +0.000 A 
ATOM     32  C   UNL     1     -36.263 100.085  12.807  0.00  0.00    +0.000 A 
ATOM     33  C   UNL     1     -35.981  99.356  13.963  0.00  0.00    +0.000 A 
ATOM     34  F   UNL     1     -34.692  99.125  14.248  0.00  0.00    +0.000 F 
ENDBRANCH  25  27
ENDBRANCH  23  25
ENDBRANCH   1  23
TORSDOF 6
ENDMDL
MODEL 2
REMARK VINA RESULT:      -6.3     11.488     13.150
REMARK  Name = Cdk12_Inhibitor.pdbqt.pdb
REMARK  6 active torsions:
REMARK  status: ('A' for Active; 'I' for Inactive)
REMARK    1  A    between atoms: N_1  and  C_23
REMARK    2  A    between atoms: N_9  and  C_11
REMARK    3  A    between atoms: C_14  and  S_17
REMARK    4  A    between atoms: S_17  and  N_20
REMARK    5  A    between atoms: C_23  and  N_25
REMARK    6  A    between atoms: N_25  and  C_27
REMARK                            x       y       z     vdW  Elec       q    Type
REMARK                         _______ _______ _______ _____ _____    ______ ____
ROOT
ATOM      1  N   UNL     1     -29.826  89.269  17.747  0.00  0.00    +0.000 N 
ATOM      2  N   UNL     1     -29.236  88.599  16.723  0.00  0.00    +0.000 NA
ATOM      3  N   UNL     1     -29.305  90.817  16.253  0.00  0.00    +0.000 NA
ATOM      4  N   UNL     1     -30.530  91.581  18.124  0.00  0.00    +0.000 N 
ATOM      5  C   UNL     1     -28.912  89.568  15.871  0.00  0.00    +0.000 A 
ATOM      6  C   UNL     1     -29.911  90.619  17.395  0.00  0.00    +0.000 A 
ATOM      7  H   UNL     1     -31.469  91.362  18.461  0.00  0.00    +0.000 HD
ATOM      8  H   UNL     1     -30.555  92.480  17.641  0.00  0.00    +0.000 HD
ATOM      9  N   UNL     1     -28.269  89.477  14.695  0.00  0.00    +0.000 N 
ATOM     10  H   UNL     1     -28.126  90.353  14.208  0.00  0.00    +0.000 HD
ENDROOT
BRANCH   9  11
ATOM     11  C   UNL     1     -27.735  88.356  14.035  0.00  0.00    +0.000 A 
ATOM     12  C   UNL     1     -28.574  87.579  13.225  0.00  0.00    +0.000 A 
ATOM     13  C   UNL     1     -28.096  86.451  12.562  0.00  0.00    +0.000 A 
ATOM     14  C   UNL     1     -26.766  86.087  12.726  0.00  0.00    +0.000 A 
ATOM     15  C   UNL     1     -25.901  86.845  13.505  0.00  0.00    +0.000 A 
ATOM     16  C   UNL     1     -26.395  87.968  14.162  0.00  0.00    +0.000 A 
BRANCH  14  17
ATOM     17  S   UNL     1     -26.139  84.711  11.850  0.00  0.00    +0.000 S 
ATOM     18  O   UNL     1     -24.796  85.001  11.405  0.00  0.00    +0.000 OA
ATOM     19  O   UNL     1     -26.468  83.500  12.560  0.00  0.00    +0.000 OA
BRANCH  17  20
ATOM     20  N   UNL     1     -27.085  84.710  10.461  0.00  0.00    +0.000 NA
ATOM     21  H   UNL     1     -27.775  85.459  10.514  0.00  0.00    +0.000 HD
ATOM     22  H   UNL     1     -26.484  84.760   9.638  0.00  0.00    +0.000 HD
ENDBRANCH  17  20
ENDBRANCH  14  17
ENDBRANCH   9  11
BRANCH   1  23
ATOM     23  C   UNL     1     -30.224  88.583  18.932  0.00  0.00    +0.000 C 
ATOM     24  S   UNL     1     -29.742  89.002  20.493  0.00  0.00    +0.000 S 
BRANCH  23  25
ATOM     25  N   UNL     1     -31.172  87.605  18.610  0.00  0.00    +0.000 N 
ATOM     26  H   UNL     1     -30.805  86.754  18.170  0.00  0.00    +0.000 HD
BRANCH  25  27
ATOM     27  C   UNL     1     -32.589  87.696  18.566  0.00  0.00    +0.000 A 
ATOM     28  C   UNL     1     -33.292  87.277  19.702  0.00  0.00    +0.000 A 
ATOM     29  F   UNL     1     -32.610  86.803  20.757  0.00  0.00    +0.000 F 
ATOM     30  C   UNL     1     -34.681  87.331  19.768  0.00  0.00    +0.000 A 
ATOM     31  C   UNL     1     -35.396  87.835  18.687  0.00  0.00    +0.000 A 
ATOM     32  C   UNL     1     -34.719  88.320  17.573  0.00  0.00    +0.000 A 
ATOM     33  C   UNL     1     -33.326  88.256  17.520  0.00  0.00    +0.000 A 
ATOM     34  F   UNL     1     -32.715  88.896  16.512  0.00  0.00    +0.000 F 
ENDBRANCH  25  27
ENDBRANCH  23  25
ENDBRANCH   1  23
TORSDOF 6
ENDMDL
MODEL 3
REMARK VINA RESULT:      -6.2     15.109     17.662
REMARK  Name = Cdk12_Inhibitor.pdbqt.pdb
REMARK  6 active torsions:
REMARK  status: ('A' for Active; 'I' for Inactive)
REMARK    1  A    between atoms: N_1  and  C_23
REMARK    2  A    between atoms: N_9  and  C_11
REMARK    3  A    between atoms: C_14  and  S_17
REMARK    4  A    between atoms: S_17  and  N_20
REMARK    5  A    between atoms: C_23  and  N_25
REMARK    6  A    between atoms: N_25  and  C_27
REMARK                            x       y       z     vdW  Elec       q    Type
REMARK                         _______ _______ _______ _____ _____    ______ ____
ROOT
ATOM      1  N   UNL     1     -23.190 100.640   5.337  0.00  0.00    +0.000 N 
ATOM      2  N   UNL     1     -22.148  99.947   4.808  0.00  0.00    +0.000 NA
ATOM      3  N   UNL     1     -21.987  99.972   7.070  0.00  0.00    +0.000 NA
ATOM      4  N   UNL     1     -23.811 101.384   7.583  0.00  0.00    +0.000 N 
ATOM      5  C   UNL     1     -21.477  99.539   5.881  0.00  0.00    +0.000 A 
ATOM      6  C   UNL     1     -23.023 100.691   6.724  0.00  0.00    +0.000 A 
ATOM      7  H   UNL     1     -24.017 102.352   7.331  0.00  0.00    +0.000 HD
ATOM      8  H   UNL     1     -23.458 101.362   8.540  0.00  0.00    +0.000 HD
ATOM      9  N   UNL     1     -20.371  98.779   5.947  0.00  0.00    +0.000 N 
ATOM     10  H   UNL     1     -20.028  98.589   6.880  0.00  0.00    +0.000 HD
ENDROOT
BRANCH   9  11
ATOM     11  C   UNL     1     -19.620  98.178   4.921  0.00  0.00    +0.000 A 
ATOM     12  C   UNL     1     -19.044  98.989   3.934  0.00  0.00    +0.000 A 
ATOM     13  C   UNL     1     -18.304  98.441   2.890  0.00  0.00    +0.000 A 
ATOM     14  C   UNL     1     -18.151  97.062   2.824  0.00  0.00    +0.000 A 
ATOM     15  C   UNL     1     -18.691  96.229   3.796  0.00  0.00    +0.000 A 
ATOM     16  C   UNL     1     -19.430  96.794   4.832  0.00  0.00    +0.000 A 
BRANCH  14  17
ATOM     17  S   UNL     1     -17.172  96.367   1.555  0.00  0.00    +0.000 S 
ATOM     18  O   UNL     1     -17.148  97.265   0.424  0.00  0.00    +0.000 OA
ATOM     19  O   UNL     1     -15.965  95.819   2.126  0.00  0.00    +0.000 OA
BRANCH  17  20
ATOM     20  N   UNL     1     -18.096  95.051   1.068  0.00  0.00    +0.000 NA
ATOM     21  H   UNL     1     -19.006  95.082   1.528  0.00  0.00    +0.000 HD
ATOM     22  H   UNL     1     -18.149  95.028   0.049  0.00  0.00    +0.000 HD
ENDBRANCH  17  20
ENDBRANCH  14  17
ENDBRANCH   9  11
BRANCH   1  23
ATOM     23  C   UNL     1     -24.222 101.156   4.499  0.00  0.00    +0.000 C 
ATOM     24  S   UNL     1     -25.729 100.433   4.272  0.00  0.00    +0.000 S 
BRANCH  23  25
ATOM     25  N   UNL     1     -23.842 102.410   4.007  0.00  0.00    +0.000 N 
ATOM     26  H   UNL     1     -23.497 103.079   4.704  0.00  0.00    +0.000 HD
BRANCH  25  27
ATOM     27  C   UNL     1     -24.087 102.998   2.737  0.00  0.00    +0.000 A 
ATOM     28  C   UNL     1     -23.534 102.359   1.621  0.00  0.00    +0.000 A 
ATOM     29  F   UNL     1     -22.798 101.250   1.797  0.00  0.00    +0.000 F 
ATOM     30  C   UNL     1     -23.718 102.845   0.329  0.00  0.00    +0.000 A 
ATOM     31  C   UNL     1     -24.492 103.984   0.133  0.00  0.00    +0.000 A 
ATOM     32  C   UNL     1     -25.108 104.599   1.218  0.00  0.00    +0.000 A 
ATOM     33  C   UNL     1     -24.911 104.102   2.507  0.00  0.00    +0.000 A 
ATOM     34  F   UNL     1     -25.665 104.616   3.490  0.00  0.00    +0.000 F 
ENDBRANCH  25  27
ENDBRANCH  23  25
ENDBRANCH   1  23
TORSDOF 6
ENDMDL
MODEL 4
REMARK VINA RESULT:      -6.0      2.829      4.677
REMARK  Name = Cdk12_Inhibitor.pdbqt.pdb
REMARK  6 active torsions:
REMARK  status: ('A' for Active; 'I' for Inactive)
REMARK    1  A    between atoms: N_1  and  C_23
REMARK    2  A    between atoms: N_9  and  C_11
REMARK    3  A    between atoms: C_14  and  S_17
REMARK    4  A    between atoms: S_17  and  N_20
REMARK    5  A    between atoms: C_23  and  N_25
REMARK    6  A    between atoms: N_25  and  C_27
REMARK                            x       y       z     vdW  Elec       q    Type
REMARK                         _______ _______ _______ _____ _____    ______ ____
ROOT
ATOM      1  N   UNL     1     -36.672 100.973  14.578  0.00  0.00    +0.000 N 
ATOM      2  N   UNL     1     -35.343 100.967  14.860  0.00  0.00    +0.000 NA
ATOM      3  N   UNL     1     -35.653 101.088  12.616  0.00  0.00    +0.000 NA
ATOM      4  N   UNL     1     -38.007 100.888  12.529  0.00  0.00    +0.000 N 
ATOM      5  C   UNL     1     -34.777 101.073  13.661  0.00  0.00    +0.000 A 
ATOM      6  C   UNL     1     -36.824 100.981  13.188  0.00  0.00    +0.000 A 
ATOM      7  H   UNL     1     -38.640 100.148  12.835  0.00  0.00    +0.000 HD
ATOM      8  H   UNL     1     -37.884 100.820  11.518  0.00  0.00    +0.000 HD
ATOM      9  N   UNL     1     -33.472 101.150  13.348  0.00  0.00    +0.000 N 
ATOM     10  H   UNL     1     -33.265 101.227  12.361  0.00  0.00    +0.000 HD
ENDROOT
BRANCH   9  11
ATOM     11  C   UNL     1     -32.338 101.168  14.179  0.00  0.00    +0.000 A 
ATOM     12  C   UNL     1     -31.532 100.024  14.256  0.00  0.00    +0.000 A 
ATOM     13  C   UNL     1     -30.406  99.986  15.075  0.00  0.00    +0.000 A 
ATOM     14  C   UNL     1     -30.093 101.102  15.840  0.00  0.00    +0.000 A 
ATOM     15  C   UNL     1     -30.858 102.260  15.774  0.00  0.00    +0.000 A 
ATOM     16  C   UNL     1     -31.981 102.279  14.952  0.00  0.00    +0.000 A 
BRANCH  14  17
ATOM     17  S   UNL     1     -28.648 101.090  16.822  0.00  0.00    +0.000 S 
ATOM     18  O   UNL     1     -28.658  99.921  17.671  0.00  0.00    +0.000 OA
ATOM     19  O   UNL     1     -27.510 101.437  16.007  0.00  0.00    +0.000 OA
BRANCH  17  20
ATOM     20  N   UNL     1     -28.902 102.395  17.849  0.00  0.00    +0.000 NA
ATOM     21  H   UNL     1     -29.860 102.376  18.199  0.00  0.00    +0.000 HD
ATOM     22  H   UNL     1     -28.195 102.396  18.585  0.00  0.00    +0.000 HD
ENDBRANCH  17  20
ENDBRANCH  14  17
ENDBRANCH   9  11
BRANCH   1  23
ATOM     23  C   UNL     1     -37.639 100.987  15.626  0.00  0.00    +0.000 C 
ATOM     24  S   UNL     1     -38.307 102.381  16.300  0.00  0.00    +0.000 S 
BRANCH  23  25
ATOM     25  N   UNL     1     -38.040  99.676  15.909  0.00  0.00    +0.000 N 
ATOM     26  H   UNL     1     -38.782  99.296  15.312  0.00  0.00    +0.000 HD
BRANCH  25  27
ATOM     27  C   UNL     1     -37.765  98.870  17.046  0.00  0.00    +0.000 A 
ATOM     28  C   UNL     1     -36.590  98.110  17.020  0.00  0.00    +0.000 A 
ATOM     29  F   UNL     1     -35.798  98.163  15.937  0.00  0.00    +0.000 F 
ATOM     30  C   UNL     1     -36.221  97.291  18.084  0.00  0.00    +0.000 A 
ATOM     31  C   UNL     1     -37.025  97.241  19.218  0.00  0.00    +0.000 A 
ATOM     32  C   UNL     1     -38.163  98.037  19.296  0.00  0.00    +0.000 A 
ATOM     33  C   UNL     1     -38.522  98.850  18.220  0.00  0.00    +0.000 A 
ATOM     34  F   UNL     1     -39.517  99.727  18.413  0.00  0.00    +0.000 F 
ENDBRANCH  25  27
ENDBRANCH  23  25
ENDBRANCH   1  23
TORSDOF 6
ENDMDL
MODEL 5
REMARK VINA RESULT:      -6.0     14.122     16.046
REMARK  Name = Cdk12_Inhibitor.pdbqt.pdb
REMARK  6 active torsions:
REMARK  status: ('A' for Active; 'I' for Inactive)
REMARK    1  A    between atoms: N_1  and  C_23
REMARK    2  A    between atoms: N_9  and  C_11
REMARK    3  A    between atoms: C_14  and  S_17
REMARK    4  A    between atoms: S_17  and  N_20
REMARK    5  A    between atoms: C_23  and  N_25
REMARK    6  A    between atoms: N_25  and  C_27
REMARK                            x       y       z     vdW  Elec       q    Type
REMARK                         _______ _______ _______ _____ _____    ______ ____
ROOT
ATOM      1  N   UNL     1     -28.563  85.331  15.815  0.00  0.00    +0.000 N 
ATOM      2  N   UNL     1     -29.907  85.213  15.975  0.00  0.00    +0.000 NA
ATOM      3  N   UNL     1     -29.128  86.920  17.249  0.00  0.00    +0.000 NA
ATOM      4  N   UNL     1     -26.809  86.686  16.852  0.00  0.00    +0.000 N 
ATOM      5  C   UNL     1     -30.202  86.203  16.812  0.00  0.00    +0.000 A 
ATOM      6  C   UNL     1     -28.109  86.347  16.662  0.00  0.00    +0.000 A 
ATOM      7  H   UNL     1     -26.161  85.918  17.030  0.00  0.00    +0.000 HD
ATOM      8  H   UNL     1     -26.694  87.390  17.581  0.00  0.00    +0.000 HD
ATOM      9  N   UNL     1     -31.403  86.576  17.288  0.00  0.00    +0.000 N 
ATOM     10  H   UNL     1     -31.394  87.367  17.919  0.00  0.00    +0.000 HD
ENDROOT
BRANCH   9  11
ATOM     11  C   UNL     1     -32.684  86.056  17.030  0.00  0.00    +0.000 A 
ATOM     12  C   UNL     1     -32.816  84.979  16.143  0.00  0.00    +0.000 A 
ATOM     13  C   UNL     1     -34.064  84.439  15.844  0.00  0.00    +0.000 A 
ATOM     14  C   UNL     1     -35.195  84.994  16.426  0.00  0.00    +0.000 A 
ATOM     15  C   UNL     1     -35.100  86.050  17.325  0.00  0.00    +0.000 A 
ATOM     16  C   UNL     1     -33.845  86.579  17.611  0.00  0.00    +0.000 A 
BRANCH  14  17
ATOM     17  S   UNL     1     -36.760  84.285  16.108  0.00  0.00    +0.000 S 
ATOM     18  O   UNL     1     -37.007  84.293  14.685  0.00  0.00    +0.000 OA
ATOM     19  O   UNL     1     -36.919  83.095  16.907  0.00  0.00    +0.000 OA
BRANCH  17  20
ATOM     20  N   UNL     1     -37.809  85.426  16.756  0.00  0.00    +0.000 NA
ATOM     21  H   UNL     1     -38.526  85.662  16.070  0.00  0.00    +0.000 HD
ATOM     22  H   UNL     1     -38.183  85.084  17.642  0.00  0.00    +0.000 HD
ENDBRANCH  17  20
ENDBRANCH  14  17
ENDBRANCH   9  11
BRANCH   1  23
ATOM     23  C   UNL     1     -27.864  84.505  14.887  0.00  0.00    +0.000 C 
ATOM     24  S   UNL     1     -27.655  82.839  15.049  0.00  0.00    +0.000 S 
BRANCH  23  25
ATOM     25  N   UNL     1     -27.501  85.263  13.767  0.00  0.00    +0.000 N 
ATOM     26  H   UNL     1     -26.737  85.932  13.908  0.00  0.00    +0.000 HD
BRANCH  25  27
ATOM     27  C   UNL     1     -28.180  85.436  12.532  0.00  0.00    +0.000 A 
ATOM     28  C   UNL     1     -28.966  86.586  12.391  0.00  0.00    +0.000 A 
ATOM     29  F   UNL     1     -29.053  87.450  13.415  0.00  0.00    +0.000 F 
ATOM     30  C   UNL     1     -29.668  86.858  11.220  0.00  0.00    +0.000 A 
ATOM     31  C   UNL     1     -29.572  85.979  10.147  0.00  0.00    +0.000 A 
ATOM     32  C   UNL     1     -28.745  84.864  10.237  0.00  0.00    +0.000 A 
ATOM     33  C   UNL     1     -28.050  84.603  11.418  0.00  0.00    +0.000 A 
ATOM     34  F   UNL     1     -27.134  83.624  11.393  0.00  0.00    +0.000 F 
ENDBRANCH  25  27
ENDBRANCH  23  25
ENDBRANCH   1  23
TORSDOF 6
ENDMDL
MODEL 6
REMARK VINA RESULT:      -5.9     11.913     13.560
REMARK  Name = Cdk12_Inhibitor.pdbqt.pdb
REMARK  6 active torsions:
REMARK  status: ('A' for Active; 'I' for Inactive)
REMARK    1  A    between atoms: N_1  and  C_23
REMARK    2  A    between atoms: N_9  and  C_11
REMARK    3  A    between atoms: C_14  and  S_17
REMARK    4  A    between atoms: S_17  and  N_20
REMARK    5  A    between atoms: C_23  and  N_25
REMARK    6  A    between atoms: N_25  and  C_27
REMARK                            x       y       z     vdW  Elec       q    Type
REMARK                         _______ _______ _______ _____ _____    ______ ____
ROOT
ATOM      1  N   UNL     1     -29.723  89.006  17.337  0.00  0.00    +0.000 N 
ATOM      2  N   UNL     1     -29.272  88.283  16.279  0.00  0.00    +0.000 NA
ATOM      3  N   UNL     1     -28.940  90.494  15.897  0.00  0.00    +0.000 NA
ATOM      4  N   UNL     1     -29.992  91.391  17.815  0.00  0.00    +0.000 N 
ATOM      5  C   UNL     1     -28.784  89.211  15.462  0.00  0.00    +0.000 A 
ATOM      6  C   UNL     1     -29.563  90.363  17.040  0.00  0.00    +0.000 A 
ATOM      7  H   UNL     1     -30.952  91.332  18.157  0.00  0.00    +0.000 HD
ATOM      8  H   UNL     1     -29.856  92.298  17.367  0.00  0.00    +0.000 HD
ATOM      9  N   UNL     1     -28.178  89.053  14.273  0.00  0.00    +0.000 N 
ATOM     10  H   UNL     1     -27.881  89.908  13.819  0.00  0.00    +0.000 HD
ENDROOT
BRANCH   9  11
ATOM     11  C   UNL     1     -27.862  87.882  13.562  0.00  0.00    +0.000 A 
ATOM     12  C   UNL     1     -26.528  87.454  13.513  0.00  0.00    +0.000 A 
ATOM     13  C   UNL     1     -26.162  86.309  12.810  0.00  0.00    +0.000 A 
ATOM     14  C   UNL     1     -27.140  85.592  12.135  0.00  0.00    +0.000 A 
ATOM     15  C   UNL     1     -28.475  85.975  12.178  0.00  0.00    +0.000 A 
ATOM     16  C   UNL     1     -28.823  87.124  12.883  0.00  0.00    +0.000 A 
BRANCH  14  17
ATOM     17  S   UNL     1     -26.704  84.119  11.303  0.00  0.00    +0.000 S 
ATOM     18  O   UNL     1     -27.782  83.165  11.426  0.00  0.00    +0.000 OA
ATOM     19  O   UNL     1     -26.109  84.444  10.030  0.00  0.00    +0.000 OA
BRANCH  17  20
ATOM     20  N   UNL     1     -25.460  83.521  12.261  0.00  0.00    +0.000 NA
ATOM     21  H   UNL     1     -25.458  84.002  13.160  0.00  0.00    +0.000 HD
ATOM     22  H   UNL     1     -25.543  82.506  12.336  0.00  0.00    +0.000 HD
ENDBRANCH  17  20
ENDBRANCH  14  17
ENDBRANCH   9  11
BRANCH   1  23
ATOM     23  C   UNL     1     -30.229  88.357  18.501  0.00  0.00    +0.000 C 
ATOM     24  S   UNL     1     -29.802  88.749  20.085  0.00  0.00    +0.000 S 
BRANCH  23  25
ATOM     25  N   UNL     1     -31.226  87.445  18.132  0.00  0.00    +0.000 N 
ATOM     26  H   UNL     1     -30.956  86.748  17.430  0.00  0.00    +0.000 HD
BRANCH  25  27
ATOM     27  C   UNL     1     -32.623  87.480  18.384  0.00  0.00    +0.000 A 
ATOM     28  C   UNL     1     -33.414  88.220  17.497  0.00  0.00    +0.000 A 
ATOM     29  F   UNL     1     -32.827  88.864  16.476  0.00  0.00    +0.000 F 
ATOM     30  C   UNL     1     -34.795  88.315  17.647  0.00  0.00    +0.000 A 
ATOM     31  C   UNL     1     -35.416  87.638  18.691  0.00  0.00    +0.000 A 
ATOM     32  C   UNL     1     -34.661  86.842  19.547  0.00  0.00    +0.000 A 
ATOM     33  C   UNL     1     -33.277  86.759  19.386  0.00  0.00    +0.000 A 
ATOM     34  F   UNL     1     -32.623  85.845  20.116  0.00  0.00    +0.000 F 
ENDBRANCH  25  27
ENDBRANCH  23  25
ENDBRANCH   1  23
TORSDOF 6
ENDMDL
MODEL 7
REMARK VINA RESULT:      -5.9     24.454     25.550
REMARK  Name = Cdk12_Inhibitor.pdbqt.pdb
REMARK  6 active torsions:
REMARK  status: ('A' for Active; 'I' for Inactive)
REMARK    1  A    between atoms: N_1  and  C_23
REMARK    2  A    between atoms: N_9  and  C_11
REMARK    3  A    between atoms: C_14  and  S_17
REMARK    4  A    between atoms: S_17  and  N_20
REMARK    5  A    between atoms: C_23  and  N_25
REMARK    6  A    between atoms: N_25  and  C_27
REMARK                            x       y       z     vdW  Elec       q    Type
REMARK                         _______ _______ _______ _____ _____    ______ ____
ROOT
ATOM      1  N   UNL     1     -33.008  87.908  -8.567  0.00  0.00    +0.000 N 
ATOM      2  N   UNL     1     -31.852  88.078  -7.875  0.00  0.00    +0.000 NA
ATOM      3  N   UNL     1     -31.994  85.942  -8.625  0.00  0.00    +0.000 NA
ATOM      4  N   UNL     1     -34.154  85.999  -9.581  0.00  0.00    +0.000 N 
ATOM      5  C   UNL     1     -31.265  86.888  -7.966  0.00  0.00    +0.000 A 
ATOM      6  C   UNL     1     -33.093  86.569  -8.957  0.00  0.00    +0.000 A 
ATOM      7  H   UNL     1     -35.073  86.190  -9.179  0.00  0.00    +0.000 HD
ATOM      8  H   UNL     1     -34.046  84.990  -9.691  0.00  0.00    +0.000 HD
ATOM      9  N   UNL     1     -30.071  86.498  -7.488  0.00  0.00    +0.000 N 
ATOM     10  H   UNL     1     -29.821  85.536  -7.677  0.00  0.00    +0.000 HD
ENDROOT
BRANCH   9  11
ATOM     11  C   UNL     1     -29.093  87.222  -6.784  0.00  0.00    +0.000 A 
ATOM     12  C   UNL     1     -28.305  88.151  -7.475  0.00  0.00    +0.000 A 
ATOM     13  C   UNL     1     -27.313  88.882  -6.826  0.00  0.00    +0.000 A 
ATOM     14  C   UNL     1     -27.097  88.669  -5.471  0.00  0.00    +0.000 A 
ATOM     15  C   UNL     1     -27.873  87.770  -4.749  0.00  0.00    +0.000 A 
ATOM     16  C   UNL     1     -28.858  87.046  -5.414  0.00  0.00    +0.000 A 
BRANCH  14  17
ATOM     17  S   UNL     1     -25.900  89.625  -4.632  0.00  0.00    +0.000 S 
ATOM     18  O   UNL     1     -26.095  89.490  -3.207  0.00  0.00    +0.000 OA
ATOM     19  O   UNL     1     -24.611  89.434  -5.252  0.00  0.00    +0.000 OA
BRANCH  17  20
ATOM     20  N   UNL     1     -26.369  91.194  -5.005  0.00  0.00    +0.000 NA
ATOM     21  H   UNL     1     -27.360  91.209  -5.245  0.00  0.00    +0.000 HD
ATOM     22  H   UNL     1     -26.123  91.818  -4.235  0.00  0.00    +0.000 HD
ENDBRANCH  17  20
ENDBRANCH  14  17
ENDBRANCH   9  11
BRANCH   1  23
ATOM     23  C   UNL     1     -33.886  89.008  -8.800  0.00  0.00    +0.000 C 
ATOM     24  S   UNL     1     -33.608  90.241  -9.917  0.00  0.00    +0.000 S 
BRANCH  23  25
ATOM     25  N   UNL     1     -35.063  88.832  -8.062  0.00  0.00    +0.000 N 
ATOM     26  H   UNL     1     -35.515  87.916  -8.153  0.00  0.00    +0.000 HD
BRANCH  25  27
ATOM     27  C   UNL     1     -35.869  89.795  -7.400  0.00  0.00    +0.000 A 
ATOM     28  C   UNL     1     -36.884  90.402  -8.151  0.00  0.00    +0.000 A 
ATOM     29  F   UNL     1     -37.037  90.064  -9.441  0.00  0.00    +0.000 F 
ATOM     30  C   UNL     1     -37.737  91.354  -7.599  0.00  0.00    +0.000 A 
ATOM     31  C   UNL     1     -37.598  91.700  -6.259  0.00  0.00    +0.000 A 
ATOM     32  C   UNL     1     -36.641  91.064  -5.475  0.00  0.00    +0.000 A 
ATOM     33  C   UNL     1     -35.791  90.114  -6.042  0.00  0.00    +0.000 A 
ATOM     34  F   UNL     1     -35.015  89.404  -5.212  0.00  0.00    +0.000 F 
ENDBRANCH  25  27
ENDBRANCH  23  25
ENDBRANCH   1  23
TORSDOF 6
ENDMDL
MODEL 8
REMARK VINA RESULT:      -5.8      5.087      7.045
REMARK  Name = Cdk12_Inhibitor.pdbqt.pdb
REMARK  6 active torsions:
REMARK  status: ('A' for Active; 'I' for Inactive)
REMARK    1  A    between atoms: N_1  and  C_23
REMARK    2  A    between atoms: N_9  and  C_11
REMARK    3  A    between atoms: C_14  and  S_17
REMARK    4  A    between atoms: S_17  and  N_20
REMARK    5  A    between atoms: C_23  and  N_25
REMARK    6  A    between atoms: N_25  and  C_27
REMARK                            x       y       z     vdW  Elec       q    Type
REMARK                         _______ _______ _______ _____ _____    ______ ____
ROOT
ATOM      1  N   UNL     1     -29.549 101.549  16.648  0.00  0.00    +0.000 N 
ATOM      2  N   UNL     1     -29.222 101.113  17.892  0.00  0.00    +0.000 NA
ATOM      3  N   UNL     1     -30.939 102.589  18.021  0.00  0.00    +0.000 NA
ATOM      4  N   UNL     1     -31.078 103.236  15.752  0.00  0.00    +0.000 N 
ATOM      5  C   UNL     1     -30.101 101.734  18.674  0.00  0.00    +0.000 A 
ATOM      6  C   UNL     1     -30.563 102.504  16.772  0.00  0.00    +0.000 A 
ATOM      7  H   UNL     1     -30.405 103.681  15.127  0.00  0.00    +0.000 HD
ATOM      8  H   UNL     1     -31.743 103.940  16.075  0.00  0.00    +0.000 HD
ATOM      9  N   UNL     1     -30.259 101.642  20.005  0.00  0.00    +0.000 N 
ATOM     10  H   UNL     1     -31.000 102.210  20.396  0.00  0.00    +0.000 HD
ENDROOT
BRANCH   9  11
ATOM     11  C   UNL     1     -29.573 100.858  20.950  0.00  0.00    +0.000 A 
ATOM     12  C   UNL     1     -30.219  99.748  21.511  0.00  0.00    +0.000 A 
ATOM     13  C   UNL     1     -29.589  98.949  22.461  0.00  0.00    +0.000 A 
ATOM     14  C   UNL     1     -28.301  99.275  22.867  0.00  0.00    +0.000 A 
ATOM     15  C   UNL     1     -27.623 100.356  22.318  0.00  0.00    +0.000 A 
ATOM     16  C   UNL     1     -28.269 101.145  21.371  0.00  0.00    +0.000 A 
BRANCH  14  17
ATOM     17  S   UNL     1     -27.476  98.243  24.010  0.00  0.00    +0.000 S 
ATOM     18  O   UNL     1     -26.431  98.997  24.665  0.00  0.00    +0.000 OA
ATOM     19  O   UNL     1     -28.446  97.474  24.751  0.00  0.00    +0.000 OA
BRANCH  17  20
ATOM     20  N   UNL     1     -26.685  97.154  23.005  0.00  0.00    +0.000 NA
ATOM     21  H   UNL     1     -26.017  96.607  23.549  0.00  0.00    +0.000 HD
ATOM     22  H   UNL     1     -27.371  96.589  22.505  0.00  0.00    +0.000 HD
ENDBRANCH  17  20
ENDBRANCH  14  17
ENDBRANCH   9  11
BRANCH   1  23
ATOM     23  C   UNL     1     -28.898 101.019  15.496  0.00  0.00    +0.000 C 
ATOM     24  S   UNL     1     -27.351 101.451  14.980  0.00  0.00    +0.000 S 
BRANCH  23  25
ATOM     25  N   UNL     1     -29.681  99.998  14.944  0.00  0.00    +0.000 N 
ATOM     26  H   UNL     1     -29.406  99.679  14.009  0.00  0.00    +0.000 HD
BRANCH  25  27
ATOM     27  C   UNL     1     -30.944  99.500  15.361  0.00  0.00    +0.000 A 
ATOM     28  C   UNL     1     -32.067  99.928  14.643  0.00  0.00    +0.000 A 
ATOM     29  F   UNL     1     -31.906 100.784  13.621  0.00  0.00    +0.000 F 
ATOM     30  C   UNL     1     -33.352  99.496  14.961  0.00  0.00    +0.000 A 
ATOM     31  C   UNL     1     -33.530  98.596  16.007  0.00  0.00    +0.000 A 
ATOM     32  C   UNL     1     -32.424  98.104  16.693  0.00  0.00    +0.000 A 
ATOM     33  C   UNL     1     -31.143  98.549  16.365  0.00  0.00    +0.000 A 
ATOM     34  F   UNL     1     -30.105  97.915  16.928  0.00  0.00    +0.000 F 
ENDBRANCH  25  27
ENDBRANCH  23  25
ENDBRANCH   1  23
TORSDOF 6
ENDMDL
MODEL 9
REMARK VINA RESULT:      -5.8     17.477     20.996
REMARK  Name = Cdk12_Inhibitor.pdbqt.pdb
REMARK  6 active torsions:
REMARK  status: ('A' for Active; 'I' for Inactive)
REMARK    1  A    between atoms: N_1  and  C_23
REMARK    2  A    between atoms: N_9  and  C_11
REMARK    3  A    between atoms: C_14  and  S_17
REMARK    4  A    between atoms: S_17  and  N_20
REMARK    5  A    between atoms: C_23  and  N_25
REMARK    6  A    between atoms: N_25  and  C_27
REMARK                            x       y       z     vdW  Elec       q    Type
REMARK                         _______ _______ _______ _____ _____    ______ ____
ROOT
ATOM      1  N   UNL     1     -22.019 104.802   0.773  0.00  0.00    +0.000 N 
ATOM      2  N   UNL     1     -22.549 104.349  -0.393  0.00  0.00    +0.000 NA
ATOM      3  N   UNL     1     -22.100 106.566  -0.562  0.00  0.00    +0.000 NA
ATOM      4  N   UNL     1     -21.395 106.998   1.652  0.00  0.00    +0.000 N 
ATOM      5  C   UNL     1     -22.546 105.429  -1.169  0.00  0.00    +0.000 A 
ATOM      6  C   UNL     1     -21.817 106.180   0.655  0.00  0.00    +0.000 A 
ATOM      7  H   UNL     1     -21.870 106.901   2.551  0.00  0.00    +0.000 HD
ATOM      8  H   UNL     1     -21.405 107.982   1.379  0.00  0.00    +0.000 HD
ATOM      9  N   UNL     1     -22.932 105.548  -2.451  0.00  0.00    +0.000 N 
ATOM     10  H   UNL     1     -22.841 106.474  -2.849  0.00  0.00    +0.000 HD
ENDROOT
BRANCH   9  11
ATOM     11  C   UNL     1     -23.422 104.581  -3.346  0.00  0.00    +0.000 A 
ATOM     12  C   UNL     1     -24.691 104.028  -3.124  0.00  0.00    +0.000 A 
ATOM     13  C   UNL     1     -25.214 103.057  -3.973  0.00  0.00    +0.000 A 
ATOM     14  C   UNL     1     -24.451 102.621  -5.048  0.00  0.00    +0.000 A 
ATOM     15  C   UNL     1     -23.198 103.160  -5.310  0.00  0.00    +0.000 A 
ATOM     16  C   UNL     1     -22.689 104.129  -4.450  0.00  0.00    +0.000 A 
BRANCH  14  17
ATOM     17  S   UNL     1     -25.123 101.449  -6.157  0.00  0.00    +0.000 S 
ATOM     18  O   UNL     1     -26.159 102.077  -6.945  0.00  0.00    +0.000 OA
ATOM     19  O   UNL     1     -24.054 100.691  -6.761  0.00  0.00    +0.000 OA
BRANCH  17  20
ATOM     20  N   UNL     1     -25.919 100.391  -5.123  0.00  0.00    +0.000 NA
ATOM     21  H   UNL     1     -26.610  99.854  -5.646  0.00  0.00    +0.000 HD
ATOM     22  H   UNL     1     -25.236  99.815  -4.630  0.00  0.00    +0.000 HD
ENDBRANCH  17  20
ENDBRANCH  14  17
ENDBRANCH   9  11
BRANCH   1  23
ATOM     23  C   UNL     1     -21.747 103.905   1.846  0.00  0.00    +0.000 C 
ATOM     24  S   UNL     1     -20.277 103.112   2.090  0.00  0.00    +0.000 S 
BRANCH  23  25
ATOM     25  N   UNL     1     -22.833 103.889   2.730  0.00  0.00    +0.000 N 
ATOM     26  H   UNL     1     -23.187 104.807   3.019  0.00  0.00    +0.000 HD
BRANCH  25  27
ATOM     27  C   UNL     1     -23.369 102.814   3.487  0.00  0.00    +0.000 A 
ATOM     28  C   UNL     1     -24.103 101.847   2.791  0.00  0.00    +0.000 A 
ATOM     29  F   UNL     1     -24.277 101.982   1.467  0.00  0.00    +0.000 F 
ATOM     30  C   UNL     1     -24.667 100.748   3.434  0.00  0.00    +0.000 A 
ATOM     31  C   UNL     1     -24.480 100.589   4.803  0.00  0.00    +0.000 A 
ATOM     32  C   UNL     1     -23.699 101.500   5.507  0.00  0.00    +0.000 A 
ATOM     33  C   UNL     1     -23.143 102.598   4.849  0.00  0.00    +0.000 A 
ATOM     34  F   UNL     1     -22.257 103.342   5.527  0.00  0.00    +0.000 F 
ENDBRANCH  25  27
ENDBRANCH  23  25
ENDBRANCH   1  23
TORSDOF 6
ENDMDL
