MODEL 1
REMARK VINA RESULT:      -7.3      0.000      0.000
REMARK  Name = CHEMBL35349.pdbqt.pdb
REMARK  2 active torsions:
REMARK  status: ('A' for Active; 'I' for Inactive)
REMARK    1  A    between atoms: C_2  and  C_11
REMARK    2  A    between atoms: C_5  and  O_21
REMARK                            x       y       z     vdW  Elec       q    Type
REMARK                         _______ _______ _______ _____ _____    ______ ____
ROOT
ATOM      1  N   UNL     1     -26.867  84.906  13.074  0.00  0.00    +0.000 N 
ATOM      2  C   UNL     1     -28.104  86.558  13.927  0.00  0.00    +0.000 A 
ATOM      3  C   UNL     1     -28.537  86.286  12.583  0.00  0.00    +0.000 A 
ATOM      4  C   UNL     1     -27.746  85.254  12.082  0.00  0.00    +0.000 A 
ATOM      5  C   UNL     1     -27.064  85.677  14.189  0.00  0.00    +0.000 A 
ATOM      6  C   UNL     1     -29.532  86.826  11.745  0.00  0.00    +0.000 A 
ATOM      7  C   UNL     1     -27.892  84.731  10.792  0.00  0.00    +0.000 A 
ATOM      8  C   UNL     1     -29.698  86.320  10.454  0.00  0.00    +0.000 A 
ATOM      9  C   UNL     1     -28.888  85.290   9.990  0.00  0.00    +0.000 A 
ATOM     10  H   UNL     1     -26.164  84.185  13.007  0.00  0.00    +0.000 HD
ENDROOT
BRANCH   2  11
ATOM     11  C   UNL     1     -28.645  87.551  14.827  0.00  0.00    +0.000 C 
ATOM     12  N   UNL     1     -29.544  87.263  15.733  0.00  0.00    +0.000 NA
ATOM     13  C   UNL     1     -29.826  88.465  16.411  0.00  0.00    +0.000 A 
ATOM     14  C   UNL     1     -29.103  89.561  15.946  0.00  0.00    +0.000 A 
ATOM     15  C   UNL     1     -30.721  88.634  17.452  0.00  0.00    +0.000 A 
ATOM     16  C   UNL     1     -28.281  89.032  14.876  0.00  0.00    +0.000 C 
ATOM     17  C   UNL     1     -29.213  90.836  16.456  0.00  0.00    +0.000 A 
ATOM     18  O   UNL     1     -27.484  89.602  14.168  0.00  0.00    +0.000 OA
ATOM     19  C   UNL     1     -30.117  91.001  17.504  0.00  0.00    +0.000 A 
ATOM     20  C   UNL     1     -30.862  89.915  17.996  0.00  0.00    +0.000 A 
ENDBRANCH   2  11
BRANCH   5  21
ATOM     21  O   UNL     1     -26.281  85.452  15.237  0.00  0.00    +0.000 OA
ATOM     22  H   UNL     1     -25.631  86.184  15.338  0.00  0.00    +0.000 HD
ENDBRANCH   5  21
TORSDOF 2
ENDMDL
MODEL 2
REMARK VINA RESULT:      -6.8     11.871     14.231
REMARK  Name = CHEMBL35349.pdbqt.pdb
REMARK  2 active torsions:
REMARK  status: ('A' for Active; 'I' for Inactive)
REMARK    1  A    between atoms: C_2  and  C_11
REMARK    2  A    between atoms: C_5  and  O_21
REMARK                            x       y       z     vdW  Elec       q    Type
REMARK                         _______ _______ _______ _____ _____    ______ ____
ROOT
ATOM      1  N   UNL     1     -30.176  98.946  15.834  0.00  0.00    +0.000 N 
ATOM      2  C   UNL     1     -32.188  99.691  15.214  0.00  0.00    +0.000 A 
ATOM      3  C   UNL     1     -31.309 100.811  15.421  0.00  0.00    +0.000 A 
ATOM      4  C   UNL     1     -30.067 100.311  15.806  0.00  0.00    +0.000 A 
ATOM      5  C   UNL     1     -31.440  98.553  15.483  0.00  0.00    +0.000 A 
ATOM      6  C   UNL     1     -31.460 102.208  15.315  0.00  0.00    +0.000 A 
ATOM      7  C   UNL     1     -28.967 101.128  16.091  0.00  0.00    +0.000 A 
ATOM      8  C   UNL     1     -30.376 103.042  15.594  0.00  0.00    +0.000 A 
ATOM      9  C   UNL     1     -29.151 102.506  15.975  0.00  0.00    +0.000 A 
ATOM     10  H   UNL     1     -29.436  98.304  16.078  0.00  0.00    +0.000 HD
ENDROOT
BRANCH   2  11
ATOM     11  C   UNL     1     -33.574  99.740  14.808  0.00  0.00    +0.000 C 
ATOM     12  N   UNL     1     -34.513  99.079  15.434  0.00  0.00    +0.000 NA
ATOM     13  C   UNL     1     -35.719  99.367  14.763  0.00  0.00    +0.000 A 
ATOM     14  C   UNL     1     -35.571 100.230  13.680  0.00  0.00    +0.000 A 
ATOM     15  C   UNL     1     -36.975  98.885  15.081  0.00  0.00    +0.000 A 
ATOM     16  C   UNL     1     -34.154 100.531  13.639  0.00  0.00    +0.000 C 
ATOM     17  C   UNL     1     -36.608 100.651  12.877  0.00  0.00    +0.000 A 
ATOM     18  O   UNL     1     -33.542 101.237  12.872  0.00  0.00    +0.000 OA
ATOM     19  C   UNL     1     -37.872 100.161  13.201  0.00  0.00    +0.000 A 
ATOM     20  C   UNL     1     -38.054  99.289  14.288  0.00  0.00    +0.000 A 
ENDBRANCH   2  11
BRANCH   5  21
ATOM     21  O   UNL     1     -31.695  97.250  15.466  0.00  0.00    +0.000 OA
ATOM     22  H   UNL     1     -32.396  97.050  14.804  0.00  0.00    +0.000 HD
ENDBRANCH   5  21
TORSDOF 2
ENDMDL
MODEL 3
REMARK VINA RESULT:      -6.6     12.435     13.966
REMARK  Name = CHEMBL35349.pdbqt.pdb
REMARK  2 active torsions:
REMARK  status: ('A' for Active; 'I' for Inactive)
REMARK    1  A    between atoms: C_2  and  C_11
REMARK    2  A    between atoms: C_5  and  O_21
REMARK                            x       y       z     vdW  Elec       q    Type
REMARK                         _______ _______ _______ _____ _____    ______ ____
ROOT
ATOM      1  N   UNL     1     -35.949  98.374  16.178  0.00  0.00    +0.000 N 
ATOM      2  C   UNL     1     -34.101  99.394  15.451  0.00  0.00    +0.000 A 
ATOM      3  C   UNL     1     -35.179  99.654  14.535  0.00  0.00    +0.000 A 
ATOM      4  C   UNL     1     -36.313  99.005  15.017  0.00  0.00    +0.000 A 
ATOM      5  C   UNL     1     -34.626  98.594  16.455  0.00  0.00    +0.000 A 
ATOM      6  C   UNL     1     -35.292 100.386  13.336  0.00  0.00    +0.000 A 
ATOM      7  C   UNL     1     -37.553  99.044  14.371  0.00  0.00    +0.000 A 
ATOM      8  C   UNL     1     -36.520 100.440  12.673  0.00  0.00    +0.000 A 
ATOM      9  C   UNL     1     -37.630  99.778  13.187  0.00  0.00    +0.000 A 
ATOM     10  H   UNL     1     -36.561  97.819  16.759  0.00  0.00    +0.000 HD
ENDROOT
BRANCH   2  11
ATOM     11  C   UNL     1     -32.740  99.870  15.345  0.00  0.00    +0.000 C 
ATOM     12  N   UNL     1     -32.451 101.132  15.157  0.00  0.00    +0.000 NA
ATOM     13  C   UNL     1     -31.045 101.216  15.107  0.00  0.00    +0.000 A 
ATOM     14  C   UNL     1     -30.400  99.992  15.264  0.00  0.00    +0.000 A 
ATOM     15  C   UNL     1     -30.294 102.361  14.923  0.00  0.00    +0.000 A 
ATOM     16  C   UNL     1     -31.470  99.029  15.431  0.00  0.00    +0.000 C 
ATOM     17  C   UNL     1     -29.032  99.829  15.250  0.00  0.00    +0.000 A 
ATOM     18  O   UNL     1     -31.407  97.834  15.600  0.00  0.00    +0.000 OA
ATOM     19  C   UNL     1     -28.279 100.987  15.064  0.00  0.00    +0.000 A 
ATOM     20  C   UNL     1     -28.901 102.237  14.902  0.00  0.00    +0.000 A 
ENDBRANCH   2  11
BRANCH   5  21
ATOM     21  O   UNL     1     -34.130  98.041  17.556  0.00  0.00    +0.000 OA
ATOM     22  H   UNL     1     -34.125  98.695  18.291  0.00  0.00    +0.000 HD
ENDBRANCH   5  21
TORSDOF 2
ENDMDL
MODEL 4
REMARK VINA RESULT:      -6.4     11.592     13.708
REMARK  Name = CHEMBL35349.pdbqt.pdb
REMARK  2 active torsions:
REMARK  status: ('A' for Active; 'I' for Inactive)
REMARK    1  A    between atoms: C_2  and  C_11
REMARK    2  A    between atoms: C_5  and  O_21
REMARK                            x       y       z     vdW  Elec       q    Type
REMARK                         _______ _______ _______ _____ _____    ______ ____
ROOT
ATOM      1  N   UNL     1     -31.634  97.477  17.555  0.00  0.00    +0.000 N 
ATOM      2  C   UNL     1     -33.144  98.551  16.308  0.00  0.00    +0.000 A 
ATOM      3  C   UNL     1     -31.919  99.304  16.325  0.00  0.00    +0.000 A 
ATOM      4  C   UNL     1     -31.001  98.608  17.110  0.00  0.00    +0.000 A 
ATOM      5  C   UNL     1     -32.919  97.424  17.086  0.00  0.00    +0.000 A 
ATOM      6  C   UNL     1     -31.507 100.519  15.742  0.00  0.00    +0.000 A 
ATOM      7  C   UNL     1     -29.697  99.057  17.345  0.00  0.00    +0.000 A 
ATOM      8  C   UNL     1     -30.210 100.986  15.963  0.00  0.00    +0.000 A 
ATOM      9  C   UNL     1     -29.323 100.263  16.752  0.00  0.00    +0.000 A 
ATOM     10  H   UNL     1     -31.222  96.771  18.148  0.00  0.00    +0.000 HD
ENDROOT
BRANCH   2  11
ATOM     11  C   UNL     1     -34.365  98.898  15.618  0.00  0.00    +0.000 C 
ATOM     12  N   UNL     1     -34.372  99.380  14.402  0.00  0.00    +0.000 NA
ATOM     13  C   UNL     1     -35.724  99.595  14.066  0.00  0.00    +0.000 A 
ATOM     14  C   UNL     1     -36.619  99.249  15.075  0.00  0.00    +0.000 A 
ATOM     15  C   UNL     1     -36.206 100.097  12.872  0.00  0.00    +0.000 A 
ATOM     16  C   UNL     1     -35.787  98.769  16.159  0.00  0.00    +0.000 C 
ATOM     17  C   UNL     1     -37.988  99.372  14.972  0.00  0.00    +0.000 A 
ATOM     18  O   UNL     1     -36.109  98.357  17.249  0.00  0.00    +0.000 OA
ATOM     19  C   UNL     1     -38.469  99.880  13.767  0.00  0.00    +0.000 A 
ATOM     20  C   UNL     1     -37.590 100.238  12.729  0.00  0.00    +0.000 A 
ENDBRANCH   2  11
BRANCH   5  21
ATOM     21  O   UNL     1     -33.658  96.377  17.438  0.00  0.00    +0.000 OA
ATOM     22  H   UNL     1     -33.962  96.475  18.368  0.00  0.00    +0.000 HD
ENDBRANCH   5  21
TORSDOF 2
ENDMDL
MODEL 5
REMARK VINA RESULT:      -6.1     28.637     30.507
REMARK  Name = CHEMBL35349.pdbqt.pdb
REMARK  2 active torsions:
REMARK  status: ('A' for Active; 'I' for Inactive)
REMARK    1  A    between atoms: C_2  and  C_11
REMARK    2  A    between atoms: C_5  and  O_21
REMARK                            x       y       z     vdW  Elec       q    Type
REMARK                         _______ _______ _______ _____ _____    ______ ____
ROOT
ATOM      1  N   UNL     1     -33.842 100.997 -13.834  0.00  0.00    +0.000 N 
ATOM      2  C   UNL     1     -32.585  99.167 -13.593  0.00  0.00    +0.000 A 
ATOM      3  C   UNL     1     -33.599  99.184 -12.574  0.00  0.00    +0.000 A 
ATOM      4  C   UNL     1     -34.363 100.336 -12.752  0.00  0.00    +0.000 A 
ATOM      5  C   UNL     1     -32.775 100.313 -14.352  0.00  0.00    +0.000 A 
ATOM      6  C   UNL     1     -33.937  98.322 -11.511  0.00  0.00    +0.000 A 
ATOM      7  C   UNL     1     -35.444 100.676 -11.931  0.00  0.00    +0.000 A 
ATOM      8  C   UNL     1     -35.013  98.640 -10.679  0.00  0.00    +0.000 A 
ATOM      9  C   UNL     1     -35.751  99.799 -10.890  0.00  0.00    +0.000 A 
ATOM     10  H   UNL     1     -34.186 101.869 -14.209  0.00  0.00    +0.000 HD
ENDROOT
BRANCH   2  11
ATOM     11  C   UNL     1     -31.570  98.157 -13.788  0.00  0.00    +0.000 C 
ATOM     12  N   UNL     1     -30.294  98.442 -13.830  0.00  0.00    +0.000 NA
ATOM     13  C   UNL     1     -29.619  97.222 -14.031  0.00  0.00    +0.000 A 
ATOM     14  C   UNL     1     -30.462  96.117 -14.123  0.00  0.00    +0.000 A 
ATOM     15  C   UNL     1     -28.252  97.044 -14.139  0.00  0.00    +0.000 A 
ATOM     16  C   UNL     1     -31.797  96.658 -13.969  0.00  0.00    +0.000 C 
ATOM     17  C   UNL     1     -30.027  94.825 -14.319  0.00  0.00    +0.000 A 
ATOM     18  O   UNL     1     -32.862  96.087 -13.978  0.00  0.00    +0.000 OA
ATOM     19  C   UNL     1     -28.649  94.651 -14.427  0.00  0.00    +0.000 A 
ATOM     20  C   UNL     1     -27.772  95.746 -14.339  0.00  0.00    +0.000 A 
ENDBRANCH   2  11
BRANCH   5  21
ATOM     21  O   UNL     1     -32.165 100.836 -15.410  0.00  0.00    +0.000 OA
ATOM     22  H   UNL     1     -32.600 100.528 -16.238  0.00  0.00    +0.000 HD
ENDBRANCH   5  21
TORSDOF 2
ENDMDL
MODEL 6
REMARK VINA RESULT:      -5.6     11.956     14.774
REMARK  Name = CHEMBL35349.pdbqt.pdb
REMARK  2 active torsions:
REMARK  status: ('A' for Active; 'I' for Inactive)
REMARK    1  A    between atoms: C_2  and  C_11
REMARK    2  A    between atoms: C_5  and  O_21
REMARK                            x       y       z     vdW  Elec       q    Type
REMARK                         _______ _______ _______ _____ _____    ______ ____
ROOT
ATOM      1  N   UNL     1     -33.347  97.887  16.860  0.00  0.00    +0.000 N 
ATOM      2  C   UNL     1     -34.352  99.446  15.616  0.00  0.00    +0.000 A 
ATOM      3  C   UNL     1     -32.937  99.473  15.360  0.00  0.00    +0.000 A 
ATOM      4  C   UNL     1     -32.342  98.492  16.151  0.00  0.00    +0.000 A 
ATOM      5  C   UNL     1     -34.560  98.445  16.555  0.00  0.00    +0.000 A 
ATOM      6  C   UNL     1     -32.106 100.247  14.526  0.00  0.00    +0.000 A 
ATOM      7  C   UNL     1     -30.966  98.239  16.156  0.00  0.00    +0.000 A 
ATOM      8  C   UNL     1     -30.729 100.013  14.514  0.00  0.00    +0.000 A 
ATOM      9  C   UNL     1     -30.174  99.024  15.317  0.00  0.00    +0.000 A 
ATOM     10  H   UNL     1     -33.226  97.134  17.521  0.00  0.00    +0.000 HD
ENDROOT
BRANCH   2  11
ATOM     11  C   UNL     1     -35.357 100.292  15.015  0.00  0.00    +0.000 C 
ATOM     12  N   UNL     1     -35.206 101.586  14.897  0.00  0.00    +0.000 NA
ATOM     13  C   UNL     1     -36.374 102.069  14.272  0.00  0.00    +0.000 A 
ATOM     14  C   UNL     1     -37.306 101.078  13.974  0.00  0.00    +0.000 A 
ATOM     15  C   UNL     1     -36.652 103.383  13.947  0.00  0.00    +0.000 A 
ATOM     16  C   UNL     1     -36.700  99.848  14.442  0.00  0.00    +0.000 C 
ATOM     17  C   UNL     1     -38.519 101.313  13.364  0.00  0.00    +0.000 A 
ATOM     18  O   UNL     1     -37.130  98.719  14.404  0.00  0.00    +0.000 OA
ATOM     19  C   UNL     1     -38.795 102.640  13.039  0.00  0.00    +0.000 A 
ATOM     20  C   UNL     1     -37.874 103.663  13.327  0.00  0.00    +0.000 A 
ENDBRANCH   2  11
BRANCH   5  21
ATOM     21  O   UNL     1     -35.632  97.958  17.169  0.00  0.00    +0.000 OA
ATOM     22  H   UNL     1     -36.232  98.691  17.436  0.00  0.00    +0.000 HD
ENDBRANCH   5  21
TORSDOF 2
ENDMDL
MODEL 7
REMARK VINA RESULT:      -5.6     28.764     29.995
REMARK  Name = CHEMBL35349.pdbqt.pdb
REMARK  2 active torsions:
REMARK  status: ('A' for Active; 'I' for Inactive)
REMARK    1  A    between atoms: C_2  and  C_11
REMARK    2  A    between atoms: C_5  and  O_21
REMARK                            x       y       z     vdW  Elec       q    Type
REMARK                         _______ _______ _______ _____ _____    ______ ____
ROOT
ATOM      1  N   UNL     1     -30.547  95.449 -14.751  0.00  0.00    +0.000 N 
ATOM      2  C   UNL     1     -31.601  97.183 -13.820  0.00  0.00    +0.000 A 
ATOM      3  C   UNL     1     -30.216  97.518 -14.015  0.00  0.00    +0.000 A 
ATOM      4  C   UNL     1     -29.589  96.417 -14.595  0.00  0.00    +0.000 A 
ATOM      5  C   UNL     1     -31.760  95.888 -14.292  0.00  0.00    +0.000 A 
ATOM      6  C   UNL     1     -29.437  98.661 -13.747  0.00  0.00    +0.000 A 
ATOM      7  C   UNL     1     -28.230  96.393 -14.924  0.00  0.00    +0.000 A 
ATOM      8  C   UNL     1     -28.078  98.661 -14.068  0.00  0.00    +0.000 A 
ATOM      9  C   UNL     1     -27.489  97.543 -14.647  0.00  0.00    +0.000 A 
ATOM     10  H   UNL     1     -30.394  94.533 -15.147  0.00  0.00    +0.000 HD
ENDROOT
BRANCH   2  11
ATOM     11  C   UNL     1     -32.625  98.027 -13.247  0.00  0.00    +0.000 C 
ATOM     12  N   UNL     1     -33.360  97.649 -12.233  0.00  0.00    +0.000 NA
ATOM     13  C   UNL     1     -34.235  98.719 -11.955  0.00  0.00    +0.000 A 
ATOM     14  C   UNL     1     -34.074  99.815 -12.797  0.00  0.00    +0.000 A 
ATOM     15  C   UNL     1     -35.194  98.761 -10.960  0.00  0.00    +0.000 A 
ATOM     16  C   UNL     1     -33.007  99.433 -13.700  0.00  0.00    +0.000 C 
ATOM     17  C   UNL     1     -34.817 100.973 -12.714  0.00  0.00    +0.000 A 
ATOM     18  O   UNL     1     -32.512 100.057 -14.610  0.00  0.00    +0.000 OA
ATOM     19  C   UNL     1     -35.782 101.011 -11.710  0.00  0.00    +0.000 A 
ATOM     20  C   UNL     1     -35.969  99.920 -10.843  0.00  0.00    +0.000 A 
ENDBRANCH   2  11
BRANCH   5  21
ATOM     21  O   UNL     1     -32.788  95.052 -14.380  0.00  0.00    +0.000 OA
ATOM     22  H   UNL     1     -32.507  94.142 -14.130  0.00  0.00    +0.000 HD
ENDBRANCH   5  21
TORSDOF 2
ENDMDL
MODEL 8
REMARK VINA RESULT:      -5.6     12.109     14.938
REMARK  Name = CHEMBL35349.pdbqt.pdb
REMARK  2 active torsions:
REMARK  status: ('A' for Active; 'I' for Inactive)
REMARK    1  A    between atoms: C_2  and  C_11
REMARK    2  A    between atoms: C_5  and  O_21
REMARK                            x       y       z     vdW  Elec       q    Type
REMARK                         _______ _______ _______ _____ _____    ______ ____
ROOT
ATOM      1  N   UNL     1     -27.043 101.225  23.668  0.00  0.00    +0.000 N 
ATOM      2  C   UNL     1     -27.923 100.040  21.992  0.00  0.00    +0.000 A 
ATOM      3  C   UNL     1     -27.434  99.142  23.002  0.00  0.00    +0.000 A 
ATOM      4  C   UNL     1     -26.892  99.911  24.030  0.00  0.00    +0.000 A 
ATOM      5  C   UNL     1     -27.658 101.324  22.448  0.00  0.00    +0.000 A 
ATOM      6  C   UNL     1     -27.401  97.739  23.135  0.00  0.00    +0.000 A 
ATOM      7  C   UNL     1     -26.321  99.360  25.182  0.00  0.00    +0.000 A 
ATOM      8  C   UNL     1     -26.837  97.167  24.277  0.00  0.00    +0.000 A 
ATOM      9  C   UNL     1     -26.307  97.969  25.281  0.00  0.00    +0.000 A 
ATOM     10  H   UNL     1     -26.746 102.020  24.214  0.00  0.00    +0.000 HD
ENDROOT
BRANCH   2  11
ATOM     11  C   UNL     1     -28.564  99.679  20.747  0.00  0.00    +0.000 C 
ATOM     12  N   UNL     1     -29.444  98.715  20.665  0.00  0.00    +0.000 NA
ATOM     13  C   UNL     1     -29.844  98.654  19.315  0.00  0.00    +0.000 A 
ATOM     14  C   UNL     1     -29.218  99.590  18.497  0.00  0.00    +0.000 A 
ATOM     15  C   UNL     1     -30.764  97.780  18.767  0.00  0.00    +0.000 A 
ATOM     16  C   UNL     1     -28.337 100.324  19.383  0.00  0.00    +0.000 C 
ATOM     17  C   UNL     1     -29.450  99.717  17.145  0.00  0.00    +0.000 A 
ATOM     18  O   UNL     1     -27.586 101.238  19.134  0.00  0.00    +0.000 OA
ATOM     19  C   UNL     1     -30.378  98.834  16.597  0.00  0.00    +0.000 A 
ATOM     20  C   UNL     1     -31.027  97.876  17.396  0.00  0.00    +0.000 A 
ENDBRANCH   2  11
BRANCH   5  21
ATOM     21  O   UNL     1     -27.872 102.542  21.966  0.00  0.00    +0.000 OA
ATOM     22  H   UNL     1     -28.316 103.102  22.644  0.00  0.00    +0.000 HD
ENDBRANCH   5  21
TORSDOF 2
ENDMDL
MODEL 9
REMARK VINA RESULT:      -5.5     13.494     14.596
REMARK  Name = CHEMBL35349.pdbqt.pdb
REMARK  2 active torsions:
REMARK  status: ('A' for Active; 'I' for Inactive)
REMARK    1  A    between atoms: C_2  and  C_11
REMARK    2  A    between atoms: C_5  and  O_21
REMARK                            x       y       z     vdW  Elec       q    Type
REMARK                         _______ _______ _______ _____ _____    ______ ____
ROOT
ATOM      1  N   UNL     1     -35.855 100.085  13.127  0.00  0.00    +0.000 N 
ATOM      2  C   UNL     1     -36.026  99.396  15.244  0.00  0.00    +0.000 A 
ATOM      3  C   UNL     1     -34.791 100.113  15.076  0.00  0.00    +0.000 A 
ATOM      4  C   UNL     1     -34.716 100.527  13.748  0.00  0.00    +0.000 A 
ATOM      5  C   UNL     1     -36.654  99.405  14.007  0.00  0.00    +0.000 A 
ATOM      6  C   UNL     1     -33.726 100.447  15.937  0.00  0.00    +0.000 A 
ATOM      7  C   UNL     1     -33.639 101.255  13.230  0.00  0.00    +0.000 A 
ATOM      8  C   UNL     1     -32.641 101.173  15.443  0.00  0.00    +0.000 A 
ATOM      9  C   UNL     1     -32.603 101.569  14.110  0.00  0.00    +0.000 A 
ATOM     10  H   UNL     1     -36.088 100.233  12.156  0.00  0.00    +0.000 HD
ENDROOT
BRANCH   2  11
ATOM     11  C   UNL     1     -36.517  98.789  16.461  0.00  0.00    +0.000 C 
ATOM     12  N   UNL     1     -35.862  97.845  17.087  0.00  0.00    +0.000 NA
ATOM     13  C   UNL     1     -36.637  97.504  18.215  0.00  0.00    +0.000 A 
ATOM     14  C   UNL     1     -37.817  98.233  18.332  0.00  0.00    +0.000 A 
ATOM     15  C   UNL     1     -36.331  96.550  19.166  0.00  0.00    +0.000 A 
ATOM     16  C   UNL     1     -37.816  99.123  17.189  0.00  0.00    +0.000 C 
ATOM     17  C   UNL     1     -38.730  98.072  19.351  0.00  0.00    +0.000 A 
ATOM     18  O   UNL     1     -38.635  99.949  16.858  0.00  0.00    +0.000 OA
ATOM     19  C   UNL     1     -38.417  97.109  20.308  0.00  0.00    +0.000 A 
ATOM     20  C   UNL     1     -37.233  96.356  20.218  0.00  0.00    +0.000 A 
ENDBRANCH   2  11
BRANCH   5  21
ATOM     21  O   UNL     1     -37.799  98.916  13.544  0.00  0.00    +0.000 OA
ATOM     22  H   UNL     1     -38.560  99.366  13.978  0.00  0.00    +0.000 HD
ENDBRANCH   5  21
TORSDOF 2
ENDMDL
