MODEL 1
REMARK VINA RESULT:      -6.0      0.000      0.000
REMARK  Name = Chlortetracycline.pdbqt.pdb
REMARK  7 active torsions:
REMARK  status: ('A' for Active; 'I' for Inactive)
REMARK    1  A    between atoms: C_7  and  O_30
REMARK    2  A    between atoms: C_8  and  N_32
REMARK    3  A    between atoms: C_9  and  O_37
REMARK    4  A    between atoms: C_12  and  O_28
REMARK    5  A    between atoms: C_15  and  O_35
REMARK    6  A    between atoms: C_16  and  C_23
REMARK    7  A    between atoms: C_20  and  O_39
REMARK                            x       y       z     vdW  Elec       q    Type
REMARK                         _______ _______ _______ _____ _____    ______ ____
ROOT
ATOM      1 CL   UNL     1     -27.431  84.794  15.659  0.00  0.00    +0.000 Cl
ATOM      2  O   UNL     1     -29.116  81.921   8.573  0.00  0.00    +0.000 OA
ATOM      3  O   UNL     1     -32.459  78.814  12.714  0.00  0.00    +0.000 OA
ATOM      4  C   UNL     1     -29.350  79.496  11.400  0.00  0.00    +0.000 C 
ATOM      5  C   UNL     1     -28.695  81.923  12.205  0.00  0.00    +0.000 C 
ATOM      6  C   UNL     1     -28.903  80.529  12.250  0.00  0.00    +0.000 C 
ATOM      7  C   UNL     1     -29.637  79.975   9.997  0.00  0.00    +0.000 C 
ATOM      8  C   UNL     1     -30.246  78.480  11.923  0.00  0.00    +0.000 C 
ATOM      9  C   UNL     1     -28.049  82.783  13.254  0.00  0.00    +0.000 C 
ATOM     10  C   UNL     1     -28.978  82.462  10.892  0.00  0.00    +0.000 C 
ATOM     11  C   UNL     1     -29.226  81.501   9.734  0.00  0.00    +0.000 C 
ATOM     12  C   UNL     1     -31.109  79.826   9.599  0.00  0.00    +0.000 C 
ATOM     13  C   UNL     1     -28.321  84.269  13.076  0.00  0.00    +0.000 A 
ATOM     14  C   UNL     1     -31.688  78.820  11.766  0.00  0.00    +0.000 C 
ATOM     15  C   UNL     1     -28.991  83.793  10.688  0.00  0.00    +0.000 C 
ATOM     16  C   UNL     1     -32.070  79.320  10.407  0.00  0.00    +0.000 C 
ATOM     17  C   UNL     1     -28.813  84.750  11.824  0.00  0.00    +0.000 A 
ATOM     18  C   UNL     1     -26.537  82.481  13.264  0.00  0.00    +0.000 C 
ATOM     19  C   UNL     1     -28.094  85.203  14.115  0.00  0.00    +0.000 A 
ATOM     20  C   UNL     1     -29.119  86.124  11.708  0.00  0.00    +0.000 A 
ATOM     21  C   UNL     1     -28.376  86.556  13.949  0.00  0.00    +0.000 A 
ATOM     22  C   UNL     1     -28.901  87.014  12.756  0.00  0.00    +0.000 A 
ENDROOT
BRANCH  16  23
ATOM     23  C   UNL     1     -33.483  79.142   9.969  0.00  0.00    +0.000 C 
ATOM     24  O   UNL     1     -34.117  80.044   9.438  0.00  0.00    +0.000 OA
ATOM     25  N   UNL     1     -34.053  77.929  10.200  0.00  0.00    +0.000 N 
ATOM     26  H   UNL     1     -33.642  77.293  10.875  0.00  0.00    +0.000 HD
ATOM     27  H   UNL     1     -35.043  77.847  10.012  0.00  0.00    +0.000 HD
ENDBRANCH  16  23
BRANCH   8  28
ATOM     28  N   UNL     1     -29.856  77.097  11.997  0.00  0.00    +0.000 NA
ATOM     29  C   UNL     1     -30.430  76.262  10.952  0.00  0.00    +0.000 C 
ATOM     30  C   UNL     1     -28.422  76.892  11.998  0.00  0.00    +0.000 C 
ENDBRANCH   8  28
BRANCH  12  31
ATOM     31  O   UNL     1     -31.407  80.184   8.281  0.00  0.00    +0.000 OA
ATOM     32  H   UNL     1     -32.379  80.325   8.210  0.00  0.00    +0.000 HD
ENDBRANCH  12  31
BRANCH   7  33
ATOM     33  O   UNL     1     -28.930  79.131   9.087  0.00  0.00    +0.000 OA
ATOM     34  H   UNL     1     -29.541  78.878   8.370  0.00  0.00    +0.000 HD
ENDBRANCH   7  33
BRANCH  15  35
ATOM     35  O   UNL     1     -29.143  84.359   9.441  0.00  0.00    +0.000 OA
ATOM     36  H   UNL     1     -28.269  84.587   9.060  0.00  0.00    +0.000 HD
ENDBRANCH  15  35
BRANCH   9  37
ATOM     37  O   UNL     1     -28.555  82.332  14.495  0.00  0.00    +0.000 OA
ATOM     38  H   UNL     1     -28.958  83.148  14.844  0.00  0.00    +0.000 HD
ENDBRANCH   9  37
BRANCH  20  39
ATOM     39  O   UNL     1     -29.689  86.637  10.574  0.00  0.00    +0.000 OA
ATOM     40  H   UNL     1     -29.870  87.584  10.702  0.00  0.00    +0.000 HD
ENDBRANCH  20  39
TORSDOF 7
ENDMDL
MODEL 2
REMARK VINA RESULT:      -5.8     24.273     27.847
REMARK  Name = Chlortetracycline.pdbqt.pdb
REMARK  7 active torsions:
REMARK  status: ('A' for Active; 'I' for Inactive)
REMARK    1  A    between atoms: C_7  and  O_30
REMARK    2  A    between atoms: C_8  and  N_32
REMARK    3  A    between atoms: C_9  and  O_37
REMARK    4  A    between atoms: C_12  and  O_28
REMARK    5  A    between atoms: C_15  and  O_35
REMARK    6  A    between atoms: C_16  and  C_23
REMARK    7  A    between atoms: C_20  and  O_39
REMARK                            x       y       z     vdW  Elec       q    Type
REMARK                         _______ _______ _______ _____ _____    ______ ____
ROOT
ATOM      1 CL   UNL     1     -23.189 103.251  -1.836  0.00  0.00    +0.000 Cl
ATOM      2  O   UNL     1     -27.223 107.874   3.028  0.00  0.00    +0.000 OA
ATOM      3  O   UNL     1     -31.034 106.086  -1.473  0.00  0.00    +0.000 OA
ATOM      4  C   UNL     1     -28.296 107.956  -0.545  0.00  0.00    +0.000 C 
ATOM      5  C   UNL     1     -26.317 106.261  -0.126  0.00  0.00    +0.000 C 
ATOM      6  C   UNL     1     -27.237 107.068  -0.826  0.00  0.00    +0.000 C 
ATOM      7  C   UNL     1     -28.488 108.189   0.934  0.00  0.00    +0.000 C 
ATOM      8  C   UNL     1     -29.506 107.898  -1.345  0.00  0.00    +0.000 C 
ATOM      9  C   UNL     1     -25.156 105.495  -0.696  0.00  0.00    +0.000 C 
ATOM     10  C   UNL     1     -26.461 106.408   1.307  0.00  0.00    +0.000 C 
ATOM     11  C   UNL     1     -27.363 107.511   1.851  0.00  0.00    +0.000 C 
ATOM     12  C   UNL     1     -29.847 107.702   1.448  0.00  0.00    +0.000 C 
ATOM     13  C   UNL     1     -24.604 104.435   0.245  0.00  0.00    +0.000 A 
ATOM     14  C   UNL     1     -30.538 106.974  -0.796  0.00  0.00    +0.000 C 
ATOM     15  C   UNL     1     -25.782 105.606   2.148  0.00  0.00    +0.000 C 
ATOM     16  C   UNL     1     -30.791 107.120   0.673  0.00  0.00    +0.000 C 
ATOM     17  C   UNL     1     -24.943 104.480   1.632  0.00  0.00    +0.000 A 
ATOM     18  C   UNL     1     -24.068 106.505  -1.113  0.00  0.00    +0.000 C 
ATOM     19  C   UNL     1     -23.752 103.401  -0.208  0.00  0.00    +0.000 A 
ATOM     20  C   UNL     1     -24.470 103.447   2.471  0.00  0.00    +0.000 A 
ATOM     21  C   UNL     1     -23.278 102.419   0.658  0.00  0.00    +0.000 A 
ATOM     22  C   UNL     1     -23.647 102.432   1.990  0.00  0.00    +0.000 A 
ENDROOT
BRANCH  16  23
ATOM     23  C   UNL     1     -32.123 106.704   1.196  0.00  0.00    +0.000 C 
ATOM     24  O   UNL     1     -32.972 107.519   1.533  0.00  0.00    +0.000 OA
ATOM     25  N   UNL     1     -32.356 105.368   1.304  0.00  0.00    +0.000 N 
ATOM     26  H   UNL     1     -31.580 104.714   1.300  0.00  0.00    +0.000 HD
ATOM     27  H   UNL     1     -33.210 105.090   1.768  0.00  0.00    +0.000 HD
ENDBRANCH  16  23
BRANCH   8  28
ATOM     28  N   UNL     1     -29.921 109.004  -2.167  0.00  0.00    +0.000 NA
ATOM     29  C   UNL     1     -31.008 109.789  -1.600  0.00  0.00    +0.000 C 
ATOM     30  C   UNL     1     -28.846 109.911  -2.514  0.00  0.00    +0.000 C 
ENDBRANCH   8  28
BRANCH  12  31
ATOM     31  O   UNL     1     -30.101 107.967   2.797  0.00  0.00    +0.000 OA
ATOM     32  H   UNL     1     -30.417 107.136   3.222  0.00  0.00    +0.000 HD
ENDBRANCH  12  31
BRANCH   7  33
ATOM     33  O   UNL     1     -28.500 109.599   1.164  0.00  0.00    +0.000 OA
ATOM     34  H   UNL     1     -28.929 109.762   2.024  0.00  0.00    +0.000 HD
ENDBRANCH   7  33
BRANCH  15  35
ATOM     35  O   UNL     1     -25.793 105.773   3.516  0.00  0.00    +0.000 OA
ATOM     36  H   UNL     1     -24.966 105.423   3.909  0.00  0.00    +0.000 HD
ENDBRANCH  15  35
BRANCH   9  37
ATOM     37  O   UNL     1     -25.629 104.901  -1.889  0.00  0.00    +0.000 OA
ATOM     38  H   UNL     1     -24.792 104.647  -2.319  0.00  0.00    +0.000 HD
ENDBRANCH   9  37
BRANCH  20  39
ATOM     39  O   UNL     1     -24.837 103.368   3.787  0.00  0.00    +0.000 OA
ATOM     40  H   UNL     1     -25.066 104.255   4.113  0.00  0.00    +0.000 HD
ENDBRANCH  20  39
TORSDOF 7
ENDMDL
MODEL 3
REMARK VINA RESULT:      -5.6     19.186     20.623
REMARK  Name = Chlortetracycline.pdbqt.pdb
REMARK  7 active torsions:
REMARK  status: ('A' for Active; 'I' for Inactive)
REMARK    1  A    between atoms: C_7  and  O_30
REMARK    2  A    between atoms: C_8  and  N_32
REMARK    3  A    between atoms: C_9  and  O_37
REMARK    4  A    between atoms: C_12  and  O_28
REMARK    5  A    between atoms: C_15  and  O_35
REMARK    6  A    between atoms: C_16  and  C_23
REMARK    7  A    between atoms: C_20  and  O_39
REMARK                            x       y       z     vdW  Elec       q    Type
REMARK                         _______ _______ _______ _____ _____    ______ ____
ROOT
ATOM      1 CL   UNL     1     -24.162  86.201  -7.304  0.00  0.00    +0.000 Cl
ATOM      2  O   UNL     1     -30.664  90.248  -8.930  0.00  0.00    +0.000 OA
ATOM      3  O   UNL     1     -32.363  84.679  -6.909  0.00  0.00    +0.000 OA
ATOM      4  C   UNL     1     -30.898  86.554  -9.399  0.00  0.00    +0.000 C 
ATOM      5  C   UNL     1     -28.535  87.308  -8.500  0.00  0.00    +0.000 C 
ATOM      6  C   UNL     1     -29.535  86.479  -9.047  0.00  0.00    +0.000 C 
ATOM      7  C   UNL     1     -31.476  87.936  -9.212  0.00  0.00    +0.000 C 
ATOM      8  C   UNL     1     -31.780  85.445  -9.079  0.00  0.00    +0.000 C 
ATOM      9  C   UNL     1     -27.070  87.000  -8.359  0.00  0.00    +0.000 C 
ATOM     10  C   UNL     1     -29.024  88.649  -8.265  0.00  0.00    +0.000 C 
ATOM     11  C   UNL     1     -30.393  89.045  -8.810  0.00  0.00    +0.000 C 
ATOM     12  C   UNL     1     -32.589  87.986  -8.161  0.00  0.00    +0.000 C 
ATOM     13  C   UNL     1     -26.343  87.926  -7.396  0.00  0.00    +0.000 A 
ATOM     14  C   UNL     1     -32.431  85.568  -7.745  0.00  0.00    +0.000 C 
ATOM     15  C   UNL     1     -28.269  89.546  -7.603  0.00  0.00    +0.000 C 
ATOM     16  C   UNL     1     -33.024  86.913  -7.459  0.00  0.00    +0.000 C 
ATOM     17  C   UNL     1     -26.953  89.157  -7.006  0.00  0.00    +0.000 A 
ATOM     18  C   UNL     1     -26.432  87.029  -9.763  0.00  0.00    +0.000 C 
ATOM     19  C   UNL     1     -25.066  87.611  -6.873  0.00  0.00    +0.000 A 
ATOM     20  C   UNL     1     -26.285  89.966  -6.061  0.00  0.00    +0.000 A 
ATOM     21  C   UNL     1     -24.425  88.453  -5.969  0.00  0.00    +0.000 A 
ATOM     22  C   UNL     1     -25.037  89.619  -5.551  0.00  0.00    +0.000 A 
ENDROOT
BRANCH  16  23
ATOM     23  C   UNL     1     -34.145  86.989  -6.480  0.00  0.00    +0.000 C 
ATOM     24  O   UNL     1     -34.106  87.725  -5.503  0.00  0.00    +0.000 OA
ATOM     25  N   UNL     1     -35.218  86.184  -6.706  0.00  0.00    +0.000 N 
ATOM     26  H   UNL     1     -35.136  85.389  -7.331  0.00  0.00    +0.000 HD
ATOM     27  H   UNL     1     -35.922  86.148  -5.982  0.00  0.00    +0.000 HD
ENDBRANCH  16  23
BRANCH   8  28
ATOM     28  N   UNL     1     -32.429  84.677 -10.108  0.00  0.00    +0.000 NA
ATOM     29  C   UNL     1     -32.110  83.257 -10.079  0.00  0.00    +0.000 C 
ATOM     30  C   UNL     1     -33.871  84.812 -10.118  0.00  0.00    +0.000 C 
ENDBRANCH   8  28
BRANCH  12  31
ATOM     31  O   UNL     1     -33.207  89.231  -8.010  0.00  0.00    +0.000 OA
ATOM     32  H   UNL     1     -33.290  89.420  -7.047  0.00  0.00    +0.000 HD
ENDBRANCH  12  31
BRANCH   7  33
ATOM     33  O   UNL     1     -32.114  88.319 -10.432  0.00  0.00    +0.000 OA
ATOM     34  H   UNL     1     -31.912  89.258 -10.598  0.00  0.00    +0.000 HD
ENDBRANCH   7  33
BRANCH  15  35
ATOM     35  O   UNL     1     -28.635  90.866  -7.447  0.00  0.00    +0.000 OA
ATOM     36  H   UNL     1     -28.134  91.275  -6.710  0.00  0.00    +0.000 HD
ENDBRANCH  15  35
BRANCH   9  37
ATOM     37  O   UNL     1     -26.994  85.661  -7.912  0.00  0.00    +0.000 OA
ATOM     38  H   UNL     1     -26.382  85.277  -8.566  0.00  0.00    +0.000 HD
ENDBRANCH   9  37
BRANCH  20  39
ATOM     39  O   UNL     1     -26.856  91.107  -5.565  0.00  0.00    +0.000 OA
ATOM     40  H   UNL     1     -26.677  91.171  -4.611  0.00  0.00    +0.000 HD
ENDBRANCH  20  39
TORSDOF 7
ENDMDL
MODEL 4
REMARK VINA RESULT:      -5.6     25.401     27.810
REMARK  Name = Chlortetracycline.pdbqt.pdb
REMARK  7 active torsions:
REMARK  status: ('A' for Active; 'I' for Inactive)
REMARK    1  A    between atoms: C_7  and  O_30
REMARK    2  A    between atoms: C_8  and  N_32
REMARK    3  A    between atoms: C_9  and  O_37
REMARK    4  A    between atoms: C_12  and  O_28
REMARK    5  A    between atoms: C_15  and  O_35
REMARK    6  A    between atoms: C_16  and  C_23
REMARK    7  A    between atoms: C_20  and  O_39
REMARK                            x       y       z     vdW  Elec       q    Type
REMARK                         _______ _______ _______ _____ _____    ______ ____
ROOT
ATOM      1 CL   UNL     1     -38.695 104.772   4.837  0.00  0.00    +0.000 Cl
ATOM      2  O   UNL     1     -31.533 105.938   1.897  0.00  0.00    +0.000 OA
ATOM      3  O   UNL     1     -35.616 108.229  -2.112  0.00  0.00    +0.000 OA
ATOM      4  C   UNL     1     -34.252 105.445  -0.611  0.00  0.00    +0.000 C 
ATOM      5  C   UNL     1     -35.149 105.396   1.870  0.00  0.00    +0.000 C 
ATOM      6  C   UNL     1     -35.136 105.243   0.469  0.00  0.00    +0.000 C 
ATOM      7  C   UNL     1     -32.880 105.896  -0.169  0.00  0.00    +0.000 C 
ATOM      8  C   UNL     1     -34.752 106.035  -1.841  0.00  0.00    +0.000 C 
ATOM      9  C   UNL     1     -36.219 104.950   2.827  0.00  0.00    +0.000 C 
ATOM     10  C   UNL     1     -33.870 105.855   2.368  0.00  0.00    +0.000 C 
ATOM     11  C   UNL     1     -32.676 105.895   1.420  0.00  0.00    +0.000 C 
ATOM     12  C   UNL     1     -32.515 107.296  -0.673  0.00  0.00    +0.000 C 
ATOM     13  C   UNL     1     -36.116 105.596   4.200  0.00  0.00    +0.000 A 
ATOM     14  C   UNL     1     -34.649 107.520  -1.873  0.00  0.00    +0.000 C 
ATOM     15  C   UNL     1     -33.727 106.212   3.658  0.00  0.00    +0.000 C 
ATOM     16  C   UNL     1     -33.325 108.066  -1.437  0.00  0.00    +0.000 C 
ATOM     17  C   UNL     1     -34.901 106.240   4.586  0.00  0.00    +0.000 A 
ATOM     18  C   UNL     1     -36.175 103.411   2.919  0.00  0.00    +0.000 C 
ATOM     19  C   UNL     1     -37.190 105.574   5.121  0.00  0.00    +0.000 A 
ATOM     20  C   UNL     1     -34.855 106.888   5.840  0.00  0.00    +0.000 A 
ATOM     21  C   UNL     1     -37.093 106.195   6.363  0.00  0.00    +0.000 A 
ATOM     22  C   UNL     1     -35.936 106.863   6.717  0.00  0.00    +0.000 A 
ENDROOT
BRANCH  16  23
ATOM     23  C   UNL     1     -32.916 109.404  -1.952  0.00  0.00    +0.000 C 
ATOM     24  O   UNL     1     -32.423 110.257  -1.227  0.00  0.00    +0.000 OA
ATOM     25  N   UNL     1     -33.131 109.649  -3.273  0.00  0.00    +0.000 N 
ATOM     26  H   UNL     1     -33.781 109.074  -3.798  0.00  0.00    +0.000 HD
ATOM     27  H   UNL     1     -32.966 110.593  -3.594  0.00  0.00    +0.000 HD
ENDBRANCH  16  23
BRANCH   8  28
ATOM     28  N   UNL     1     -34.753 105.305  -3.081  0.00  0.00    +0.000 NA
ATOM     29  C   UNL     1     -33.933 105.905  -4.123  0.00  0.00    +0.000 C 
ATOM     30  C   UNL     1     -34.358 103.918  -2.944  0.00  0.00    +0.000 C 
ENDBRANCH   8  28
BRANCH  12  31
ATOM     31  O   UNL     1     -31.223 107.723  -0.353  0.00  0.00    +0.000 OA
ATOM     32  H   UNL     1     -30.607 107.392  -1.047  0.00  0.00    +0.000 HD
ENDBRANCH  12  31
BRANCH   7  33
ATOM     33  O   UNL     1     -31.914 105.032  -0.771  0.00  0.00    +0.000 OA
ATOM     34  H   UNL     1     -32.384 104.423  -1.370  0.00  0.00    +0.000 HD
ENDBRANCH   7  33
BRANCH  15  35
ATOM     35  O   UNL     1     -32.512 106.549   4.214  0.00  0.00    +0.000 OA
ATOM     36  H   UNL     1     -32.013 107.140   3.611  0.00  0.00    +0.000 HD
ENDBRANCH  15  35
BRANCH   9  37
ATOM     37  O   UNL     1     -37.451 105.279   2.215  0.00  0.00    +0.000 OA
ATOM     38  H   UNL     1     -37.869 104.402   2.147  0.00  0.00    +0.000 HD
ENDBRANCH   9  37
BRANCH  20  39
ATOM     39  O   UNL     1     -33.762 107.610   6.233  0.00  0.00    +0.000 OA
ATOM     40  H   UNL     1     -34.032 108.280   6.885  0.00  0.00    +0.000 HD
ENDBRANCH  20  39
TORSDOF 7
ENDMDL
MODEL 5
REMARK VINA RESULT:      -5.6     18.983     21.130
REMARK  Name = Chlortetracycline.pdbqt.pdb
REMARK  7 active torsions:
REMARK  status: ('A' for Active; 'I' for Inactive)
REMARK    1  A    between atoms: C_7  and  O_30
REMARK    2  A    between atoms: C_8  and  N_32
REMARK    3  A    between atoms: C_9  and  O_37
REMARK    4  A    between atoms: C_12  and  O_28
REMARK    5  A    between atoms: C_15  and  O_35
REMARK    6  A    between atoms: C_16  and  C_23
REMARK    7  A    between atoms: C_20  and  O_39
REMARK                            x       y       z     vdW  Elec       q    Type
REMARK                         _______ _______ _______ _____ _____    ______ ____
ROOT
ATOM      1 CL   UNL     1     -38.134  82.521  -4.709  0.00  0.00    +0.000 Cl
ATOM      2  O   UNL     1     -36.043  90.064  -4.859  0.00  0.00    +0.000 OA
ATOM      3  O   UNL     1     -41.819  89.663  -6.973  0.00  0.00    +0.000 OA
ATOM      4  C   UNL     1     -38.477  89.007  -7.483  0.00  0.00    +0.000 C 
ATOM      5  C   UNL     1     -37.828  87.033  -5.856  0.00  0.00    +0.000 C 
ATOM      6  C   UNL     1     -38.365  87.695  -6.979  0.00  0.00    +0.000 C 
ATOM      7  C   UNL     1     -37.763  90.026  -6.627  0.00  0.00    +0.000 C 
ATOM      8  C   UNL     1     -39.730  89.438  -8.077  0.00  0.00    +0.000 C 
ATOM      9  C   UNL     1     -37.721  85.550  -5.635  0.00  0.00    +0.000 C 
ATOM     10  C   UNL     1     -37.148  87.953  -4.969  0.00  0.00    +0.000 C 
ATOM     11  C   UNL     1     -36.909  89.387  -5.432  0.00  0.00    +0.000 C 
ATOM     12  C   UNL     1     -38.709  91.059  -6.007  0.00  0.00    +0.000 C 
ATOM     13  C   UNL     1     -37.454  85.167  -4.188  0.00  0.00    +0.000 A 
ATOM     14  C   UNL     1     -40.669  90.058  -7.102  0.00  0.00    +0.000 C 
ATOM     15  C   UNL     1     -36.705  87.542  -3.767  0.00  0.00    +0.000 C 
ATOM     16  C   UNL     1     -40.049  91.075  -6.194  0.00  0.00    +0.000 C 
ATOM     17  C   UNL     1     -36.987  86.159  -3.272  0.00  0.00    +0.000 A 
ATOM     18  C   UNL     1     -36.631  84.998  -6.577  0.00  0.00    +0.000 C 
ATOM     19  C   UNL     1     -37.647  83.848  -3.713  0.00  0.00    +0.000 A 
ATOM     20  C   UNL     1     -36.811  85.791  -1.919  0.00  0.00    +0.000 A 
ATOM     21  C   UNL     1     -37.429  83.518  -2.378  0.00  0.00    +0.000 A 
ATOM     22  C   UNL     1     -37.027  84.488  -1.480  0.00  0.00    +0.000 A 
ENDROOT
BRANCH  16  23
ATOM     23  C   UNL     1     -40.933  92.127  -5.617  0.00  0.00    +0.000 C 
ATOM     24  O   UNL     1     -40.704  92.645  -4.532  0.00  0.00    +0.000 OA
ATOM     25  N   UNL     1     -42.027  92.482  -6.344  0.00  0.00    +0.000 N 
ATOM     26  H   UNL     1     -42.368  91.874  -7.081  0.00  0.00    +0.000 HD
ATOM     27  H   UNL     1     -42.687  93.106  -5.899  0.00  0.00    +0.000 HD
ENDBRANCH  16  23
BRANCH   8  28
ATOM     28  N   UNL     1     -39.818  89.805  -9.466  0.00  0.00    +0.000 NA
ATOM     29  C   UNL     1     -39.700  91.235  -9.710  0.00  0.00    +0.000 C 
ATOM     30  C   UNL     1     -38.860  89.125 -10.314  0.00  0.00    +0.000 C 
ENDBRANCH   8  28
BRANCH  12  31
ATOM     31  O   UNL     1     -38.083  92.069  -5.270  0.00  0.00    +0.000 OA
ATOM     32  H   UNL     1     -37.552  91.647  -4.556  0.00  0.00    +0.000 HD
ENDBRANCH  12  31
BRANCH   7  33
ATOM     33  O   UNL     1     -36.899  90.788  -7.471  0.00  0.00    +0.000 OA
ATOM     34  H   UNL     1     -36.057  90.926  -6.998  0.00  0.00    +0.000 HD
ENDBRANCH   7  33
BRANCH  15  35
ATOM     35  O   UNL     1     -35.956  88.341  -2.930  0.00  0.00    +0.000 OA
ATOM     36  H   UNL     1     -36.414  89.193  -2.771  0.00  0.00    +0.000 HD
ENDBRANCH  15  35
BRANCH   9  37
ATOM     37  O   UNL     1     -38.947  85.001  -6.076  0.00  0.00    +0.000 OA
ATOM     38  H   UNL     1     -38.636  84.320  -6.701  0.00  0.00    +0.000 HD
ENDBRANCH   9  37
BRANCH  20  39
ATOM     39  O   UNL     1     -36.464  86.711  -0.967  0.00  0.00    +0.000 OA
ATOM     40  H   UNL     1     -36.404  87.592  -1.374  0.00  0.00    +0.000 HD
ENDBRANCH  20  39
TORSDOF 7
ENDMDL
MODEL 6
REMARK VINA RESULT:      -5.5     20.076     22.713
REMARK  Name = Chlortetracycline.pdbqt.pdb
REMARK  7 active torsions:
REMARK  status: ('A' for Active; 'I' for Inactive)
REMARK    1  A    between atoms: C_7  and  O_30
REMARK    2  A    between atoms: C_8  and  N_32
REMARK    3  A    between atoms: C_9  and  O_37
REMARK    4  A    between atoms: C_12  and  O_28
REMARK    5  A    between atoms: C_15  and  O_35
REMARK    6  A    between atoms: C_16  and  C_23
REMARK    7  A    between atoms: C_20  and  O_39
REMARK                            x       y       z     vdW  Elec       q    Type
REMARK                         _______ _______ _______ _____ _____    ______ ____
ROOT
ATOM      1 CL   UNL     1     -24.619 103.908   1.640  0.00  0.00    +0.000 Cl
ATOM      2  O   UNL     1     -22.035 100.018   7.925  0.00  0.00    +0.000 OA
ATOM      3  O   UNL     1     -17.523 100.033   3.726  0.00  0.00    +0.000 OA
ATOM      4  C   UNL     1     -20.643  98.903   4.647  0.00  0.00    +0.000 C 
ATOM      5  C   UNL     1     -22.300 100.943   4.397  0.00  0.00    +0.000 C 
ATOM      6  C   UNL     1     -21.483  99.854   4.030  0.00  0.00    +0.000 C 
ATOM      7  C   UNL     1     -20.647  99.008   6.153  0.00  0.00    +0.000 C 
ATOM      8  C   UNL     1     -19.369  98.573   4.033  0.00  0.00    +0.000 C 
ATOM      9  C   UNL     1     -23.233 101.723   3.514  0.00  0.00    +0.000 C 
ATOM     10  C   UNL     1     -22.331 101.126   5.832  0.00  0.00    +0.000 C 
ATOM     11  C   UNL     1     -21.711 100.058   6.729  0.00  0.00    +0.000 C 
ATOM     12  C   UNL     1     -19.280  99.383   6.733  0.00  0.00    +0.000 C 
ATOM     13  C   UNL     1     -23.667 103.053   4.110  0.00  0.00    +0.000 A 
ATOM     14  C   UNL     1     -18.243  99.425   4.505  0.00  0.00    +0.000 C 
ATOM     15  C   UNL     1     -22.928 102.205   6.371  0.00  0.00    +0.000 C 
ATOM     16  C   UNL     1     -18.170  99.601   5.990  0.00  0.00    +0.000 C 
ATOM     17  C   UNL     1     -23.484 103.292   5.507  0.00  0.00    +0.000 A 
ATOM     18  C   UNL     1     -24.444 100.828   3.180  0.00  0.00    +0.000 C 
ATOM     19  C   UNL     1     -24.260 104.069   3.324  0.00  0.00    +0.000 A 
ATOM     20  C   UNL     1     -23.836 104.559   6.021  0.00  0.00    +0.000 A 
ATOM     21  C   UNL     1     -24.625 105.293   3.876  0.00  0.00    +0.000 A 
ATOM     22  C   UNL     1     -24.401 105.545   5.216  0.00  0.00    +0.000 A 
ENDROOT
BRANCH  16  23
ATOM     23  C   UNL     1     -16.843  99.914   6.592  0.00  0.00    +0.000 C 
ATOM     24  O   UNL     1     -16.704 100.780   7.446  0.00  0.00    +0.000 OA
ATOM     25  N   UNL     1     -15.776  99.202   6.139  0.00  0.00    +0.000 N 
ATOM     26  H   UNL     1     -15.834  98.703   5.258  0.00  0.00    +0.000 HD
ATOM     27  H   UNL     1     -14.863  99.495   6.459  0.00  0.00    +0.000 HD
ENDBRANCH  16  23
BRANCH   8  28
ATOM     28  N   UNL     1     -19.090  97.249   3.543  0.00  0.00    +0.000 NA
ATOM     29  C   UNL     1     -18.232  96.462   4.417  0.00  0.00    +0.000 C 
ATOM     30  C   UNL     1     -20.276  96.468   3.257  0.00  0.00    +0.000 C 
ENDBRANCH   8  28
BRANCH  12  31
ATOM     31  O   UNL     1     -19.216  99.415   8.130  0.00  0.00    +0.000 OA
ATOM     32  H   UNL     1     -19.829 100.115   8.451  0.00  0.00    +0.000 HD
ENDBRANCH  12  31
BRANCH   7  33
ATOM     33  O   UNL     1     -20.924  97.713   6.687  0.00  0.00    +0.000 OA
ATOM     34  H   UNL     1     -21.308  97.167   5.976  0.00  0.00    +0.000 HD
ENDBRANCH   7  33
BRANCH  15  35
ATOM     35  O   UNL     1     -23.086 102.375   7.730  0.00  0.00    +0.000 OA
ATOM     36  H   UNL     1     -23.894 101.915   8.040  0.00  0.00    +0.000 HD
ENDBRANCH  15  35
BRANCH   9  37
ATOM     37  O   UNL     1     -22.539 101.927   2.299  0.00  0.00    +0.000 OA
ATOM     38  H   UNL     1     -21.613 101.901   2.602  0.00  0.00    +0.000 HD
ENDBRANCH   9  37
BRANCH  20  39
ATOM     39  O   UNL     1     -23.595 104.895   7.326  0.00  0.00    +0.000 OA
ATOM     40  H   UNL     1     -22.656 105.127   7.432  0.00  0.00    +0.000 HD
ENDBRANCH  20  39
TORSDOF 7
ENDMDL
MODEL 7
REMARK VINA RESULT:      -5.3     21.268     23.389
REMARK  Name = Chlortetracycline.pdbqt.pdb
REMARK  7 active torsions:
REMARK  status: ('A' for Active; 'I' for Inactive)
REMARK    1  A    between atoms: C_7  and  O_30
REMARK    2  A    between atoms: C_8  and  N_32
REMARK    3  A    between atoms: C_9  and  O_37
REMARK    4  A    between atoms: C_12  and  O_28
REMARK    5  A    between atoms: C_15  and  O_35
REMARK    6  A    between atoms: C_16  and  C_23
REMARK    7  A    between atoms: C_20  and  O_39
REMARK                            x       y       z     vdW  Elec       q    Type
REMARK                         _______ _______ _______ _____ _____    ______ ____
ROOT
ATOM      1 CL   UNL     1     -44.613  86.494  -5.996  0.00  0.00    +0.000 Cl
ATOM      2  O   UNL     1     -39.720  92.583  -5.457  0.00  0.00    +0.000 OA
ATOM      3  O   UNL     1     -37.337  88.599  -9.511  0.00  0.00    +0.000 OA
ATOM      4  C   UNL     1     -38.133  89.296  -6.234  0.00  0.00    +0.000 C 
ATOM      5  C   UNL     1     -40.759  89.125  -6.031  0.00  0.00    +0.000 C 
ATOM      6  C   UNL     1     -39.414  88.715  -6.123  0.00  0.00    +0.000 C 
ATOM      7  C   UNL     1     -38.168  90.804  -6.172  0.00  0.00    +0.000 C 
ATOM      8  C   UNL     1     -37.164  88.716  -7.147  0.00  0.00    +0.000 C 
ATOM      9  C   UNL     1     -41.961  88.261  -5.768  0.00  0.00    +0.000 C 
ATOM     10  C   UNL     1     -40.876  90.567  -5.996  0.00  0.00    +0.000 C 
ATOM     11  C   UNL     1     -39.613  91.409  -5.839  0.00  0.00    +0.000 C 
ATOM     12  C   UNL     1     -37.684  91.470  -7.464  0.00  0.00    +0.000 C 
ATOM     13  C   UNL     1     -43.281  88.934  -6.109  0.00  0.00    +0.000 A 
ATOM     14  C   UNL     1     -37.214  89.299  -8.516  0.00  0.00    +0.000 C 
ATOM     15  C   UNL     1     -42.083  91.157  -6.068  0.00  0.00    +0.000 C 
ATOM     16  C   UNL     1     -37.265  90.795  -8.560  0.00  0.00    +0.000 C 
ATOM     17  C   UNL     1     -43.325  90.351  -6.286  0.00  0.00    +0.000 A 
ATOM     18  C   UNL     1     -41.919  87.810  -4.294  0.00  0.00    +0.000 C 
ATOM     19  C   UNL     1     -44.482  88.199  -6.251  0.00  0.00    +0.000 A 
ATOM     20  C   UNL     1     -44.550  90.941  -6.666  0.00  0.00    +0.000 A 
ATOM     21  C   UNL     1     -45.678  88.824  -6.594  0.00  0.00    +0.000 A 
ATOM     22  C   UNL     1     -45.711  90.188  -6.816  0.00  0.00    +0.000 A 
ENDROOT
BRANCH  16  23
ATOM     23  C   UNL     1     -36.751  91.476  -9.782  0.00  0.00    +0.000 C 
ATOM     24  O   UNL     1     -37.369  92.379 -10.330  0.00  0.00    +0.000 OA
ATOM     25  N   UNL     1     -35.564  91.038 -10.281  0.00  0.00    +0.000 N 
ATOM     26  H   UNL     1     -35.202  90.130 -10.010  0.00  0.00    +0.000 HD
ATOM     27  H   UNL     1     -35.277  91.417 -11.173  0.00  0.00    +0.000 HD
ENDBRANCH  16  23
BRANCH   8  28
ATOM     28  N   UNL     1     -35.932  88.142  -6.673  0.00  0.00    +0.000 NA
ATOM     29  C   UNL     1     -34.740  88.852  -7.113  0.00  0.00    +0.000 C 
ATOM     30  C   UNL     1     -35.865  88.005  -5.232  0.00  0.00    +0.000 C 
ENDBRANCH   8  28
BRANCH  12  31
ATOM     31  O   UNL     1     -37.624  92.866  -7.426  0.00  0.00    +0.000 OA
ATOM     32  H   UNL     1     -36.695  93.131  -7.237  0.00  0.00    +0.000 HD
ENDBRANCH  12  31
BRANCH   7  33
ATOM     33  O   UNL     1     -37.236  91.229  -5.176  0.00  0.00    +0.000 OA
ATOM     34  H   UNL     1     -37.407  92.169  -4.983  0.00  0.00    +0.000 HD
ENDBRANCH   7  33
BRANCH  15  35
ATOM     35  O   UNL     1     -42.264  92.516  -5.927  0.00  0.00    +0.000 OA
ATOM     36  H   UNL     1     -43.166  92.709  -5.595  0.00  0.00    +0.000 HD
ENDBRANCH  15  35
BRANCH   9  37
ATOM     37  O   UNL     1     -41.782  87.096  -6.549  0.00  0.00    +0.000 OA
ATOM     38  H   UNL     1     -42.023  86.400  -5.910  0.00  0.00    +0.000 HD
ENDBRANCH   9  37
BRANCH  20  39
ATOM     39  O   UNL     1     -44.643  92.276  -6.952  0.00  0.00    +0.000 OA
ATOM     40  H   UNL     1     -44.811  92.773  -6.132  0.00  0.00    +0.000 HD
ENDBRANCH  20  39
TORSDOF 7
ENDMDL
MODEL 8
REMARK VINA RESULT:      -5.3     20.550     23.744
REMARK  Name = Chlortetracycline.pdbqt.pdb
REMARK  7 active torsions:
REMARK  status: ('A' for Active; 'I' for Inactive)
REMARK    1  A    between atoms: C_7  and  O_30
REMARK    2  A    between atoms: C_8  and  N_32
REMARK    3  A    between atoms: C_9  and  O_37
REMARK    4  A    between atoms: C_12  and  O_28
REMARK    5  A    between atoms: C_15  and  O_35
REMARK    6  A    between atoms: C_16  and  C_23
REMARK    7  A    between atoms: C_20  and  O_39
REMARK                            x       y       z     vdW  Elec       q    Type
REMARK                         _______ _______ _______ _____ _____    ______ ____
ROOT
ATOM      1 CL   UNL     1     -20.075 100.535  10.358  0.00  0.00    +0.000 Cl
ATOM      2  O   UNL     1     -24.083 100.476   3.633  0.00  0.00    +0.000 OA
ATOM      3  O   UNL     1     -21.225 105.918   4.079  0.00  0.00    +0.000 OA
ATOM      4  C   UNL     1     -23.687 103.815   5.251  0.00  0.00    +0.000 C 
ATOM      5  C   UNL     1     -22.477 101.894   6.596  0.00  0.00    +0.000 C 
ATOM      6  C   UNL     1     -23.023 103.161   6.310  0.00  0.00    +0.000 C 
ATOM      7  C   UNL     1     -23.978 102.898   4.087  0.00  0.00    +0.000 C 
ATOM      8  C   UNL     1     -23.321 105.179   4.913  0.00  0.00    +0.000 C 
ATOM      9  C   UNL     1     -21.932 101.410   7.911  0.00  0.00    +0.000 C 
ATOM     10  C   UNL     1     -22.692 100.963   5.509  0.00  0.00    +0.000 C 
ATOM     11  C   UNL     1     -23.617 101.362   4.363  0.00  0.00    +0.000 C 
ATOM     12  C   UNL     1     -23.255 103.311   2.801  0.00  0.00    +0.000 C 
ATOM     13  C   UNL     1     -21.080 100.155   7.793  0.00  0.00    +0.000 A 
ATOM     14  C   UNL     1     -22.243 105.269   3.889  0.00  0.00    +0.000 C 
ATOM     15  C   UNL     1     -22.111  99.749   5.523  0.00  0.00    +0.000 C 
ATOM     16  C   UNL     1     -22.435 104.383   2.698  0.00  0.00    +0.000 C 
ATOM     17  C   UNL     1     -21.151  99.365   6.605  0.00  0.00    +0.000 A 
ATOM     18  C   UNL     1     -23.116 101.203   8.878  0.00  0.00    +0.000 C 
ATOM     19  C   UNL     1     -20.218  99.735   8.833  0.00  0.00    +0.000 A 
ATOM     20  C   UNL     1     -20.301  98.242   6.496  0.00  0.00    +0.000 A 
ATOM     21  C   UNL     1     -19.421  98.601   8.700  0.00  0.00    +0.000 A 
ATOM     22  C   UNL     1     -19.449  97.865   7.531  0.00  0.00    +0.000 A 
ENDROOT
BRANCH  16  23
ATOM     23  C   UNL     1     -21.788 104.784   1.416  0.00  0.00    +0.000 C 
ATOM     24  O   UNL     1     -21.222 103.976   0.693  0.00  0.00    +0.000 OA
ATOM     25  N   UNL     1     -21.836 106.103   1.087  0.00  0.00    +0.000 N 
ATOM     26  H   UNL     1     -22.043 106.798   1.796  0.00  0.00    +0.000 HD
ATOM     27  H   UNL     1     -21.297 106.393   0.282  0.00  0.00    +0.000 HD
ENDBRANCH  16  23
BRANCH   8  28
ATOM     28  N   UNL     1     -24.255 106.265   5.046  0.00  0.00    +0.000 NA
ATOM     29  C   UNL     1     -23.825 107.308   5.967  0.00  0.00    +0.000 C 
ATOM     30  C   UNL     1     -24.604 106.894   3.789  0.00  0.00    +0.000 C 
ENDBRANCH   8  28
BRANCH  12  31
ATOM     31  O   UNL     1     -23.556 102.536   1.677  0.00  0.00    +0.000 OA
ATOM     32  H   UNL     1     -23.087 102.922   0.901  0.00  0.00    +0.000 HD
ENDBRANCH  12  31
BRANCH   7  33
ATOM     33  O   UNL     1     -25.367 103.008   3.772  0.00  0.00    +0.000 OA
ATOM     34  H   UNL     1     -25.854 103.168   4.601  0.00  0.00    +0.000 HD
ENDBRANCH   7  33
BRANCH  15  35
ATOM     35  O   UNL     1     -22.367  98.782   4.574  0.00  0.00    +0.000 OA
ATOM     36  H   UNL     1     -23.333  98.646   4.478  0.00  0.00    +0.000 HD
ENDBRANCH  15  35
BRANCH   9  37
ATOM     37  O   UNL     1     -21.170 102.480   8.434  0.00  0.00    +0.000 OA
ATOM     38  H   UNL     1     -20.561 102.005   9.029  0.00  0.00    +0.000 HD
ENDBRANCH   9  37
BRANCH  20  39
ATOM     39  O   UNL     1     -20.241  97.499   5.348  0.00  0.00    +0.000 OA
ATOM     40  H   UNL     1     -19.335  97.523   4.994  0.00  0.00    +0.000 HD
ENDBRANCH  20  39
TORSDOF 7
ENDMDL
MODEL 9
REMARK VINA RESULT:      -5.1     17.375     21.201
REMARK  Name = Chlortetracycline.pdbqt.pdb
REMARK  7 active torsions:
REMARK  status: ('A' for Active; 'I' for Inactive)
REMARK    1  A    between atoms: C_7  and  O_30
REMARK    2  A    between atoms: C_8  and  N_32
REMARK    3  A    between atoms: C_9  and  O_37
REMARK    4  A    between atoms: C_12  and  O_28
REMARK    5  A    between atoms: C_15  and  O_35
REMARK    6  A    between atoms: C_16  and  C_23
REMARK    7  A    between atoms: C_20  and  O_39
REMARK                            x       y       z     vdW  Elec       q    Type
REMARK                         _______ _______ _______ _____ _____    ______ ____
ROOT
ATOM      1 CL   UNL     1     -47.936  84.176  -2.619  0.00  0.00    +0.000 Cl
ATOM      2  O   UNL     1     -50.875  82.946   4.533  0.00  0.00    +0.000 OA
ATOM      3  O   UNL     1     -44.759  83.479   5.072  0.00  0.00    +0.000 OA
ATOM      4  C   UNL     1     -47.434  81.625   3.948  0.00  0.00    +0.000 C 
ATOM      5  C   UNL     1     -48.403  82.880   1.839  0.00  0.00    +0.000 C 
ATOM      6  C   UNL     1     -47.550  82.071   2.615  0.00  0.00    +0.000 C 
ATOM      7  C   UNL     1     -48.586  82.071   4.817  0.00  0.00    +0.000 C 
ATOM      8  C   UNL     1     -46.128  81.603   4.582  0.00  0.00    +0.000 C 
ATOM      9  C   UNL     1     -48.370  83.077   0.349  0.00  0.00    +0.000 C 
ATOM     10  C   UNL     1     -49.523  83.371   2.614  0.00  0.00    +0.000 C 
ATOM     11  C   UNL     1     -49.758  82.811   4.014  0.00  0.00    +0.000 C 
ATOM     12  C   UNL     1     -48.157  83.002   5.954  0.00  0.00    +0.000 C 
ATOM     13  C   UNL     1     -49.160  84.287  -0.124  0.00  0.00    +0.000 A 
ATOM     14  C   UNL     1     -45.792  82.866   5.296  0.00  0.00    +0.000 C 
ATOM     15  C   UNL     1     -50.364  84.285   2.096  0.00  0.00    +0.000 C 
ATOM     16  C   UNL     1     -46.881  83.398   6.176  0.00  0.00    +0.000 C 
ATOM     17  C   UNL     1     -50.113  84.892   0.752  0.00  0.00    +0.000 A 
ATOM     18  C   UNL     1     -48.864  81.779  -0.322  0.00  0.00    +0.000 C 
ATOM     19  C   UNL     1     -48.989  84.835  -1.417  0.00  0.00    +0.000 A 
ATOM     20  C   UNL     1     -50.785  86.053   0.311  0.00  0.00    +0.000 A 
ATOM     21  C   UNL     1     -49.698  85.962  -1.827  0.00  0.00    +0.000 A 
ATOM     22  C   UNL     1     -50.581  86.579  -0.962  0.00  0.00    +0.000 A 
ENDROOT
BRANCH  16  23
ATOM     23  C   UNL     1     -46.492  84.265   7.324  0.00  0.00    +0.000 C 
ATOM     24  O   UNL     1     -47.074  85.311   7.575  0.00  0.00    +0.000 OA
ATOM     25  N   UNL     1     -45.440  83.852   8.081  0.00  0.00    +0.000 N 
ATOM     26  H   UNL     1     -44.793  83.159   7.719  0.00  0.00    +0.000 HD
ATOM     27  H   UNL     1     -45.102  84.496   8.783  0.00  0.00    +0.000 HD
ENDBRANCH  16  23
BRANCH   8  28
ATOM     28  N   UNL     1     -45.518  80.372   5.011  0.00  0.00    +0.000 NA
ATOM     29  C   UNL     1     -45.422  80.230   6.457  0.00  0.00    +0.000 C 
ATOM     30  C   UNL     1     -46.164  79.186   4.487  0.00  0.00    +0.000 C 
ENDBRANCH   8  28
BRANCH  12  31
ATOM     31  O   UNL     1     -49.178  83.378   6.831  0.00  0.00    +0.000 OA
ATOM     32  H   UNL     1     -49.581  84.213   6.498  0.00  0.00    +0.000 HD
ENDBRANCH  12  31
BRANCH   7  33
ATOM     33  O   UNL     1     -49.118  80.919   5.474  0.00  0.00    +0.000 OA
ATOM     34  H   UNL     1     -49.722  81.223   6.176  0.00  0.00    +0.000 HD
ENDBRANCH   7  33
BRANCH  15  35
ATOM     35  O   UNL     1     -51.507  84.705   2.743  0.00  0.00    +0.000 OA
ATOM     36  H   UNL     1     -51.339  84.802   3.704  0.00  0.00    +0.000 HD
ENDBRANCH  15  35
BRANCH   9  37
ATOM     37  O   UNL     1     -47.005  83.211   0.005  0.00  0.00    +0.000 OA
ATOM     38  H   UNL     1     -46.860  82.400  -0.517  0.00  0.00    +0.000 HD
ENDBRANCH   9  37
BRANCH  20  39
ATOM     39  O   UNL     1     -51.635  86.744   1.132  0.00  0.00    +0.000 OA
ATOM     40  H   UNL     1     -51.128  87.149   1.856  0.00  0.00    +0.000 HD
ENDBRANCH  20  39
TORSDOF 7
ENDMDL
