MODEL 1
REMARK VINA RESULT:      -5.2      0.000      0.000
REMARK  Name = Ciclopirox.pdbqt.pdb
REMARK  2 active torsions:
REMARK  status: ('A' for Active; 'I' for Inactive)
REMARK    1  A    between atoms: N_2  and  O_15
REMARK    2  A    between atoms: C_3  and  C_9
REMARK                            x       y       z     vdW  Elec       q    Type
REMARK                         _______ _______ _______ _____ _____    ______ ____
ROOT
ATOM      1  O   UNL     1     -23.615 104.151   4.283  0.00  0.00    +0.000 OA
ATOM      2  N   UNL     1     -23.067 102.386   5.722  0.00  0.00    +0.000 N 
ATOM      3  C   UNL     1     -23.242 101.041   6.074  0.00  0.00    +0.000 C 
ATOM      4  C   UNL     1     -24.122 100.459   5.299  0.00  0.00    +0.000 C 
ATOM      5  C   UNL     1     -24.963 100.826   4.207  0.00  0.00    +0.000 C 
ATOM      6  C   UNL     1     -23.761 102.998   4.662  0.00  0.00    +0.000 C 
ATOM      7  C   UNL     1     -24.672 102.079   4.022  0.00  0.00    +0.000 C 
ATOM      8  C   UNL     1     -26.373 100.342   4.144  0.00  0.00    +0.000 C 
ENDROOT
BRANCH   3   9
ATOM      9  C   UNL     1     -22.544 100.370   7.132  0.00  0.00    +0.000 A 
ATOM     10  C   UNL     1     -22.772 100.625   8.536  0.00  0.00    +0.000 A 
ATOM     11  C   UNL     1     -21.959 100.198   9.779  0.00  0.00    +0.000 A 
ATOM     12  C   UNL     1     -20.693  99.362   9.509  0.00  0.00    +0.000 A 
ATOM     13  C   UNL     1     -20.363  99.035   8.041  0.00  0.00    +0.000 A 
ATOM     14  C   UNL     1     -21.346  99.584   6.982  0.00  0.00    +0.000 A 
ENDBRANCH   3   9
BRANCH   2  15
ATOM     15  O   UNL     1     -22.090 103.147   6.393  0.00  0.00    +0.000 OA
ATOM     16  H   UNL     1     -22.562 103.985   6.577  0.00  0.00    +0.000 HD
ENDBRANCH   2  15
TORSDOF 2
ENDMDL
MODEL 2
REMARK VINA RESULT:      -5.1      1.900      5.427
REMARK  Name = Ciclopirox.pdbqt.pdb
REMARK  2 active torsions:
REMARK  status: ('A' for Active; 'I' for Inactive)
REMARK    1  A    between atoms: N_2  and  O_15
REMARK    2  A    between atoms: C_3  and  C_9
REMARK                            x       y       z     vdW  Elec       q    Type
REMARK                         _______ _______ _______ _____ _____    ______ ____
ROOT
ATOM      1  O   UNL     1     -21.501 100.522  10.708  0.00  0.00    +0.000 OA
ATOM      2  N   UNL     1     -22.387 100.883   8.570  0.00  0.00    +0.000 N 
ATOM      3  C   UNL     1     -22.428 100.508   7.220  0.00  0.00    +0.000 C 
ATOM      4  C   UNL     1     -21.588  99.533   6.974  0.00  0.00    +0.000 C 
ATOM      5  C   UNL     1     -20.633  98.764   7.701  0.00  0.00    +0.000 C 
ATOM      6  C   UNL     1     -21.545 100.266   9.513  0.00  0.00    +0.000 C 
ATOM      7  C   UNL     1     -20.731  99.238   8.907  0.00  0.00    +0.000 C 
ATOM      8  C   UNL     1     -19.304  98.447   7.101  0.00  0.00    +0.000 C 
ENDROOT
BRANCH   3   9
ATOM      9  C   UNL     1     -23.283 101.093   6.229  0.00  0.00    +0.000 A 
ATOM     10  C   UNL     1     -24.168 100.333   5.378  0.00  0.00    +0.000 A 
ATOM     11  C   UNL     1     -24.952 100.753   4.113  0.00  0.00    +0.000 A 
ATOM     12  C   UNL     1     -24.783 102.217   3.665  0.00  0.00    +0.000 A 
ATOM     13  C   UNL     1     -23.859 103.113   4.510  0.00  0.00    +0.000 A 
ATOM     14  C   UNL     1     -23.192 102.443   5.732  0.00  0.00    +0.000 A 
ENDBRANCH   3   9
BRANCH   2  15
ATOM     15  O   UNL     1     -23.290 101.859   9.036  0.00  0.00    +0.000 OA
ATOM     16  H   UNL     1     -23.369 102.460   8.267  0.00  0.00    +0.000 HD
ENDBRANCH   2  15
TORSDOF 2
ENDMDL
MODEL 3
REMARK VINA RESULT:      -4.9      3.391      6.765
REMARK  Name = Ciclopirox.pdbqt.pdb
REMARK  2 active torsions:
REMARK  status: ('A' for Active; 'I' for Inactive)
REMARK    1  A    between atoms: N_2  and  O_15
REMARK    2  A    between atoms: C_3  and  C_9
REMARK                            x       y       z     vdW  Elec       q    Type
REMARK                         _______ _______ _______ _____ _____    ______ ____
ROOT
ATOM      1  O   UNL     1     -21.572 103.036   5.379  0.00  0.00    +0.000 OA
ATOM      2  N   UNL     1     -22.623 103.333   3.308  0.00  0.00    +0.000 N 
ATOM      3  C   UNL     1     -23.733 103.079   2.490  0.00  0.00    +0.000 C 
ATOM      4  C   UNL     1     -24.599 102.304   3.094  0.00  0.00    +0.000 C 
ATOM      5  C   UNL     1     -24.711 101.635   4.348  0.00  0.00    +0.000 C 
ATOM      6  C   UNL     1     -22.493 102.811   4.608  0.00  0.00    +0.000 C 
ATOM      7  C   UNL     1     -23.619 101.978   4.962  0.00  0.00    +0.000 C 
ATOM      8  C   UNL     1     -25.229 100.237   4.416  0.00  0.00    +0.000 C 
ENDROOT
BRANCH   3   9
ATOM      9  C   UNL     1     -23.918 103.604   1.169  0.00  0.00    +0.000 A 
ATOM     10  C   UNL     1     -24.765 104.734   0.862  0.00  0.00    +0.000 A 
ATOM     11  C   UNL     1     -25.275 105.267  -0.497  0.00  0.00    +0.000 A 
ATOM     12  C   UNL     1     -24.821 104.488  -1.746  0.00  0.00    +0.000 A 
ATOM     13  C   UNL     1     -23.912 103.265  -1.524  0.00  0.00    +0.000 A 
ATOM     14  C   UNL     1     -23.546 102.944  -0.058  0.00  0.00    +0.000 A 
ENDBRANCH   3   9
BRANCH   2  15
ATOM     15  O   UNL     1     -21.630 104.223   2.855  0.00  0.00    +0.000 OA
ATOM     16  H   UNL     1     -20.984 103.622   2.431  0.00  0.00    +0.000 HD
ENDBRANCH   2  15
TORSDOF 2
ENDMDL
MODEL 4
REMARK VINA RESULT:      -4.8     13.317     14.204
REMARK  Name = Ciclopirox.pdbqt.pdb
REMARK  2 active torsions:
REMARK  status: ('A' for Active; 'I' for Inactive)
REMARK    1  A    between atoms: N_2  and  O_15
REMARK    2  A    between atoms: C_3  and  C_9
REMARK                            x       y       z     vdW  Elec       q    Type
REMARK                         _______ _______ _______ _____ _____    ______ ____
ROOT
ATOM      1  O   UNL     1     -36.400  98.083  16.836  0.00  0.00    +0.000 OA
ATOM      2  N   UNL     1     -34.454  99.018  15.928  0.00  0.00    +0.000 N 
ATOM      3  C   UNL     1     -33.868  99.804  14.926  0.00  0.00    +0.000 C 
ATOM      4  C   UNL     1     -34.760 100.205  14.056  0.00  0.00    +0.000 C 
ATOM      5  C   UNL     1     -36.160 100.045  13.840  0.00  0.00    +0.000 C 
ATOM      6  C   UNL     1     -35.829  98.723  15.964  0.00  0.00    +0.000 C 
ATOM      7  C   UNL     1     -36.529  99.305  14.843  0.00  0.00    +0.000 C 
ATOM      8  C   UNL     1     -36.691  99.804  12.466  0.00  0.00    +0.000 C 
ENDROOT
BRANCH   3   9
ATOM      9  C   UNL     1     -32.477 100.146  14.858  0.00  0.00    +0.000 A 
ATOM     10  C   UNL     1     -31.404  99.192  15.015  0.00  0.00    +0.000 A 
ATOM     11  C   UNL     1     -29.888  99.411  15.223  0.00  0.00    +0.000 A 
ATOM     12  C   UNL     1     -29.414 100.876  15.275  0.00  0.00    +0.000 A 
ATOM     13  C   UNL     1     -30.484 101.970  15.115  0.00  0.00    +0.000 A 
ATOM     14  C   UNL     1     -31.936 101.481  14.918  0.00  0.00    +0.000 A 
ENDBRANCH   3   9
BRANCH   2  15
ATOM     15  O   UNL     1     -33.658  98.572  17.001  0.00  0.00    +0.000 OA
ATOM     16  H   UNL     1     -33.039  99.320  17.131  0.00  0.00    +0.000 HD
ENDBRANCH   2  15
TORSDOF 2
ENDMDL
MODEL 5
REMARK VINA RESULT:      -4.8     13.410     14.158
REMARK  Name = Ciclopirox.pdbqt.pdb
REMARK  2 active torsions:
REMARK  status: ('A' for Active; 'I' for Inactive)
REMARK    1  A    between atoms: N_2  and  O_15
REMARK    2  A    between atoms: C_3  and  C_9
REMARK                            x       y       z     vdW  Elec       q    Type
REMARK                         _______ _______ _______ _____ _____    ______ ____
ROOT
ATOM      1  O   UNL     1     -36.425 103.541  15.765  0.00  0.00    +0.000 OA
ATOM      2  N   UNL     1     -34.861 101.854  15.328  0.00  0.00    +0.000 N 
ATOM      3  C   UNL     1     -34.464 100.781  14.518  0.00  0.00    +0.000 C 
ATOM      4  C   UNL     1     -35.341 100.550  13.574  0.00  0.00    +0.000 C 
ATOM      5  C   UNL     1     -36.597 101.080  13.158  0.00  0.00    +0.000 C 
ATOM      6  C   UNL     1     -36.053 102.572  15.120  0.00  0.00    +0.000 C 
ATOM      7  C   UNL     1     -36.802 102.046  14.003  0.00  0.00    +0.000 C 
ATOM      8  C   UNL     1     -37.703 100.168  12.743  0.00  0.00    +0.000 C 
ENDROOT
BRANCH   3   9
ATOM      9  C   UNL     1     -33.250 100.034  14.680  0.00  0.00    +0.000 A 
ATOM     10  C   UNL     1     -33.136  98.849  15.499  0.00  0.00    +0.000 A 
ATOM     11  C   UNL     1     -31.886  98.080  15.985  0.00  0.00    +0.000 A 
ATOM     12  C   UNL     1     -30.525  98.646  15.537  0.00  0.00    +0.000 A 
ATOM     13  C   UNL     1     -30.539  99.909  14.657  0.00  0.00    +0.000 A 
ATOM     14  C   UNL     1     -31.931 100.484  14.312  0.00  0.00    +0.000 A 
ENDBRANCH   3   9
BRANCH   2  15
ATOM     15  O   UNL     1     -33.993 102.302  16.343  0.00  0.00    +0.000 OA
ATOM     16  H   UNL     1     -33.123 102.304  15.893  0.00  0.00    +0.000 HD
ENDBRANCH   2  15
TORSDOF 2
ENDMDL
MODEL 6
REMARK VINA RESULT:      -4.7     27.878     29.088
REMARK  Name = Ciclopirox.pdbqt.pdb
REMARK  2 active torsions:
REMARK  status: ('A' for Active; 'I' for Inactive)
REMARK    1  A    between atoms: N_2  and  O_15
REMARK    2  A    between atoms: C_3  and  C_9
REMARK                            x       y       z     vdW  Elec       q    Type
REMARK                         _______ _______ _______ _____ _____    ______ ____
ROOT
ATOM      1  O   UNL     1     -40.623  79.856   4.687  0.00  0.00    +0.000 OA
ATOM      2  N   UNL     1     -42.562  81.042   5.251  0.00  0.00    +0.000 N 
ATOM      3  C   UNL     1     -43.880  81.009   5.728  0.00  0.00    +0.000 C 
ATOM      4  C   UNL     1     -44.272  79.780   5.954  0.00  0.00    +0.000 C 
ATOM      5  C   UNL     1     -43.730  78.468   5.829  0.00  0.00    +0.000 C 
ATOM      6  C   UNL     1     -41.788  79.883   5.057  0.00  0.00    +0.000 C 
ATOM      7  C   UNL     1     -42.529  78.687   5.384  0.00  0.00    +0.000 C 
ATOM      8  C   UNL     1     -44.563  77.354   5.287  0.00  0.00    +0.000 C 
ENDROOT
BRANCH   3   9
ATOM      9  C   UNL     1     -44.699  82.163   5.960  0.00  0.00    +0.000 A 
ATOM     10  C   UNL     1     -44.860  83.241   5.012  0.00  0.00    +0.000 A 
ATOM     11  C   UNL     1     -45.479  84.647   5.184  0.00  0.00    +0.000 A 
ATOM     12  C   UNL     1     -46.024  84.982   6.586  0.00  0.00    +0.000 A 
ATOM     13  C   UNL     1     -45.901  83.895   7.669  0.00  0.00    +0.000 A 
ATOM     14  C   UNL     1     -45.238  82.569   7.234  0.00  0.00    +0.000 A 
ENDBRANCH   3   9
BRANCH   2  15
ATOM     15  O   UNL     1     -41.943  82.289   5.038  0.00  0.00    +0.000 OA
ATOM     16  H   UNL     1     -42.695  82.858   4.776  0.00  0.00    +0.000 HD
ENDBRANCH   2  15
TORSDOF 2
ENDMDL
MODEL 7
REMARK VINA RESULT:      -4.7     27.872     28.768
REMARK  Name = Ciclopirox.pdbqt.pdb
REMARK  2 active torsions:
REMARK  status: ('A' for Active; 'I' for Inactive)
REMARK    1  A    between atoms: N_2  and  O_15
REMARK    2  A    between atoms: C_3  and  C_9
REMARK                            x       y       z     vdW  Elec       q    Type
REMARK                         _______ _______ _______ _____ _____    ______ ____
ROOT
ATOM      1  O   UNL     1     -43.004  82.617   1.686  0.00  0.00    +0.000 OA
ATOM      2  N   UNL     1     -44.418  83.103   3.488  0.00  0.00    +0.000 N 
ATOM      3  C   UNL     1     -44.728  82.912   4.842  0.00  0.00    +0.000 C 
ATOM      4  C   UNL     1     -43.904  82.062   5.401  0.00  0.00    +0.000 C 
ATOM      5  C   UNL     1     -42.790  81.266   5.004  0.00  0.00    +0.000 C 
ATOM      6  C   UNL     1     -43.347  82.454   2.848  0.00  0.00    +0.000 C 
ATOM      7  C   UNL     1     -42.648  81.566   3.748  0.00  0.00    +0.000 C 
ATOM      8  C   UNL     1     -42.658  79.859   5.482  0.00  0.00    +0.000 C 
ENDROOT
BRANCH   3   9
ATOM      9  C   UNL     1     -45.796  83.566   5.541  0.00  0.00    +0.000 A 
ATOM     10  C   UNL     1     -45.607  84.685   6.435  0.00  0.00    +0.000 A 
ATOM     11  C   UNL     1     -46.577  85.338   7.446  0.00  0.00    +0.000 A 
ATOM     12  C   UNL     1     -47.983  84.715   7.537  0.00  0.00    +0.000 A 
ATOM     13  C   UNL     1     -48.285  83.515   6.620  0.00  0.00    +0.000 A 
ATOM     14  C   UNL     1     -47.135  83.057   5.696  0.00  0.00    +0.000 A 
ENDBRANCH   3   9
BRANCH   2  15
ATOM     15  O   UNL     1     -45.146  84.055   2.748  0.00  0.00    +0.000 OA
ATOM     16  H   UNL     1     -45.250  84.788   3.388  0.00  0.00    +0.000 HD
ENDBRANCH   2  15
TORSDOF 2
ENDMDL
MODEL 8
REMARK VINA RESULT:      -4.6      4.890      7.939
REMARK  Name = Ciclopirox.pdbqt.pdb
REMARK  2 active torsions:
REMARK  status: ('A' for Active; 'I' for Inactive)
REMARK    1  A    between atoms: N_2  and  O_15
REMARK    2  A    between atoms: C_3  and  C_9
REMARK                            x       y       z     vdW  Elec       q    Type
REMARK                         _______ _______ _______ _____ _____    ______ ____
ROOT
ATOM      1  O   UNL     1     -24.629 101.986   4.072  0.00  0.00    +0.000 OA
ATOM      2  N   UNL     1     -24.127 102.642   1.881  0.00  0.00    +0.000 N 
ATOM      3  C   UNL     1     -24.125 103.657   0.915  0.00  0.00    +0.000 C 
ATOM      4  C   UNL     1     -24.663 104.757   1.381  0.00  0.00    +0.000 C 
ATOM      5  C   UNL     1     -25.265 105.195   2.596  0.00  0.00    +0.000 C 
ATOM      6  C   UNL     1     -24.642 102.819   3.178  0.00  0.00    +0.000 C 
ATOM      7  C   UNL     1     -25.180 104.147   3.360  0.00  0.00    +0.000 C 
ATOM      8  C   UNL     1     -26.500 106.033   2.569  0.00  0.00    +0.000 C 
ENDROOT
BRANCH   3   9
ATOM      9  C   UNL     1     -23.593 103.530  -0.411  0.00  0.00    +0.000 A 
ATOM     10  C   UNL     1     -22.187 103.631  -0.728  0.00  0.00    +0.000 A 
ATOM     11  C   UNL     1     -21.473 103.772  -2.092  0.00  0.00    +0.000 A 
ATOM     12  C   UNL     1     -22.383 103.813  -3.334  0.00  0.00    +0.000 A 
ATOM     13  C   UNL     1     -23.901 103.710  -3.101  0.00  0.00    +0.000 A 
ATOM     14  C   UNL     1     -24.359 103.575  -1.632  0.00  0.00    +0.000 A 
ENDBRANCH   3   9
BRANCH   2  15
ATOM     15  O   UNL     1     -23.504 101.414   1.584  0.00  0.00    +0.000 OA
ATOM     16  H   UNL     1     -24.134 101.004   0.956  0.00  0.00    +0.000 HD
ENDBRANCH   2  15
TORSDOF 2
ENDMDL
MODEL 9
REMARK VINA RESULT:      -4.5     12.025     13.634
REMARK  Name = Ciclopirox.pdbqt.pdb
REMARK  2 active torsions:
REMARK  status: ('A' for Active; 'I' for Inactive)
REMARK    1  A    between atoms: N_2  and  O_15
REMARK    2  A    between atoms: C_3  and  C_9
REMARK                            x       y       z     vdW  Elec       q    Type
REMARK                         _______ _______ _______ _____ _____    ______ ____
ROOT
ATOM      1  O   UNL     1     -30.481 103.181  18.235  0.00  0.00    +0.000 OA
ATOM      2  N   UNL     1     -31.629 102.076  16.519  0.00  0.00    +0.000 N 
ATOM      3  C   UNL     1     -31.585 101.175  15.447  0.00  0.00    +0.000 C 
ATOM      4  C   UNL     1     -30.367 100.736  15.246  0.00  0.00    +0.000 C 
ATOM      5  C   UNL     1     -29.074 100.940  15.809  0.00  0.00    +0.000 C 
ATOM      6  C   UNL     1     -30.493 102.436  17.265  0.00  0.00    +0.000 C 
ATOM      7  C   UNL     1     -29.302 101.786  16.769  0.00  0.00    +0.000 C 
ATOM      8  C   UNL     1     -27.878 101.078  14.927  0.00  0.00    +0.000 C 
ENDROOT
BRANCH   3   9
ATOM      9  C   UNL     1     -32.719 100.763  14.671  0.00  0.00    +0.000 A 
ATOM     10  C   UNL     1     -33.223 101.493  13.530  0.00  0.00    +0.000 A 
ATOM     11  C   UNL     1     -34.549 101.346  12.750  0.00  0.00    +0.000 A 
ATOM     12  C   UNL     1     -35.511 100.249  13.245  0.00  0.00    +0.000 A 
ATOM     13  C   UNL     1     -35.063  99.412  14.458  0.00  0.00    +0.000 A 
ATOM     14  C   UNL     1     -33.683  99.763  15.057  0.00  0.00    +0.000 A 
ENDBRANCH   3   9
BRANCH   2  15
ATOM     15  O   UNL     1     -32.876 102.582  16.936  0.00  0.00    +0.000 OA
ATOM     16  H   UNL     1     -33.005 103.348  16.340  0.00  0.00    +0.000 HD
ENDBRANCH   2  15
TORSDOF 2
ENDMDL
