MODEL 1
REMARK VINA RESULT:      -5.3      0.000      0.000
REMARK  Name = 
REMARK  14 active torsions:
REMARK  status: ('A' for Active; 'I' for Inactive)
REMARK    1  A    between atoms: S_2  and  C_21
REMARK    2  A    between atoms: S_2  and  C_27
REMARK    3  A    between atoms: O_4  and  C_16
REMARK    4  A    between atoms: O_5  and  C_18
REMARK    5  A    between atoms: O_6  and  C_20
REMARK    6  A    between atoms: N_8  and  C_23
REMARK    7  A    between atoms: N_9  and  C_15
REMARK    8  A    between atoms: C_10  and  C_17
REMARK    9  A    between atoms: C_11  and  C_19
REMARK   10  A    between atoms: C_14  and  C_15
REMARK   11  A    between atoms: C_15  and  C_22
REMARK   12  A    between atoms: C_17  and  C_24
REMARK   13  A    between atoms: C_22  and  C_25
REMARK   14  A    between atoms: C_24  and  C_26
REMARK                            x       y       z     vdW  Elec       q    Type
REMARK                         _______ _______ _______ _____ _____    ______ ____
ROOT
ATOM      1  C   UNL     1     -32.113  98.076  17.773  0.00  0.00    +0.000 C 
ENDROOT
BRANCH   1   3
ATOM      2  O   UNL     1     -30.502  98.921  16.177  0.00  0.00    +0.000 OA
ATOM      3  C   UNL     1     -31.635  99.327  16.974  0.00  0.00    +0.000 C 
ATOM      4  C   UNL     1     -32.736  99.951  16.091  0.00  0.00    +0.000 C 
ATOM      5  C   UNL     1     -32.167 101.100  15.249  0.00  0.00    +0.000 C 
ATOM      6  C   UNL     1     -30.953 100.619  14.442  0.00  0.00    +0.000 C 
ATOM      7  C   UNL     1     -29.920  99.949  15.370  0.00  0.00    +0.000 C 
BRANCH   7   8
ATOM      8  S   UNL     1     -28.985 101.166  16.387  0.00  0.00    +0.000 S 
ATOM      9  C   UNL     1     -27.542 101.361  15.313  0.00  0.00    +0.000 C 
ENDBRANCH   7   8
BRANCH   4  10
ATOM     10  O   UNL     1     -33.294  98.988  15.182  0.00  0.00    +0.000 OA
ATOM     11  H   UNL     1     -33.042  98.098  15.526  0.00  0.00    +0.000 HD
ENDBRANCH   4  10
BRANCH   5  12
ATOM     12  O   UNL     1     -33.196 101.586  14.374  0.00  0.00    +0.000 OA
ATOM     13  H   UNL     1     -34.005 101.619  14.923  0.00  0.00    +0.000 HD
ENDBRANCH   5  12
BRANCH   6  14
ATOM     14  O   UNL     1     -30.367 101.683  13.677  0.00  0.00    +0.000 OA
ATOM     15  H   UNL     1     -29.605 102.013  14.185  0.00  0.00    +0.000 HD
ENDBRANCH   6  14
ENDBRANCH   1   3
BRANCH   1  17
ATOM     16  O   UNL     1     -33.589  95.678  17.795  0.00  0.00    +0.000 OA
ATOM     17  N   UNL     1     -33.579  97.951  17.791  0.00  0.00    +0.000 N 
ATOM     18  C   UNL     1     -34.225  96.730  17.838  0.00  0.00    +0.000 C 
ATOM     19  H   UNL     1     -34.126  98.805  17.730  0.00  0.00    +0.000 HD
BRANCH  18  22
ATOM     20  N   UNL     1     -36.250  97.367  19.159  0.00  0.00    +0.000 NA
ATOM     21  C   UNL     1     -37.115  98.851  17.618  0.00  0.00    +0.000 C 
ATOM     22  C   UNL     1     -35.762  96.842  17.869  0.00  0.00    +0.000 C 
ATOM     23  C   UNL     1     -36.286  97.838  16.824  0.00  0.00    +0.000 C 
ATOM     24  C   UNL     1     -37.496  98.073  18.872  0.00  0.00    +0.000 C 
ATOM     25  C   UNL     1     -36.410  96.335  20.173  0.00  0.00    +0.000 C 
BRANCH  21  26
ATOM     26  C   UNL     1     -38.330  99.405  16.872  0.00  0.00    +0.000 C 
BRANCH  26  27
ATOM     27  C   UNL     1     -37.940 100.164  15.602  0.00  0.00    +0.000 C 
ATOM     28  C   UNL     1     -38.564  99.536  14.366  0.00  0.00    +0.000 C 
ENDBRANCH  26  27
ENDBRANCH  21  26
ENDBRANCH  18  22
ENDBRANCH   1  17
BRANCH   1  30
ATOM     29 CL   UNL     1     -30.115  96.977  19.343  0.00  0.00    +0.000 Cl
ATOM     30  C   UNL     1     -31.549  98.059  19.221  0.00  0.00    +0.000 C 
ATOM     31  C   UNL     1     -31.144  99.455  19.693  0.00  0.00    +0.000 C 
ENDBRANCH   1  30
TORSDOF 10
ENDMDL
MODEL 2
REMARK VINA RESULT:      -4.8      2.928      4.726
REMARK  Name = 
REMARK  14 active torsions:
REMARK  status: ('A' for Active; 'I' for Inactive)
REMARK    1  A    between atoms: S_2  and  C_21
REMARK    2  A    between atoms: S_2  and  C_27
REMARK    3  A    between atoms: O_4  and  C_16
REMARK    4  A    between atoms: O_5  and  C_18
REMARK    5  A    between atoms: O_6  and  C_20
REMARK    6  A    between atoms: N_8  and  C_23
REMARK    7  A    between atoms: N_9  and  C_15
REMARK    8  A    between atoms: C_10  and  C_17
REMARK    9  A    between atoms: C_11  and  C_19
REMARK   10  A    between atoms: C_14  and  C_15
REMARK   11  A    between atoms: C_15  and  C_22
REMARK   12  A    between atoms: C_17  and  C_24
REMARK   13  A    between atoms: C_22  and  C_25
REMARK   14  A    between atoms: C_24  and  C_26
REMARK                            x       y       z     vdW  Elec       q    Type
REMARK                         _______ _______ _______ _____ _____    ______ ____
ROOT
ATOM      1  C   UNL     1     -34.391  99.120  15.917  0.00  0.00    +0.000 C 
ENDROOT
BRANCH   1   3
ATOM      2  O   UNL     1     -32.081  98.429  15.712  0.00  0.00    +0.000 OA
ATOM      3  C   UNL     1     -32.903  99.576  16.016  0.00  0.00    +0.000 C 
ATOM      4  C   UNL     1     -32.559 100.763  15.092  0.00  0.00    +0.000 C 
ATOM      5  C   UNL     1     -31.060 101.080  15.154  0.00  0.00    +0.000 C 
ATOM      6  C   UNL     1     -30.236  99.822  14.845  0.00  0.00    +0.000 C 
ATOM      7  C   UNL     1     -30.670  98.656  15.756  0.00  0.00    +0.000 C 
BRANCH   7   8
ATOM      8  S   UNL     1     -30.064  98.844  17.485  0.00  0.00    +0.000 S 
ATOM      9  C   UNL     1     -30.983  97.483  18.241  0.00  0.00    +0.000 C 
ENDBRANCH   7   8
BRANCH   4  10
ATOM     10  O   UNL     1     -32.881 100.475  13.721  0.00  0.00    +0.000 OA
ATOM     11  H   UNL     1     -32.554  99.562  13.541  0.00  0.00    +0.000 HD
ENDBRANCH   4  10
BRANCH   5  12
ATOM     12  O   UNL     1     -30.767 102.121  14.210  0.00  0.00    +0.000 OA
ATOM     13  H   UNL     1     -30.424 102.864  14.746  0.00  0.00    +0.000 HD
ENDBRANCH   5  12
BRANCH   6  14
ATOM     14  O   UNL     1     -28.826 100.073  14.940  0.00  0.00    +0.000 OA
ATOM     15  H   UNL     1     -28.414  99.694  14.143  0.00  0.00    +0.000 HD
ENDBRANCH   6  14
ENDBRANCH   1   3
BRANCH   1  17
ATOM     16  O   UNL     1     -35.886  99.705  13.604  0.00  0.00    +0.000 OA
ATOM     17  N   UNL     1     -35.311 100.254  15.734  0.00  0.00    +0.000 N 
ATOM     18  C   UNL     1     -36.036 100.448  14.573  0.00  0.00    +0.000 C 
ATOM     19  H   UNL     1     -35.378 100.933  16.485  0.00  0.00    +0.000 HD
BRANCH  18  22
ATOM     20  N   UNL     1     -36.847 102.487  13.374  0.00  0.00    +0.000 NA
ATOM     21  C   UNL     1     -39.098 101.993  13.507  0.00  0.00    +0.000 C 
ATOM     22  C   UNL     1     -36.950 101.689  14.612  0.00  0.00    +0.000 C 
ATOM     23  C   UNL     1     -38.434 101.307  14.703  0.00  0.00    +0.000 C 
ATOM     24  C   UNL     1     -38.142 103.139  13.196  0.00  0.00    +0.000 C 
ATOM     25  C   UNL     1     -35.740 103.431  13.391  0.00  0.00    +0.000 C 
BRANCH  21  26
ATOM     26  C   UNL     1     -40.530 102.468  13.758  0.00  0.00    +0.000 C 
BRANCH  26  27
ATOM     27  C   UNL     1     -40.892 102.469  15.245  0.00  0.00    +0.000 C 
ATOM     28  C   UNL     1     -41.656 103.726  15.629  0.00  0.00    +0.000 C 
ENDBRANCH  26  27
ENDBRANCH  21  26
ENDBRANCH  18  22
ENDBRANCH   1  17
BRANCH   1  30
ATOM     29 CL   UNL     1     -34.276  99.022  18.681  0.00  0.00    +0.000 Cl
ATOM     30  C   UNL     1     -34.821  98.265  17.141  0.00  0.00    +0.000 C 
ATOM     31  C   UNL     1     -36.336  98.077  17.204  0.00  0.00    +0.000 C 
ENDBRANCH   1  30
TORSDOF 10
ENDMDL
MODEL 3
REMARK VINA RESULT:      -4.7      4.178      7.817
REMARK  Name = 
REMARK  14 active torsions:
REMARK  status: ('A' for Active; 'I' for Inactive)
REMARK    1  A    between atoms: S_2  and  C_21
REMARK    2  A    between atoms: S_2  and  C_27
REMARK    3  A    between atoms: O_4  and  C_16
REMARK    4  A    between atoms: O_5  and  C_18
REMARK    5  A    between atoms: O_6  and  C_20
REMARK    6  A    between atoms: N_8  and  C_23
REMARK    7  A    between atoms: N_9  and  C_15
REMARK    8  A    between atoms: C_10  and  C_17
REMARK    9  A    between atoms: C_11  and  C_19
REMARK   10  A    between atoms: C_14  and  C_15
REMARK   11  A    between atoms: C_15  and  C_22
REMARK   12  A    between atoms: C_17  and  C_24
REMARK   13  A    between atoms: C_22  and  C_25
REMARK   14  A    between atoms: C_24  and  C_26
REMARK                            x       y       z     vdW  Elec       q    Type
REMARK                         _______ _______ _______ _____ _____    ______ ____
ROOT
ATOM      1  C   UNL     1     -30.388 100.084  18.543  0.00  0.00    +0.000 C 
ENDROOT
BRANCH   1   3
ATOM      2  O   UNL     1     -30.951 101.342  16.554  0.00  0.00    +0.000 OA
ATOM      3  C   UNL     1     -30.002 100.381  17.061  0.00  0.00    +0.000 C 
ATOM      4  C   UNL     1     -28.554 100.891  16.892  0.00  0.00    +0.000 C 
ATOM      5  C   UNL     1     -28.283 101.272  15.432  0.00  0.00    +0.000 C 
ATOM      6  C   UNL     1     -29.334 102.277  14.939  0.00  0.00    +0.000 C 
ATOM      7  C   UNL     1     -30.757 101.738  15.194  0.00  0.00    +0.000 C 
BRANCH   7   8
ATOM      8  S   UNL     1     -31.228 100.400  14.021  0.00  0.00    +0.000 S 
ATOM      9  C   UNL     1     -33.016 100.418  14.296  0.00  0.00    +0.000 C 
ENDBRANCH   7   8
BRANCH   4  10
ATOM     10  O   UNL     1     -28.309 102.059  17.694  0.00  0.00    +0.000 OA
ATOM     11  H   UNL     1     -28.319 101.761  18.634  0.00  0.00    +0.000 HD
ENDBRANCH   4  10
BRANCH   5  12
ATOM     12  O   UNL     1     -26.965 101.832  15.336  0.00  0.00    +0.000 OA
ATOM     13  H   UNL     1     -26.371 101.154  15.717  0.00  0.00    +0.000 HD
ENDBRANCH   5  12
BRANCH   6  14
ATOM     14  O   UNL     1     -29.137 102.620  13.559  0.00  0.00    +0.000 OA
ATOM     15  H   UNL     1     -28.180 102.566  13.385  0.00  0.00    +0.000 HD
ENDBRANCH   6  14
ENDBRANCH   1   3
BRANCH   1  17
ATOM     16  O   UNL     1     -30.417 101.324  21.071  0.00  0.00    +0.000 OA
ATOM     17  N   UNL     1     -29.245 100.232  19.458  0.00  0.00    +0.000 N 
ATOM     18  C   UNL     1     -29.355 100.825  20.702  0.00  0.00    +0.000 C 
ATOM     19  H   UNL     1     -28.337  99.913  19.134  0.00  0.00    +0.000 HD
BRANCH  18  22
ATOM     20  N   UNL     1     -28.071 101.840  22.593  0.00  0.00    +0.000 NA
ATOM     21  C   UNL     1     -27.581  99.860  23.671  0.00  0.00    +0.000 C 
ATOM     22  C   UNL     1     -28.033 100.854  21.495  0.00  0.00    +0.000 C 
ATOM     23  C   UNL     1     -27.753  99.514  22.190  0.00  0.00    +0.000 C 
ATOM     24  C   UNL     1     -27.184 101.331  23.635  0.00  0.00    +0.000 C 
ATOM     25  C   UNL     1     -27.721 103.186  22.165  0.00  0.00    +0.000 C 
BRANCH  21  26
ATOM     26  C   UNL     1     -26.566  98.990  24.416  0.00  0.00    +0.000 C 
BRANCH  26  27
ATOM     27  C   UNL     1     -26.813  97.495  24.206  0.00  0.00    +0.000 C 
ATOM     28  C   UNL     1     -27.959  96.995  25.071  0.00  0.00    +0.000 C 
ENDBRANCH  26  27
ENDBRANCH  21  26
ENDBRANCH  18  22
ENDBRANCH   1  17
BRANCH   1  30
ATOM     29 CL   UNL     1     -31.672  98.077  17.134  0.00  0.00    +0.000 Cl
ATOM     30  C   UNL     1     -31.035  98.681  18.706  0.00  0.00    +0.000 C 
ATOM     31  C   UNL     1     -30.044  97.654  19.253  0.00  0.00    +0.000 C 
ENDBRANCH   1  30
TORSDOF 10
ENDMDL
MODEL 4
REMARK VINA RESULT:      -4.7     13.977     15.547
REMARK  Name = 
REMARK  14 active torsions:
REMARK  status: ('A' for Active; 'I' for Inactive)
REMARK    1  A    between atoms: S_2  and  C_21
REMARK    2  A    between atoms: S_2  and  C_27
REMARK    3  A    between atoms: O_4  and  C_16
REMARK    4  A    between atoms: O_5  and  C_18
REMARK    5  A    between atoms: O_6  and  C_20
REMARK    6  A    between atoms: N_8  and  C_23
REMARK    7  A    between atoms: N_9  and  C_15
REMARK    8  A    between atoms: C_10  and  C_17
REMARK    9  A    between atoms: C_11  and  C_19
REMARK   10  A    between atoms: C_14  and  C_15
REMARK   11  A    between atoms: C_15  and  C_22
REMARK   12  A    between atoms: C_17  and  C_24
REMARK   13  A    between atoms: C_22  and  C_25
REMARK   14  A    between atoms: C_24  and  C_26
REMARK                            x       y       z     vdW  Elec       q    Type
REMARK                         _______ _______ _______ _____ _____    ______ ____
ROOT
ATOM      1  C   UNL     1     -35.683 105.863   4.410  0.00  0.00    +0.000 C 
ENDROOT
BRANCH   1   3
ATOM      2  O   UNL     1     -33.433 106.072   3.542  0.00  0.00    +0.000 OA
ATOM      3  C   UNL     1     -34.814 106.311   3.194  0.00  0.00    +0.000 C 
ATOM      4  C   UNL     1     -35.183 105.596   1.877  0.00  0.00    +0.000 C 
ATOM      5  C   UNL     1     -34.216 105.996   0.756  0.00  0.00    +0.000 C 
ATOM      6  C   UNL     1     -32.765 105.743   1.187  0.00  0.00    +0.000 C 
ATOM      7  C   UNL     1     -32.478 106.428   2.539  0.00  0.00    +0.000 C 
BRANCH   7   8
ATOM      8  S   UNL     1     -32.300 108.255   2.385  0.00  0.00    +0.000 S 
ATOM      9  C   UNL     1     -30.658 108.428   3.122  0.00  0.00    +0.000 C 
ENDBRANCH   7   8
BRANCH   4  10
ATOM     10  O   UNL     1     -35.114 104.167   2.014  0.00  0.00    +0.000 OA
ATOM     11  H   UNL     1     -34.732 103.822   1.172  0.00  0.00    +0.000 HD
ENDBRANCH   4  10
BRANCH   5  12
ATOM     12  O   UNL     1     -34.533 105.238  -0.421  0.00  0.00    +0.000 OA
ATOM     13  H   UNL     1     -33.883 105.525  -1.094  0.00  0.00    +0.000 HD
ENDBRANCH   5  12
BRANCH   6  14
ATOM     14  O   UNL     1     -31.831 106.151   0.178  0.00  0.00    +0.000 OA
ATOM     15  H   UNL     1     -30.958 105.806   0.440  0.00  0.00    +0.000 HD
ENDBRANCH   6  14
ENDBRANCH   1   3
BRANCH   1  17
ATOM     16  O   UNL     1     -36.582 103.196   4.458  0.00  0.00    +0.000 OA
ATOM     17  N   UNL     1     -37.011 105.380   3.999  0.00  0.00    +0.000 N 
ATOM     18  C   UNL     1     -37.384 104.052   4.089  0.00  0.00    +0.000 C 
ATOM     19  H   UNL     1     -37.656 106.056   3.601  0.00  0.00    +0.000 HD
BRANCH  18  22
ATOM     20  N   UNL     1     -38.861 103.040   2.344  0.00  0.00    +0.000 NA
ATOM     21  C   UNL     1     -40.075 101.695   3.773  0.00  0.00    +0.000 C 
ATOM     22  C   UNL     1     -38.827 103.780   3.621  0.00  0.00    +0.000 C 
ATOM     23  C   UNL     1     -39.591 102.884   4.606  0.00  0.00    +0.000 C 
ATOM     24  C   UNL     1     -40.092 102.254   2.356  0.00  0.00    +0.000 C 
ATOM     25  C   UNL     1     -38.759 103.905   1.178  0.00  0.00    +0.000 C 
BRANCH  21  26
ATOM     26  C   UNL     1     -41.427 101.124   4.202  0.00  0.00    +0.000 C 
BRANCH  26  27
ATOM     27  C   UNL     1     -42.409 101.009   3.033  0.00  0.00    +0.000 C 
ATOM     28  C   UNL     1     -43.848 101.161   3.501  0.00  0.00    +0.000 C 
ENDBRANCH  26  27
ENDBRANCH  21  26
ENDBRANCH  18  22
ENDBRANCH   1  17
BRANCH   1  30
ATOM     29 CL   UNL     1     -37.427 106.921   6.281  0.00  0.00    +0.000 Cl
ATOM     30  C   UNL     1     -35.819 106.988   5.473  0.00  0.00    +0.000 C 
ATOM     31  C   UNL     1     -34.735 106.896   6.546  0.00  0.00    +0.000 C 
ENDBRANCH   1  30
TORSDOF 10
ENDMDL
MODEL 5
REMARK VINA RESULT:      -4.7     14.285     15.488
REMARK  Name = 
REMARK  14 active torsions:
REMARK  status: ('A' for Active; 'I' for Inactive)
REMARK    1  A    between atoms: S_2  and  C_21
REMARK    2  A    between atoms: S_2  and  C_27
REMARK    3  A    between atoms: O_4  and  C_16
REMARK    4  A    between atoms: O_5  and  C_18
REMARK    5  A    between atoms: O_6  and  C_20
REMARK    6  A    between atoms: N_8  and  C_23
REMARK    7  A    between atoms: N_9  and  C_15
REMARK    8  A    between atoms: C_10  and  C_17
REMARK    9  A    between atoms: C_11  and  C_19
REMARK   10  A    between atoms: C_14  and  C_15
REMARK   11  A    between atoms: C_15  and  C_22
REMARK   12  A    between atoms: C_17  and  C_24
REMARK   13  A    between atoms: C_22  and  C_25
REMARK   14  A    between atoms: C_24  and  C_26
REMARK                            x       y       z     vdW  Elec       q    Type
REMARK                         _______ _______ _______ _____ _____    ______ ____
ROOT
ATOM      1  C   UNL     1     -38.913 105.449   5.300  0.00  0.00    +0.000 C 
ENDROOT
BRANCH   1   3
ATOM      2  O   UNL     1     -36.576 106.040   5.515  0.00  0.00    +0.000 OA
ATOM      3  C   UNL     1     -37.609 105.822   4.530  0.00  0.00    +0.000 C 
ATOM      4  C   UNL     1     -37.176 104.757   3.500  0.00  0.00    +0.000 C 
ATOM      5  C   UNL     1     -35.830 105.133   2.868  0.00  0.00    +0.000 C 
ATOM      6  C   UNL     1     -34.778 105.375   3.959  0.00  0.00    +0.000 C 
ATOM      7  C   UNL     1     -35.295 106.398   4.990  0.00  0.00    +0.000 C 
BRANCH   7   8
ATOM      8  S   UNL     1     -35.281 108.123   4.346  0.00  0.00    +0.000 S 
ATOM      9  C   UNL     1     -33.915 108.769   5.340  0.00  0.00    +0.000 C 
ENDBRANCH   7   8
BRANCH   4  10
ATOM     10  O   UNL     1     -37.018 103.465   4.111  0.00  0.00    +0.000 OA
ATOM     11  H   UNL     1     -36.748 102.846   3.391  0.00  0.00    +0.000 HD
ENDBRANCH   4  10
BRANCH   5  12
ATOM     12  O   UNL     1     -35.418 104.073   1.993  0.00  0.00    +0.000 OA
ATOM     13  H   UNL     1     -35.808 104.293   1.123  0.00  0.00    +0.000 HD
ENDBRANCH   5  12
BRANCH   6  14
ATOM     14  O   UNL     1     -33.517 105.775   3.402  0.00  0.00    +0.000 OA
ATOM     15  H   UNL     1     -33.037 104.960   3.167  0.00  0.00    +0.000 HD
ENDBRANCH   6  14
ENDBRANCH   1   3
BRANCH   1  17
ATOM     16  O   UNL     1     -40.122 103.264   6.603  0.00  0.00    +0.000 OA
ATOM     17  N   UNL     1     -39.642 104.342   4.660  0.00  0.00    +0.000 N 
ATOM     18  C   UNL     1     -40.239 103.324   5.380  0.00  0.00    +0.000 C 
ATOM     19  H   UNL     1     -39.669 104.320   3.645  0.00  0.00    +0.000 HD
BRANCH  18  22
ATOM     20  N   UNL     1     -42.216 102.820   3.935  0.00  0.00    +0.000 NA
ATOM     21  C   UNL     1     -41.021 102.170   2.071  0.00  0.00    +0.000 C 
ATOM     22  C   UNL     1     -40.963 102.284   4.502  0.00  0.00    +0.000 C 
ATOM     23  C   UNL     1     -40.126 101.883   3.279  0.00  0.00    +0.000 C 
ATOM     24  C   UNL     1     -42.423 102.127   2.666  0.00  0.00    +0.000 C 
ATOM     25  C   UNL     1     -43.352 102.695   4.835  0.00  0.00    +0.000 C 
BRANCH  21  26
ATOM     26  C   UNL     1     -40.844 101.199   0.902  0.00  0.00    +0.000 C 
BRANCH  26  27
ATOM     27  C   UNL     1     -42.173 100.842   0.233  0.00  0.00    +0.000 C 
ATOM     28  C   UNL     1     -42.368 101.615  -1.062  0.00  0.00    +0.000 C 
ENDBRANCH  26  27
ENDBRANCH  21  26
ENDBRANCH  18  22
ENDBRANCH   1  17
BRANCH   1  30
ATOM     29 CL   UNL     1     -41.362 106.488   4.537  0.00  0.00    +0.000 Cl
ATOM     30  C   UNL     1     -39.848 106.675   5.492  0.00  0.00    +0.000 C 
ATOM     31  C   UNL     1     -40.223 106.884   6.959  0.00  0.00    +0.000 C 
ENDBRANCH   1  30
TORSDOF 10
ENDMDL
MODEL 6
REMARK VINA RESULT:      -4.6      3.546      6.997
REMARK  Name = 
REMARK  14 active torsions:
REMARK  status: ('A' for Active; 'I' for Inactive)
REMARK    1  A    between atoms: S_2  and  C_21
REMARK    2  A    between atoms: S_2  and  C_27
REMARK    3  A    between atoms: O_4  and  C_16
REMARK    4  A    between atoms: O_5  and  C_18
REMARK    5  A    between atoms: O_6  and  C_20
REMARK    6  A    between atoms: N_8  and  C_23
REMARK    7  A    between atoms: N_9  and  C_15
REMARK    8  A    between atoms: C_10  and  C_17
REMARK    9  A    between atoms: C_11  and  C_19
REMARK   10  A    between atoms: C_14  and  C_15
REMARK   11  A    between atoms: C_15  and  C_22
REMARK   12  A    between atoms: C_17  and  C_24
REMARK   13  A    between atoms: C_22  and  C_25
REMARK   14  A    between atoms: C_24  and  C_26
REMARK                            x       y       z     vdW  Elec       q    Type
REMARK                         _______ _______ _______ _____ _____    ______ ____
ROOT
ATOM      1  C   UNL     1     -35.896  98.733  18.124  0.00  0.00    +0.000 C 
ENDROOT
BRANCH   1   3
ATOM      2  O   UNL     1     -36.040  96.874  19.667  0.00  0.00    +0.000 OA
ATOM      3  C   UNL     1     -35.115  97.851  19.147  0.00  0.00    +0.000 C 
ATOM      4  C   UNL     1     -33.869  97.168  18.545  0.00  0.00    +0.000 C 
ATOM      5  C   UNL     1     -33.219  96.229  19.569  0.00  0.00    +0.000 C 
ATOM      6  C   UNL     1     -34.252  95.228  20.105  0.00  0.00    +0.000 C 
ATOM      7  C   UNL     1     -35.498  95.968  20.632  0.00  0.00    +0.000 C 
BRANCH   7   8
ATOM      8  S   UNL     1     -35.199  96.795  22.250  0.00  0.00    +0.000 S 
ATOM      9  C   UNL     1     -36.835  97.529  22.483  0.00  0.00    +0.000 C 
ENDBRANCH   7   8
BRANCH   4  10
ATOM     10  O   UNL     1     -34.205  96.378  17.392  0.00  0.00    +0.000 OA
ATOM     11  H   UNL     1     -35.123  96.631  17.135  0.00  0.00    +0.000 HD
ENDBRANCH   4  10
BRANCH   5  12
ATOM     12  O   UNL     1     -32.127  95.542  18.940  0.00  0.00    +0.000 OA
ATOM     13  H   UNL     1     -32.092  95.896  18.029  0.00  0.00    +0.000 HD
ENDBRANCH   5  12
BRANCH   6  14
ATOM     14  O   UNL     1     -33.688  94.363  21.101  0.00  0.00    +0.000 OA
ATOM     15  H   UNL     1     -33.286  93.610  20.632  0.00  0.00    +0.000 HD
ENDBRANCH   6  14
ENDBRANCH   1   3
BRANCH   1  17
ATOM     16  O   UNL     1     -36.826  98.660  15.468  0.00  0.00    +0.000 OA
ATOM     17  N   UNL     1     -35.108  99.014  16.914  0.00  0.00    +0.000 N 
ATOM     18  C   UNL     1     -35.655  98.991  15.644  0.00  0.00    +0.000 C 
ATOM     19  H   UNL     1     -34.116  99.197  17.028  0.00  0.00    +0.000 HD
BRANCH  18  22
ATOM     20  N   UNL     1     -34.969 100.621  13.876  0.00  0.00    +0.000 NA
ATOM     21  C   UNL     1     -32.808 100.927  14.624  0.00  0.00    +0.000 C 
ATOM     22  C   UNL     1     -34.648  99.337  14.529  0.00  0.00    +0.000 C 
ATOM     23  C   UNL     1     -33.227  99.527  15.077  0.00  0.00    +0.000 C 
ATOM     24  C   UNL     1     -33.700 101.177  13.414  0.00  0.00    +0.000 C 
ATOM     25  C   UNL     1     -35.948 100.492  12.807  0.00  0.00    +0.000 C 
BRANCH  21  26
ATOM     26  C   UNL     1     -31.319 101.075  14.303  0.00  0.00    +0.000 C 
BRANCH  26  27
ATOM     27  C   UNL     1     -30.501  99.866  14.761  0.00  0.00    +0.000 C 
ATOM     28  C   UNL     1     -29.293 100.291  15.579  0.00  0.00    +0.000 C 
ENDBRANCH  26  27
ENDBRANCH  21  26
ENDBRANCH  18  22
ENDBRANCH   1  17
BRANCH   1  30
ATOM     29 CL   UNL     1     -35.458 101.465  18.161  0.00  0.00    +0.000 Cl
ATOM     30  C   UNL     1     -36.402 100.056  18.763  0.00  0.00    +0.000 C 
ATOM     31  C   UNL     1     -37.881 100.304  18.470  0.00  0.00    +0.000 C 
ENDBRANCH   1  30
TORSDOF 10
ENDMDL
MODEL 7
REMARK VINA RESULT:      -4.6     15.034     17.610
REMARK  Name = 
REMARK  14 active torsions:
REMARK  status: ('A' for Active; 'I' for Inactive)
REMARK    1  A    between atoms: S_2  and  C_21
REMARK    2  A    between atoms: S_2  and  C_27
REMARK    3  A    between atoms: O_4  and  C_16
REMARK    4  A    between atoms: O_5  and  C_18
REMARK    5  A    between atoms: O_6  and  C_20
REMARK    6  A    between atoms: N_8  and  C_23
REMARK    7  A    between atoms: N_9  and  C_15
REMARK    8  A    between atoms: C_10  and  C_17
REMARK    9  A    between atoms: C_11  and  C_19
REMARK   10  A    between atoms: C_14  and  C_15
REMARK   11  A    between atoms: C_15  and  C_22
REMARK   12  A    between atoms: C_17  and  C_24
REMARK   13  A    between atoms: C_22  and  C_25
REMARK   14  A    between atoms: C_24  and  C_26
REMARK                            x       y       z     vdW  Elec       q    Type
REMARK                         _______ _______ _______ _____ _____    ______ ____
ROOT
ATOM      1  C   UNL     1     -43.710 101.454   3.631  0.00  0.00    +0.000 C 
ENDROOT
BRANCH   1   3
ATOM      2  O   UNL     1     -45.492 101.252   5.256  0.00  0.00    +0.000 OA
ATOM      3  C   UNL     1     -44.859 102.203   4.373  0.00  0.00    +0.000 C 
ATOM      4  C   UNL     1     -44.382 103.447   5.152  0.00  0.00    +0.000 C 
ATOM      5  C   UNL     1     -45.539 104.062   5.949  0.00  0.00    +0.000 C 
ATOM      6  C   UNL     1     -46.188 103.004   6.851  0.00  0.00    +0.000 C 
ATOM      7  C   UNL     1     -46.583 101.762   6.026  0.00  0.00    +0.000 C 
BRANCH   7   8
ATOM      8  S   UNL     1     -48.076 102.047   4.987  0.00  0.00    +0.000 S 
ATOM      9  C   UNL     1     -49.220 100.946   5.852  0.00  0.00    +0.000 C 
ENDBRANCH   7   8
BRANCH   4  10
ATOM     10  O   UNL     1     -43.343 103.117   6.089  0.00  0.00    +0.000 OA
ATOM     11  H   UNL     1     -43.727 103.239   6.989  0.00  0.00    +0.000 HD
ENDBRANCH   4  10
BRANCH   5  12
ATOM     12  O   UNL     1     -45.032 105.154   6.732  0.00  0.00    +0.000 OA
ATOM     13  H   UNL     1     -44.071 104.989   6.809  0.00  0.00    +0.000 HD
ENDBRANCH   5  12
BRANCH   6  14
ATOM     14  O   UNL     1     -47.305 103.536   7.577  0.00  0.00    +0.000 OA
ATOM     15  H   UNL     1     -47.848 104.035   6.941  0.00  0.00    +0.000 HD
ENDBRANCH   6  14
ENDBRANCH   1   3
BRANCH   1  17
ATOM     16  O   UNL     1     -41.148 100.666   4.493  0.00  0.00    +0.000 OA
ATOM     17  N   UNL     1     -42.478 102.255   3.559  0.00  0.00    +0.000 N 
ATOM     18  C   UNL     1     -41.249 101.776   3.974  0.00  0.00    +0.000 C 
ATOM     19  H   UNL     1     -42.554 103.209   3.221  0.00  0.00    +0.000 HD
BRANCH  18  22
ATOM     20  N   UNL     1     -39.352 103.006   5.041  0.00  0.00    +0.000 NA
ATOM     21  C   UNL     1     -37.718 102.298   3.573  0.00  0.00    +0.000 C 
ATOM     22  C   UNL     1     -40.095 102.781   3.786  0.00  0.00    +0.000 C 
ATOM     23  C   UNL     1     -39.039 102.265   2.799  0.00  0.00    +0.000 C 
ATOM     24  C   UNL     1     -37.983 103.338   4.656  0.00  0.00    +0.000 C 
ATOM     25  C   UNL     1     -39.957 104.020   5.892  0.00  0.00    +0.000 C 
BRANCH  21  26
ATOM     26  C   UNL     1     -36.490 102.627   2.723  0.00  0.00    +0.000 C 
BRANCH  26  27
ATOM     27  C   UNL     1     -35.894 103.995   3.064  0.00  0.00    +0.000 C 
ATOM     28  C   UNL     1     -35.867 104.907   1.847  0.00  0.00    +0.000 C 
ENDBRANCH  26  27
ENDBRANCH  21  26
ENDBRANCH  18  22
ENDBRANCH   1  17
BRANCH   1  30
ATOM     29 CL   UNL     1     -44.464 102.398   1.141  0.00  0.00    +0.000 Cl
ATOM     30  C   UNL     1     -44.139 100.988   2.212  0.00  0.00    +0.000 C 
ATOM     31  C   UNL     1     -43.075 100.113   1.551  0.00  0.00    +0.000 C 
ENDBRANCH   1  30
TORSDOF 10
ENDMDL
MODEL 8
REMARK VINA RESULT:      -4.5     15.880     18.503
REMARK  Name = 
REMARK  14 active torsions:
REMARK  status: ('A' for Active; 'I' for Inactive)
REMARK    1  A    between atoms: S_2  and  C_21
REMARK    2  A    between atoms: S_2  and  C_27
REMARK    3  A    between atoms: O_4  and  C_16
REMARK    4  A    between atoms: O_5  and  C_18
REMARK    5  A    between atoms: O_6  and  C_20
REMARK    6  A    between atoms: N_8  and  C_23
REMARK    7  A    between atoms: N_9  and  C_15
REMARK    8  A    between atoms: C_10  and  C_17
REMARK    9  A    between atoms: C_11  and  C_19
REMARK   10  A    between atoms: C_14  and  C_15
REMARK   11  A    between atoms: C_15  and  C_22
REMARK   12  A    between atoms: C_17  and  C_24
REMARK   13  A    between atoms: C_22  and  C_25
REMARK   14  A    between atoms: C_24  and  C_26
REMARK                            x       y       z     vdW  Elec       q    Type
REMARK                         _______ _______ _______ _____ _____    ______ ____
ROOT
ATOM      1  C   UNL     1     -41.296 102.024   2.238  0.00  0.00    +0.000 C 
ENDROOT
BRANCH   1   3
ATOM      2  O   UNL     1     -39.193 103.097   1.706  0.00  0.00    +0.000 OA
ATOM      3  C   UNL     1     -40.618 103.323   1.702  0.00  0.00    +0.000 C 
ATOM      4  C   UNL     1     -41.108 103.738   0.298  0.00  0.00    +0.000 C 
ATOM      5  C   UNL     1     -40.318 104.949  -0.213  0.00  0.00    +0.000 C 
ATOM      6  C   UNL     1     -38.811 104.663  -0.165  0.00  0.00    +0.000 C 
ATOM      7  C   UNL     1     -38.397 104.191   1.244  0.00  0.00    +0.000 C 
BRANCH   7   8
ATOM      8  S   UNL     1     -38.354 105.567   2.468  0.00  0.00    +0.000 S 
ATOM      9  C   UNL     1     -36.592 105.513   2.871  0.00  0.00    +0.000 C 
ENDBRANCH   7   8
BRANCH   4  10
ATOM     10  O   UNL     1     -40.934 102.678  -0.657  0.00  0.00    +0.000 OA
ATOM     11  H   UNL     1     -41.807 102.226  -0.738  0.00  0.00    +0.000 HD
ENDBRANCH   4  10
BRANCH   5  12
ATOM     12  O   UNL     1     -40.735 105.241  -1.555  0.00  0.00    +0.000 OA
ATOM     13  H   UNL     1     -40.864 106.211  -1.579  0.00  0.00    +0.000 HD
ENDBRANCH   5  12
BRANCH   6  14
ATOM     14  O   UNL     1     -38.040 105.795  -0.593  0.00  0.00    +0.000 OA
ATOM     15  H   UNL     1     -38.154 105.870  -1.557  0.00  0.00    +0.000 HD
ENDBRANCH   6  14
ENDBRANCH   1   3
BRANCH   1  17
ATOM     16  O   UNL     1     -43.009 100.690   0.445  0.00  0.00    +0.000 OA
ATOM     17  N   UNL     1     -42.765 102.107   2.206  0.00  0.00    +0.000 N 
ATOM     18  C   UNL     1     -43.535 101.387   1.311  0.00  0.00    +0.000 C 
ATOM     19  H   UNL     1     -43.216 102.750   2.849  0.00  0.00    +0.000 HD
BRANCH  18  22
ATOM     20  N   UNL     1     -45.751 101.606   0.173  0.00  0.00    +0.000 NA
ATOM     21  C   UNL     1     -46.827  99.953   1.371  0.00  0.00    +0.000 C 
ATOM     22  C   UNL     1     -45.051 101.615   1.473  0.00  0.00    +0.000 C 
ATOM     23  C   UNL     1     -45.717 100.491   2.278  0.00  0.00    +0.000 C 
ATOM     24  C   UNL     1     -47.104 101.125   0.438  0.00  0.00    +0.000 C 
ATOM     25  C   UNL     1     -45.735 102.898  -0.495  0.00  0.00    +0.000 C 
BRANCH  21  26
ATOM     26  C   UNL     1     -48.078  99.474   2.110  0.00  0.00    +0.000 C 
BRANCH  26  27
ATOM     27  C   UNL     1     -48.301  97.967   1.964  0.00  0.00    +0.000 C 
ATOM     28  C   UNL     1     -48.938  97.378   3.213  0.00  0.00    +0.000 C 
ENDBRANCH  26  27
ENDBRANCH  21  26
ENDBRANCH  18  22
ENDBRANCH   1  17
BRANCH   1  30
ATOM     29 CL   UNL     1     -40.669 103.125   4.699  0.00  0.00    +0.000 Cl
ATOM     30  C   UNL     1     -40.804 101.657   3.665  0.00  0.00    +0.000 C 
ATOM     31  C   UNL     1     -41.739 100.665   4.355  0.00  0.00    +0.000 C 
ENDBRANCH   1  30
TORSDOF 10
ENDMDL
MODEL 9
REMARK VINA RESULT:      -4.5     15.903     19.005
REMARK  Name = 
REMARK  14 active torsions:
REMARK  status: ('A' for Active; 'I' for Inactive)
REMARK    1  A    between atoms: S_2  and  C_21
REMARK    2  A    between atoms: S_2  and  C_27
REMARK    3  A    between atoms: O_4  and  C_16
REMARK    4  A    between atoms: O_5  and  C_18
REMARK    5  A    between atoms: O_6  and  C_20
REMARK    6  A    between atoms: N_8  and  C_23
REMARK    7  A    between atoms: N_9  and  C_15
REMARK    8  A    between atoms: C_10  and  C_17
REMARK    9  A    between atoms: C_11  and  C_19
REMARK   10  A    between atoms: C_14  and  C_15
REMARK   11  A    between atoms: C_15  and  C_22
REMARK   12  A    between atoms: C_17  and  C_24
REMARK   13  A    between atoms: C_22  and  C_25
REMARK   14  A    between atoms: C_24  and  C_26
REMARK                            x       y       z     vdW  Elec       q    Type
REMARK                         _______ _______ _______ _____ _____    ______ ____
ROOT
ATOM      1  C   UNL     1     -38.658 103.631   2.162  0.00  0.00    +0.000 C 
ENDROOT
BRANCH   1   3
ATOM      2  O   UNL     1     -41.008 103.067   2.035  0.00  0.00    +0.000 OA
ATOM      3  C   UNL     1     -39.824 103.201   1.220  0.00  0.00    +0.000 C 
ATOM      4  C   UNL     1     -40.066 104.180   0.051  0.00  0.00    +0.000 C 
ATOM      5  C   UNL     1     -41.296 103.759  -0.762  0.00  0.00    +0.000 C 
ATOM      6  C   UNL     1     -42.516 103.610   0.156  0.00  0.00    +0.000 C 
ATOM      7  C   UNL     1     -42.192 102.671   1.337  0.00  0.00    +0.000 C 
BRANCH   7   8
ATOM      8  S   UNL     1     -42.129 100.900   0.839  0.00  0.00    +0.000 S 
ATOM      9  C   UNL     1     -43.471 100.280   1.880  0.00  0.00    +0.000 C 
ENDBRANCH   7   8
BRANCH   4  10
ATOM     10  O   UNL     1     -40.300 105.518   0.523  0.00  0.00    +0.000 OA
ATOM     11  H   UNL     1     -39.721 106.110  -0.013  0.00  0.00    +0.000 HD
ENDBRANCH   4  10
BRANCH   5  12
ATOM     12  O   UNL     1     -41.542 104.746  -1.774  0.00  0.00    +0.000 OA
ATOM     13  H   UNL     1     -40.857 105.431  -1.636  0.00  0.00    +0.000 HD
ENDBRANCH   5  12
BRANCH   6  14
ATOM     14  O   UNL     1     -43.676 103.170  -0.566  0.00  0.00    +0.000 OA
ATOM     15  H   UNL     1     -44.091 102.465  -0.038  0.00  0.00    +0.000 HD
ENDBRANCH   6  14
ENDBRANCH   1   3
BRANCH   1  17
ATOM     16  O   UNL     1     -38.003 106.336   2.590  0.00  0.00    +0.000 OA
ATOM     17  N   UNL     1     -37.625 104.403   1.454  0.00  0.00    +0.000 N 
ATOM     18  C   UNL     1     -37.342 105.724   1.753  0.00  0.00    +0.000 C 
ATOM     19  H   UNL     1     -37.132 103.946   0.693  0.00  0.00    +0.000 HD
BRANCH  18  22
ATOM     20  N   UNL     1     -34.897 105.736   1.230  0.00  0.00    +0.000 NA
ATOM     21  C   UNL     1     -35.109 105.327  -1.031  0.00  0.00    +0.000 C 
ATOM     22  C   UNL     1     -36.209 106.325   0.897  0.00  0.00    +0.000 C 
ATOM     23  C   UNL     1     -36.399 106.027  -0.597  0.00  0.00    +0.000 C 
ATOM     24  C   UNL     1     -34.098 105.795   0.009  0.00  0.00    +0.000 C 
ATOM     25  C   UNL     1     -34.247 106.386   2.358  0.00  0.00    +0.000 C 
BRANCH  21  26
ATOM     26  C   UNL     1     -34.669 105.632  -2.464  0.00  0.00    +0.000 C 
BRANCH  26  27
ATOM     27  C   UNL     1     -33.876 104.482  -3.089  0.00  0.00    +0.000 C 
ATOM     28  C   UNL     1     -34.383 103.132  -2.606  0.00  0.00    +0.000 C 
ENDBRANCH  26  27
ENDBRANCH  21  26
ENDBRANCH  18  22
ENDBRANCH   1  17
BRANCH   1  30
ATOM     29 CL   UNL     1     -36.243 102.361   2.625  0.00  0.00    +0.000 Cl
ATOM     30  C   UNL     1     -38.022 102.417   2.893  0.00  0.00    +0.000 C 
ATOM     31  C   UNL     1     -38.283 102.454   4.399  0.00  0.00    +0.000 C 
ENDBRANCH   1  30
TORSDOF 10
ENDMDL
