MODEL 1
REMARK VINA RESULT:      -6.6      0.000      0.000
REMARK  Name = 
REMARK  5 active torsions:
REMARK  status: ('A' for Active; 'I' for Inactive)
REMARK    1  A    between atoms: O_5  and  C_10
REMARK    2  A    between atoms: N_9  and  C_20
REMARK    3  A    between atoms: N_9  and  C_25
REMARK    4  A    between atoms: C_10  and  C_11
REMARK    5  A    between atoms: C_18  and  C_19
REMARK                            x       y       z     vdW  Elec       q    Type
REMARK                         _______ _______ _______ _____ _____    ______ ____
ROOT
ATOM      1  F   UNL     1     -33.502 102.098  13.009  0.00  0.00    +0.000 F 
ATOM      2  F   UNL     1     -35.986 101.050  13.146  0.00  0.00    +0.000 F 
ATOM      3  C   UNL     1     -32.923  99.264  15.218  0.00  0.00    +0.000 A 
ATOM      4  C   UNL     1     -32.630 100.414  14.450  0.00  0.00    +0.000 A 
ATOM      5  C   UNL     1     -34.222  98.733  15.296  0.00  0.00    +0.000 A 
ATOM      6  C   UNL     1     -33.695 100.995  13.748  0.00  0.00    +0.000 A 
ATOM      7  C   UNL     1     -35.257  99.343  14.592  0.00  0.00    +0.000 A 
ATOM      8  C   UNL     1     -34.986 100.469  13.825  0.00  0.00    +0.000 A 
ENDROOT
BRANCH   3  14
ATOM      9  O   UNL     1     -31.245  97.654  15.412  0.00  0.00    +0.000 OA
ATOM     10  N   UNL     1     -31.582  99.020  17.234  0.00  0.00    +0.000 N 
ATOM     11  C   UNL     1     -32.054  98.408  19.173  0.00  0.00    +0.000 C 
ATOM     12  C   UNL     1     -32.536  99.534  18.214  0.00  0.00    +0.000 C 
ATOM     13  C   UNL     1     -30.813  98.287  18.238  0.00  0.00    +0.000 C 
ATOM     14  C   UNL     1     -31.832  98.586  15.951  0.00  0.00    +0.000 C 
BRANCH  11  16
ATOM     15  N   UNL     1     -32.025  95.961  19.579  0.00  0.00    +0.000 NA
ATOM     16  C   UNL     1     -32.897  97.105  19.207  0.00  0.00    +0.000 C 
ATOM     17  C   UNL     1     -34.054  97.207  20.216  0.00  0.00    +0.000 C 
ATOM     18  C   UNL     1     -34.860  95.908  20.259  0.00  0.00    +0.000 C 
ATOM     19  C   UNL     1     -32.781  94.704  19.495  0.00  0.00    +0.000 C 
ATOM     20  C   UNL     1     -33.954  94.701  20.474  0.00  0.00    +0.000 C 
ATOM     21  H   UNL     1     -31.754  96.080  20.559  0.00  0.00    +0.000 HD
ENDBRANCH  11  16
BRANCH  11  22
ATOM     22  O   UNL     1     -31.753  98.845  20.530  0.00  0.00    +0.000 OA
ATOM     23  H   UNL     1     -32.471  99.478  20.721  0.00  0.00    +0.000 HD
ENDBRANCH  11  22
ENDBRANCH   3  14
BRANCH   4  24
ATOM     24  N   UNL     1     -31.299 100.874  14.351  0.00  0.00    +0.000 N 
ATOM     25  H   UNL     1     -30.847 100.633  13.462  0.00  0.00    +0.000 HD
BRANCH  24  28
ATOM     26  I   UNL     1     -27.756 104.762  17.820  0.00  0.00    +0.000 I 
ATOM     27  F   UNL     1     -28.706 100.293  15.014  0.00  0.00    +0.000 F 
ATOM     28  C   UNL     1     -30.548 101.782  15.121  0.00  0.00    +0.000 A 
ATOM     29  C   UNL     1     -29.224 101.449  15.459  0.00  0.00    +0.000 A 
ATOM     30  C   UNL     1     -31.049 102.995  15.603  0.00  0.00    +0.000 A 
ATOM     31  C   UNL     1     -28.417 102.284  16.228  0.00  0.00    +0.000 A 
ATOM     32  C   UNL     1     -30.251 103.846  16.378  0.00  0.00    +0.000 A 
ATOM     33  C   UNL     1     -28.938 103.489  16.685  0.00  0.00    +0.000 A 
ENDBRANCH  24  28
ENDBRANCH   4  24
TORSDOF 5
ENDMDL
MODEL 2
REMARK VINA RESULT:      -6.3     13.668     16.245
REMARK  Name = 
REMARK  5 active torsions:
REMARK  status: ('A' for Active; 'I' for Inactive)
REMARK    1  A    between atoms: O_5  and  C_10
REMARK    2  A    between atoms: N_9  and  C_20
REMARK    3  A    between atoms: N_9  and  C_25
REMARK    4  A    between atoms: C_10  and  C_11
REMARK    5  A    between atoms: C_18  and  C_19
REMARK                            x       y       z     vdW  Elec       q    Type
REMARK                         _______ _______ _______ _____ _____    ______ ____
ROOT
ATOM      1  F   UNL     1     -23.677 101.339   7.209  0.00  0.00    +0.000 F 
ATOM      2  F   UNL     1     -23.051 101.475   9.832  0.00  0.00    +0.000 F 
ATOM      3  C   UNL     1     -20.899  98.993   7.368  0.00  0.00    +0.000 A 
ATOM      4  C   UNL     1     -21.952  99.747   6.803  0.00  0.00    +0.000 A 
ATOM      5  C   UNL     1     -20.570  99.080   8.731  0.00  0.00    +0.000 A 
ATOM      6  C   UNL     1     -22.673 100.578   7.672  0.00  0.00    +0.000 A 
ATOM      7  C   UNL     1     -21.303  99.924   9.563  0.00  0.00    +0.000 A 
ATOM      8  C   UNL     1     -22.347 100.666   9.026  0.00  0.00    +0.000 A 
ENDROOT
BRANCH   3  14
ATOM      9  O   UNL     1     -20.687  97.082   6.045  0.00  0.00    +0.000 OA
ATOM     10  N   UNL     1     -18.793  98.360   6.327  0.00  0.00    +0.000 N 
ATOM     11  C   UNL     1     -16.970  97.719   7.115  0.00  0.00    +0.000 C 
ATOM     12  C   UNL     1     -17.867  98.979   7.274  0.00  0.00    +0.000 C 
ATOM     13  C   UNL     1     -17.787  97.428   5.821  0.00  0.00    +0.000 C 
ATOM     14  C   UNL     1     -20.127  98.070   6.508  0.00  0.00    +0.000 C 
BRANCH  11  16
ATOM     15  N   UNL     1     -16.352  95.407   7.766  0.00  0.00    +0.000 NA
ATOM     16  C   UNL     1     -17.131  96.602   8.180  0.00  0.00    +0.000 C 
ATOM     17  C   UNL     1     -16.645  97.067   9.565  0.00  0.00    +0.000 C 
ATOM     18  C   UNL     1     -16.784  95.948  10.598  0.00  0.00    +0.000 C 
ATOM     19  C   UNL     1     -16.595  94.299   8.701  0.00  0.00    +0.000 C 
ATOM     20  C   UNL     1     -16.132  94.659  10.111  0.00  0.00    +0.000 C 
ATOM     21  H   UNL     1     -15.358  95.642   7.834  0.00  0.00    +0.000 HD
ENDBRANCH  11  16
BRANCH  11  22
ATOM     22  O   UNL     1     -15.557  97.998   6.892  0.00  0.00    +0.000 OA
ATOM     23  H   UNL     1     -15.126  97.580   7.661  0.00  0.00    +0.000 HD
ENDBRANCH  11  22
ENDBRANCH   3  14
BRANCH   4  24
ATOM     24  N   UNL     1     -22.286  99.580   5.442  0.00  0.00    +0.000 N 
ATOM     25  H   UNL     1     -22.521  98.612   5.193  0.00  0.00    +0.000 HD
BRANCH  24  28
ATOM     26  I   UNL     1     -23.849 103.603   0.850  0.00  0.00    +0.000 I 
ATOM     27  F   UNL     1     -24.882  99.973   4.659  0.00  0.00    +0.000 F 
ATOM     28  C   UNL     1     -22.582 100.497   4.416  0.00  0.00    +0.000 A 
ATOM     29  C   UNL     1     -23.923 100.667   4.025  0.00  0.00    +0.000 A 
ATOM     30  C   UNL     1     -21.614 101.240   3.733  0.00  0.00    +0.000 A 
ATOM     31  C   UNL     1     -24.300 101.544   3.012  0.00  0.00    +0.000 A 
ATOM     32  C   UNL     1     -21.977 102.126   2.710  0.00  0.00    +0.000 A 
ATOM     33  C   UNL     1     -23.317 102.276   2.356  0.00  0.00    +0.000 A 
ENDBRANCH  24  28
ENDBRANCH   4  24
TORSDOF 5
ENDMDL
MODEL 3
REMARK VINA RESULT:      -6.3     15.171     17.906
REMARK  Name = 
REMARK  5 active torsions:
REMARK  status: ('A' for Active; 'I' for Inactive)
REMARK    1  A    between atoms: O_5  and  C_10
REMARK    2  A    between atoms: N_9  and  C_20
REMARK    3  A    between atoms: N_9  and  C_25
REMARK    4  A    between atoms: C_10  and  C_11
REMARK    5  A    between atoms: C_18  and  C_19
REMARK                            x       y       z     vdW  Elec       q    Type
REMARK                         _______ _______ _______ _____ _____    ______ ____
ROOT
ATOM      1  F   UNL     1     -43.510 100.566   1.370  0.00  0.00    +0.000 F 
ATOM      2  F   UNL     1     -42.928 101.407  -1.129  0.00  0.00    +0.000 F 
ATOM      3  C   UNL     1     -41.023 103.127   2.077  0.00  0.00    +0.000 A 
ATOM      4  C   UNL     1     -41.970 102.110   2.329  0.00  0.00    +0.000 A 
ATOM      5  C   UNL     1     -40.715 103.549   0.772  0.00  0.00    +0.000 A 
ATOM      6  C   UNL     1     -42.609 101.549   1.215  0.00  0.00    +0.000 A 
ATOM      7  C   UNL     1     -41.363 102.962  -0.312  0.00  0.00    +0.000 A 
ATOM      8  C   UNL     1     -42.304 101.967  -0.082  0.00  0.00    +0.000 A 
ENDROOT
BRANCH   3  14
ATOM      9  O   UNL     1     -40.770 104.859   3.621  0.00  0.00    +0.000 OA
ATOM     10  N   UNL     1     -39.225 103.155   3.716  0.00  0.00    +0.000 N 
ATOM     11  C   UNL     1     -37.155 103.346   3.532  0.00  0.00    +0.000 C 
ATOM     12  C   UNL     1     -38.233 102.364   2.990  0.00  0.00    +0.000 C 
ATOM     13  C   UNL     1     -38.223 103.777   4.580  0.00  0.00    +0.000 C 
ATOM     14  C   UNL     1     -40.344 103.783   3.215  0.00  0.00    +0.000 C 
BRANCH  11  16
ATOM     15  N   UNL     1     -35.389 105.002   2.994  0.00  0.00    +0.000 NA
ATOM     16  C   UNL     1     -36.735 104.514   2.600  0.00  0.00    +0.000 C 
ATOM     17  C   UNL     1     -36.703 104.077   1.125  0.00  0.00    +0.000 C 
ATOM     18  C   UNL     1     -36.263 105.230   0.222  0.00  0.00    +0.000 C 
ATOM     19  C   UNL     1     -35.032 106.188   2.203  0.00  0.00    +0.000 C 
ATOM     20  C   UNL     1     -34.961 105.853   0.714  0.00  0.00    +0.000 C 
ATOM     21  H   UNL     1     -34.711 104.273   2.760  0.00  0.00    +0.000 HD
ENDBRANCH  11  16
BRANCH  11  22
ATOM     22  O   UNL     1     -35.973 102.706   4.096  0.00  0.00    +0.000 OA
ATOM     23  H   UNL     1     -35.821 103.211   4.917  0.00  0.00    +0.000 HD
ENDBRANCH  11  22
ENDBRANCH   3  14
BRANCH   4  24
ATOM     24  N   UNL     1     -42.294 101.763   3.658  0.00  0.00    +0.000 N 
ATOM     25  H   UNL     1     -41.473 101.557   4.240  0.00  0.00    +0.000 HD
BRANCH  24  28
ATOM     26  I   UNL     1     -47.504 102.368   7.149  0.00  0.00    +0.000 I 
ATOM     27  F   UNL     1     -42.524 103.648   5.632  0.00  0.00    +0.000 F 
ATOM     28  C   UNL     1     -43.484 101.862   4.403  0.00  0.00    +0.000 A 
ATOM     29  C   UNL     1     -43.567 102.829   5.421  0.00  0.00    +0.000 A 
ATOM     30  C   UNL     1     -44.592 101.031   4.214  0.00  0.00    +0.000 A 
ATOM     31  C   UNL     1     -44.702 102.985   6.212  0.00  0.00    +0.000 A 
ATOM     32  C   UNL     1     -45.742 101.174   5.002  0.00  0.00    +0.000 A 
ATOM     33  C   UNL     1     -45.792 102.151   5.996  0.00  0.00    +0.000 A 
ENDBRANCH  24  28
ENDBRANCH   4  24
TORSDOF 5
ENDMDL
MODEL 4
REMARK VINA RESULT:      -5.9     15.719     18.353
REMARK  Name = 
REMARK  5 active torsions:
REMARK  status: ('A' for Active; 'I' for Inactive)
REMARK    1  A    between atoms: O_5  and  C_10
REMARK    2  A    between atoms: N_9  and  C_20
REMARK    3  A    between atoms: N_9  and  C_25
REMARK    4  A    between atoms: C_10  and  C_11
REMARK    5  A    between atoms: C_18  and  C_19
REMARK                            x       y       z     vdW  Elec       q    Type
REMARK                         _______ _______ _______ _____ _____    ______ ____
ROOT
ATOM      1  F   UNL     1     -41.404 101.085   4.711  0.00  0.00    +0.000 F 
ATOM      2  F   UNL     1     -44.023 100.475   4.949  0.00  0.00    +0.000 F 
ATOM      3  C   UNL     1     -42.573 101.778   1.335  0.00  0.00    +0.000 A 
ATOM      4  C   UNL     1     -41.671 101.670   2.417  0.00  0.00    +0.000 A 
ATOM      5  C   UNL     1     -43.932 101.445   1.463  0.00  0.00    +0.000 A 
ATOM      6  C   UNL     1     -42.198 101.230   3.640  0.00  0.00    +0.000 A 
ATOM      7  C   UNL     1     -44.419 101.003   2.691  0.00  0.00    +0.000 A 
ATOM      8  C   UNL     1     -43.548 100.899   3.769  0.00  0.00    +0.000 A 
ENDROOT
BRANCH   3  14
ATOM      9  O   UNL     1     -41.405 101.526  -0.670  0.00  0.00    +0.000 OA
ATOM     10  N   UNL     1     -42.377 103.578  -0.291  0.00  0.00    +0.000 N 
ATOM     11  C   UNL     1     -41.401 105.422  -0.238  0.00  0.00    +0.000 C 
ATOM     12  C   UNL     1     -42.501 104.723   0.610  0.00  0.00    +0.000 C 
ATOM     13  C   UNL     1     -41.718 104.361  -1.334  0.00  0.00    +0.000 C 
ATOM     14  C   UNL     1     -42.082 102.272   0.030  0.00  0.00    +0.000 C 
BRANCH  11  16
ATOM     15  N   UNL     1     -39.064 104.821  -0.810  0.00  0.00    +0.000 NA
ATOM     16  C   UNL     1     -39.942 105.320   0.280  0.00  0.00    +0.000 C 
ATOM     17  C   UNL     1     -39.419 106.683   0.768  0.00  0.00    +0.000 C 
ATOM     18  C   UNL     1     -37.972 106.572   1.250  0.00  0.00    +0.000 C 
ATOM     19  C   UNL     1     -37.704 104.601  -0.298  0.00  0.00    +0.000 C 
ATOM     20  C   UNL     1     -37.087 105.906   0.202  0.00  0.00    +0.000 C 
ATOM     21  H   UNL     1     -39.000 105.555  -1.520  0.00  0.00    +0.000 HD
ENDBRANCH  11  16
BRANCH  11  22
ATOM     22  O   UNL     1     -41.703 106.797  -0.618  0.00  0.00    +0.000 OA
ATOM     23  H   UNL     1     -42.673 106.844  -0.524  0.00  0.00    +0.000 HD
ENDBRANCH  11  22
ENDBRANCH   3  14
BRANCH   4  24
ATOM     24  N   UNL     1     -40.329 102.076   2.259  0.00  0.00    +0.000 N 
ATOM     25  H   UNL     1     -39.907 101.762   1.377  0.00  0.00    +0.000 HD
BRANCH  24  28
ATOM     26  I   UNL     1     -36.551 106.081   5.324  0.00  0.00    +0.000 I 
ATOM     27  F   UNL     1     -37.608 101.764   2.324  0.00  0.00    +0.000 F 
ATOM     28  C   UNL     1     -39.529 103.005   2.951  0.00  0.00    +0.000 A 
ATOM     29  C   UNL     1     -38.136 102.810   2.980  0.00  0.00    +0.000 A 
ATOM     30  C   UNL     1     -40.039 104.106   3.644  0.00  0.00    +0.000 A 
ATOM     31  C   UNL     1     -37.276 103.674   3.652  0.00  0.00    +0.000 A 
ATOM     32  C   UNL     1     -39.186 104.985   4.326  0.00  0.00    +0.000 A 
ATOM     33  C   UNL     1     -37.809 104.766   4.325  0.00  0.00    +0.000 A 
ENDBRANCH  24  28
ENDBRANCH   4  24
TORSDOF 5
ENDMDL
MODEL 5
REMARK VINA RESULT:      -5.8     13.987     17.417
REMARK  Name = 
REMARK  5 active torsions:
REMARK  status: ('A' for Active; 'I' for Inactive)
REMARK    1  A    between atoms: O_5  and  C_10
REMARK    2  A    between atoms: N_9  and  C_20
REMARK    3  A    between atoms: N_9  and  C_25
REMARK    4  A    between atoms: C_10  and  C_11
REMARK    5  A    between atoms: C_18  and  C_19
REMARK                            x       y       z     vdW  Elec       q    Type
REMARK                         _______ _______ _______ _____ _____    ______ ____
ROOT
ATOM      1  F   UNL     1     -19.747  99.158   7.401  0.00  0.00    +0.000 F 
ATOM      2  F   UNL     1     -20.683  99.674   9.880  0.00  0.00    +0.000 F 
ATOM      3  C   UNL     1     -22.985 100.621   6.614  0.00  0.00    +0.000 A 
ATOM      4  C   UNL     1     -21.719 100.035   6.392  0.00  0.00    +0.000 A 
ATOM      5  C   UNL     1     -23.471 100.873   7.908  0.00  0.00    +0.000 A 
ATOM      6  C   UNL     1     -20.954  99.732   7.527  0.00  0.00    +0.000 A 
ATOM      7  C   UNL     1     -22.687 100.550   9.012  0.00  0.00    +0.000 A 
ATOM      8  C   UNL     1     -21.435  99.981   8.813  0.00  0.00    +0.000 A 
ENDROOT
BRANCH   3  14
ATOM      9  O   UNL     1     -24.284 100.111   4.743  0.00  0.00    +0.000 OA
ATOM     10  N   UNL     1     -23.982 102.344   5.215  0.00  0.00    +0.000 N 
ATOM     11  C   UNL     1     -23.156 103.780   3.945  0.00  0.00    +0.000 C 
ATOM     12  C   UNL     1     -23.026 103.424   5.453  0.00  0.00    +0.000 C 
ATOM     13  C   UNL     1     -24.461 102.929   3.963  0.00  0.00    +0.000 C 
ATOM     14  C   UNL     1     -23.822 100.998   5.454  0.00  0.00    +0.000 C 
BRANCH  11  16
ATOM     15  N   UNL     1     -22.022 104.016   1.752  0.00  0.00    +0.000 NA
ATOM     16  C   UNL     1     -22.082 103.196   2.989  0.00  0.00    +0.000 C 
ATOM     17  C   UNL     1     -20.691 103.172   3.648  0.00  0.00    +0.000 C 
ATOM     18  C   UNL     1     -19.639 102.619   2.687  0.00  0.00    +0.000 C 
ATOM     19  C   UNL     1     -21.099 103.402   0.786  0.00  0.00    +0.000 C 
ATOM     20  C   UNL     1     -19.678 103.343   1.345  0.00  0.00    +0.000 C 
ATOM     21  H   UNL     1     -21.630 104.928   2.000  0.00  0.00    +0.000 HD
ENDBRANCH  11  16
BRANCH  11  22
ATOM     22  O   UNL     1     -23.357 105.196   3.665  0.00  0.00    +0.000 OA
ATOM     23  H   UNL     1     -23.527 105.208   2.705  0.00  0.00    +0.000 HD
ENDBRANCH  11  22
ENDBRANCH   3  14
BRANCH   4  24
ATOM     24  N   UNL     1     -21.245  99.859   5.074  0.00  0.00    +0.000 N 
ATOM     25  H   UNL     1     -21.393 100.677   4.472  0.00  0.00    +0.000 HD
BRANCH  24  28
ATOM     26  I   UNL     1     -17.357  95.674   2.414  0.00  0.00    +0.000 I 
ATOM     27  F   UNL     1     -18.593 100.391   4.644  0.00  0.00    +0.000 F 
ATOM     28  C   UNL     1     -20.418  98.885   4.484  0.00  0.00    +0.000 A 
ATOM     29  C   UNL     1     -19.063  99.193   4.261  0.00  0.00    +0.000 A 
ATOM     30  C   UNL     1     -20.867  97.627   4.074  0.00  0.00    +0.000 A 
ATOM     31  C   UNL     1     -18.180  98.292   3.672  0.00  0.00    +0.000 A 
ATOM     32  C   UNL     1     -19.992  96.708   3.478  0.00  0.00    +0.000 A 
ATOM     33  C   UNL     1     -18.652  97.044   3.283  0.00  0.00    +0.000 A 
ENDBRANCH  24  28
ENDBRANCH   4  24
TORSDOF 5
ENDMDL
MODEL 6
REMARK VINA RESULT:      -5.7     23.608     25.710
REMARK  Name = 
REMARK  5 active torsions:
REMARK  status: ('A' for Active; 'I' for Inactive)
REMARK    1  A    between atoms: O_5  and  C_10
REMARK    2  A    between atoms: N_9  and  C_20
REMARK    3  A    between atoms: N_9  and  C_25
REMARK    4  A    between atoms: C_10  and  C_11
REMARK    5  A    between atoms: C_18  and  C_19
REMARK                            x       y       z     vdW  Elec       q    Type
REMARK                         _______ _______ _______ _____ _____    ______ ____
ROOT
ATOM      1  F   UNL     1     -45.830  83.606   8.254  0.00  0.00    +0.000 F 
ATOM      2  F   UNL     1     -45.922  85.893   6.824  0.00  0.00    +0.000 F 
ATOM      3  C   UNL     1     -45.111  82.349   4.916  0.00  0.00    +0.000 A 
ATOM      4  C   UNL     1     -45.330  82.322   6.311  0.00  0.00    +0.000 A 
ATOM      5  C   UNL     1     -45.175  83.542   4.176  0.00  0.00    +0.000 A 
ATOM      6  C   UNL     1     -45.596  83.549   6.935  0.00  0.00    +0.000 A 
ATOM      7  C   UNL     1     -45.451  84.741   4.827  0.00  0.00    +0.000 A 
ATOM      8  C   UNL     1     -45.660  84.735   6.201  0.00  0.00    +0.000 A 
ENDROOT
BRANCH   3  14
ATOM      9  O   UNL     1     -45.673  80.253   4.056  0.00  0.00    +0.000 OA
ATOM     10  N   UNL     1     -43.482  80.917   3.813  0.00  0.00    +0.000 N 
ATOM     11  C   UNL     1     -41.795  79.906   4.512  0.00  0.00    +0.000 C 
ATOM     12  C   UNL     1     -42.268  81.387   4.477  0.00  0.00    +0.000 C 
ATOM     13  C   UNL     1     -42.879  79.643   3.424  0.00  0.00    +0.000 C 
ATOM     14  C   UNL     1     -44.790  81.090   4.209  0.00  0.00    +0.000 C 
BRANCH  11  16
ATOM     15  N   UNL     1     -42.889  77.916   5.509  0.00  0.00    +0.000 NA
ATOM     16  C   UNL     1     -42.064  79.112   5.818  0.00  0.00    +0.000 C 
ATOM     17  C   UNL     1     -40.752  78.663   6.486  0.00  0.00    +0.000 C 
ATOM     18  C   UNL     1     -41.032  77.860   7.757  0.00  0.00    +0.000 C 
ATOM     19  C   UNL     1     -43.255  77.223   6.753  0.00  0.00    +0.000 C 
ATOM     20  C   UNL     1     -42.014  76.724   7.490  0.00  0.00    +0.000 C 
ATOM     21  H   UNL     1     -42.311  77.268   4.967  0.00  0.00    +0.000 HD
ENDBRANCH  11  16
BRANCH  11  22
ATOM     22  O   UNL     1     -40.424  79.690   4.068  0.00  0.00    +0.000 OA
ATOM     23  H   UNL     1     -39.896  80.001   4.827  0.00  0.00    +0.000 HD
ENDBRANCH  11  22
ENDBRANCH   3  14
BRANCH   4  24
ATOM     24  N   UNL     1     -45.193  81.110   7.023  0.00  0.00    +0.000 N 
ATOM     25  H   UNL     1     -44.224  80.777   7.083  0.00  0.00    +0.000 HD
BRANCH  24  28
ATOM     26  I   UNL     1     -49.329  77.965  10.587  0.00  0.00    +0.000 I 
ATOM     27  F   UNL     1     -47.806  80.767   6.277  0.00  0.00    +0.000 F 
ATOM     28  C   UNL     1     -46.074  80.391   7.852  0.00  0.00    +0.000 A 
ATOM     29  C   UNL     1     -47.414  80.245   7.450  0.00  0.00    +0.000 A 
ATOM     30  C   UNL     1     -45.705  79.831   9.078  0.00  0.00    +0.000 A 
ATOM     31  C   UNL     1     -48.353  79.560   8.217  0.00  0.00    +0.000 A 
ATOM     32  C   UNL     1     -46.638  79.139   9.863  0.00  0.00    +0.000 A 
ATOM     33  C   UNL     1     -47.956  79.004   9.428  0.00  0.00    +0.000 A 
ENDBRANCH  24  28
ENDBRANCH   4  24
TORSDOF 5
ENDMDL
MODEL 7
REMARK VINA RESULT:      -5.6     24.584     26.196
REMARK  Name = 
REMARK  5 active torsions:
REMARK  status: ('A' for Active; 'I' for Inactive)
REMARK    1  A    between atoms: O_5  and  C_10
REMARK    2  A    between atoms: N_9  and  C_20
REMARK    3  A    between atoms: N_9  and  C_25
REMARK    4  A    between atoms: C_10  and  C_11
REMARK    5  A    between atoms: C_18  and  C_19
REMARK                            x       y       z     vdW  Elec       q    Type
REMARK                         _______ _______ _______ _____ _____    ______ ____
ROOT
ATOM      1  F   UNL     1     -36.955  91.591  -9.327  0.00  0.00    +0.000 F 
ATOM      2  F   UNL     1     -34.791  90.452 -10.470  0.00  0.00    +0.000 F 
ATOM      3  C   UNL     1     -35.765  89.502  -6.596  0.00  0.00    +0.000 A 
ATOM      4  C   UNL     1     -36.583  90.425  -7.284  0.00  0.00    +0.000 A 
ATOM      5  C   UNL     1     -34.649  88.901  -7.203  0.00  0.00    +0.000 A 
ATOM      6  C   UNL     1     -36.219  90.736  -8.601  0.00  0.00    +0.000 A 
ATOM      7  C   UNL     1     -34.323  89.226  -8.517  0.00  0.00    +0.000 A 
ATOM      8  C   UNL     1     -35.111  90.140  -9.206  0.00  0.00    +0.000 A 
ENDROOT
BRANCH   3  14
ATOM      9  O   UNL     1     -35.722  89.931  -4.302  0.00  0.00    +0.000 OA
ATOM     10  N   UNL     1     -36.711  87.962  -4.966  0.00  0.00    +0.000 N 
ATOM     11  C   UNL     1     -36.169  86.038  -4.368  0.00  0.00    +0.000 C 
ATOM     12  C   UNL     1     -36.566  86.713  -5.712  0.00  0.00    +0.000 C 
ATOM     13  C   UNL     1     -36.801  87.282  -3.676  0.00  0.00    +0.000 C 
ATOM     14  C   UNL     1     -36.078  89.164  -5.190  0.00  0.00    +0.000 C 
BRANCH  11  16
ATOM     15  N   UNL     1     -34.448  84.907  -2.986  0.00  0.00    +0.000 NA
ATOM     16  C   UNL     1     -34.652  85.902  -4.070  0.00  0.00    +0.000 C 
ATOM     17  C   UNL     1     -33.868  85.458  -5.318  0.00  0.00    +0.000 C 
ATOM     18  C   UNL     1     -32.380  85.303  -5.003  0.00  0.00    +0.000 C 
ATOM     19  C   UNL     1     -33.028  84.860  -2.607  0.00  0.00    +0.000 C 
ATOM     20  C   UNL     1     -32.161  84.414  -3.783  0.00  0.00    +0.000 C 
ATOM     21  H   UNL     1     -34.687  83.985  -3.358  0.00  0.00    +0.000 HD
ENDBRANCH  11  16
BRANCH  11  22
ATOM     22  O   UNL     1     -36.848  84.778  -4.092  0.00  0.00    +0.000 OA
ATOM     23  H   UNL     1     -37.687  85.065  -3.686  0.00  0.00    +0.000 HD
ENDBRANCH  11  22
ENDBRANCH   3  14
BRANCH   4  24
ATOM     24  N   UNL     1     -37.657  91.050  -6.613  0.00  0.00    +0.000 N 
ATOM     25  H   UNL     1     -37.367  91.827  -6.009  0.00  0.00    +0.000 HD
BRANCH  24  28
ATOM     26  I   UNL     1     -43.933  90.837  -7.132  0.00  0.00    +0.000 I 
ATOM     27  F   UNL     1     -39.312  92.480  -4.965  0.00  0.00    +0.000 F 
ATOM     28  C   UNL     1     -39.053  90.974  -6.778  0.00  0.00    +0.000 A 
ATOM     29  C   UNL     1     -39.878  91.708  -5.906  0.00  0.00    +0.000 A 
ATOM     30  C   UNL     1     -39.681  90.184  -7.745  0.00  0.00    +0.000 A 
ATOM     31  C   UNL     1     -41.267  91.678  -5.992  0.00  0.00    +0.000 A 
ATOM     32  C   UNL     1     -41.078  90.142  -7.844  0.00  0.00    +0.000 A 
ATOM     33  C   UNL     1     -41.865  90.891  -6.969  0.00  0.00    +0.000 A 
ENDBRANCH  24  28
ENDBRANCH   4  24
TORSDOF 5
ENDMDL
MODEL 8
REMARK VINA RESULT:      -5.6      3.516      4.798
REMARK  Name = 
REMARK  5 active torsions:
REMARK  status: ('A' for Active; 'I' for Inactive)
REMARK    1  A    between atoms: O_5  and  C_10
REMARK    2  A    between atoms: N_9  and  C_20
REMARK    3  A    between atoms: N_9  and  C_25
REMARK    4  A    between atoms: C_10  and  C_11
REMARK    5  A    between atoms: C_18  and  C_19
REMARK                            x       y       z     vdW  Elec       q    Type
REMARK                         _______ _______ _______ _____ _____    ______ ____
ROOT
ATOM      1  F   UNL     1     -35.399 103.337  16.346  0.00  0.00    +0.000 F 
ATOM      2  F   UNL     1     -36.029 103.856  13.773  0.00  0.00    +0.000 F 
ATOM      3  C   UNL     1     -33.354 100.861  14.634  0.00  0.00    +0.000 A 
ATOM      4  C   UNL     1     -33.911 101.589  15.708  0.00  0.00    +0.000 A 
ATOM      5  C   UNL     1     -33.698 101.127  13.297  0.00  0.00    +0.000 A 
ATOM      6  C   UNL     1     -34.814 102.611  15.381  0.00  0.00    +0.000 A 
ATOM      7  C   UNL     1     -34.606 102.143  13.011  0.00  0.00    +0.000 A 
ATOM      8  C   UNL     1     -35.157 102.876  14.055  0.00  0.00    +0.000 A 
ENDROOT
BRANCH   3  14
ATOM      9  O   UNL     1     -32.723  98.810  15.552  0.00  0.00    +0.000 OA
ATOM     10  N   UNL     1     -31.078 100.014  14.483  0.00  0.00    +0.000 N 
ATOM     11  C   UNL     1     -29.276 100.662  15.313  0.00  0.00    +0.000 C 
ATOM     12  C   UNL     1     -30.360 101.284  14.387  0.00  0.00    +0.000 C 
ATOM     13  C   UNL     1     -29.898  99.283  14.942  0.00  0.00    +0.000 C 
ATOM     14  C   UNL     1     -32.367  99.796  14.915  0.00  0.00    +0.000 C 
BRANCH  11  16
ATOM     15  N   UNL     1     -29.089  99.741  17.608  0.00  0.00    +0.000 NA
ATOM     16  C   UNL     1     -29.386 100.971  16.830  0.00  0.00    +0.000 C 
ATOM     17  C   UNL     1     -28.412 102.084  17.253  0.00  0.00    +0.000 C 
ATOM     18  C   UNL     1     -28.512 102.359  18.754  0.00  0.00    +0.000 C 
ATOM     19  C   UNL     1     -29.311  99.985  19.041  0.00  0.00    +0.000 C 
ATOM     20  C   UNL     1     -28.376 101.074  19.563  0.00  0.00    +0.000 C 
ATOM     21  H   UNL     1     -28.095  99.530  17.493  0.00  0.00    +0.000 HD
ENDBRANCH  11  16
BRANCH  11  22
ATOM     22  O   UNL     1     -27.904 100.852  14.862  0.00  0.00    +0.000 OA
ATOM     23  H   UNL     1     -27.614  99.944  14.652  0.00  0.00    +0.000 HD
ENDBRANCH  11  22
ENDBRANCH   3  14
BRANCH   4  24
ATOM     24  N   UNL     1     -33.488 101.329  17.030  0.00  0.00    +0.000 N 
ATOM     25  H   UNL     1     -33.528 100.336  17.285  0.00  0.00    +0.000 HD
BRANCH  24  28
ATOM     26  I   UNL     1     -30.545 104.682  21.479  0.00  0.00    +0.000 I 
ATOM     27  F   UNL     1     -33.162 100.402  19.587  0.00  0.00    +0.000 F 
ATOM     28  C   UNL     1     -32.814 102.115  17.984  0.00  0.00    +0.000 A 
ATOM     29  C   UNL     1     -32.676 101.619  19.293  0.00  0.00    +0.000 A 
ATOM     30  C   UNL     1     -32.293 103.384  17.719  0.00  0.00    +0.000 A 
ATOM     31  C   UNL     1     -32.036 102.337  20.299  0.00  0.00    +0.000 A 
ATOM     32  C   UNL     1     -31.646 104.121  18.720  0.00  0.00    +0.000 A 
ATOM     33  C   UNL     1     -31.518 103.593  20.005  0.00  0.00    +0.000 A 
ENDBRANCH  24  28
ENDBRANCH   4  24
TORSDOF 5
ENDMDL
MODEL 9
REMARK VINA RESULT:      -5.5      5.733      8.421
REMARK  Name = 
REMARK  5 active torsions:
REMARK  status: ('A' for Active; 'I' for Inactive)
REMARK    1  A    between atoms: O_5  and  C_10
REMARK    2  A    between atoms: N_9  and  C_20
REMARK    3  A    between atoms: N_9  and  C_25
REMARK    4  A    between atoms: C_10  and  C_11
REMARK    5  A    between atoms: C_18  and  C_19
REMARK                            x       y       z     vdW  Elec       q    Type
REMARK                         _______ _______ _______ _____ _____    ______ ____
ROOT
ATOM      1  F   UNL     1     -33.590 101.472  13.903  0.00  0.00    +0.000 F 
ATOM      2  F   UNL     1     -33.859  98.964  14.863  0.00  0.00    +0.000 F 
ATOM      3  C   UNL     1     -37.193 101.029  13.646  0.00  0.00    +0.000 A 
ATOM      4  C   UNL     1     -35.937 101.669  13.548  0.00  0.00    +0.000 A 
ATOM      5  C   UNL     1     -37.323  99.717  14.133  0.00  0.00    +0.000 A 
ATOM      6  C   UNL     1     -34.819 100.941  13.979  0.00  0.00    +0.000 A 
ATOM      7  C   UNL     1     -36.189  99.021  14.544  0.00  0.00    +0.000 A 
ATOM      8  C   UNL     1     -34.947  99.638  14.463  0.00  0.00    +0.000 A 
ENDROOT
BRANCH   3  14
ATOM      9  O   UNL     1     -38.585 102.013  12.052  0.00  0.00    +0.000 OA
ATOM     10  N   UNL     1     -39.258 102.165  14.249  0.00  0.00    +0.000 N 
ATOM     11  C   UNL     1     -39.641 103.920  15.311  0.00  0.00    +0.000 C 
ATOM     12  C   UNL     1     -38.910 102.580  15.606  0.00  0.00    +0.000 C 
ATOM     13  C   UNL     1     -40.308 103.173  14.117  0.00  0.00    +0.000 C 
ATOM     14  C   UNL     1     -38.412 101.761  13.240  0.00  0.00    +0.000 C 
BRANCH  11  16
ATOM     15  N   UNL     1     -39.485 105.881  13.800  0.00  0.00    +0.000 NA
ATOM     16  C   UNL     1     -38.763 105.112  14.846  0.00  0.00    +0.000 C 
ATOM     17  C   UNL     1     -38.418 106.050  16.016  0.00  0.00    +0.000 C 
ATOM     18  C   UNL     1     -37.574 107.234  15.539  0.00  0.00    +0.000 C 
ATOM     19  C   UNL     1     -38.616 106.938  13.262  0.00  0.00    +0.000 C 
ATOM     20  C   UNL     1     -38.225 107.935  14.351  0.00  0.00    +0.000 C 
ATOM     21  H   UNL     1     -40.279 106.348  14.247  0.00  0.00    +0.000 HD
ENDBRANCH  11  16
BRANCH  11  22
ATOM     22  O   UNL     1     -40.566 104.356  16.349  0.00  0.00    +0.000 OA
ATOM     23  H   UNL     1     -40.094 104.131  17.173  0.00  0.00    +0.000 HD
ENDBRANCH  11  22
ENDBRANCH   3  14
BRANCH   4  24
ATOM     24  N   UNL     1     -35.862 103.009  13.112  0.00  0.00    +0.000 N 
ATOM     25  H   UNL     1     -36.466 103.214  12.307  0.00  0.00    +0.000 HD
BRANCH  24  28
ATOM     26  I   UNL     1     -33.384 108.301  15.470  0.00  0.00    +0.000 I 
ATOM     27  F   UNL     1     -35.747 105.339  11.676  0.00  0.00    +0.000 F 
ATOM     28  C   UNL     1     -35.306 104.166  13.689  0.00  0.00    +0.000 A 
ATOM     29  C   UNL     1     -35.246 105.344  12.922  0.00  0.00    +0.000 A 
ATOM     30  C   UNL     1     -34.776 104.214  14.982  0.00  0.00    +0.000 A 
ATOM     31  C   UNL     1     -34.701 106.528  13.412  0.00  0.00    +0.000 A 
ATOM     32  C   UNL     1     -34.223 105.397  15.491  0.00  0.00    +0.000 A 
ATOM     33  C   UNL     1     -34.190 106.548  14.705  0.00  0.00    +0.000 A 
ENDBRANCH  24  28
ENDBRANCH   4  24
TORSDOF 5
ENDMDL
