MODEL 1
REMARK VINA RESULT:      -7.2      0.000      0.000
REMARK  Name = COUMESTROL.pdbqt.pdb
REMARK  2 active torsions:
REMARK  status: ('A' for Active; 'I' for Inactive)
REMARK    1  A    between atoms: C_16  and  O_19
REMARK    2  A    between atoms: C_18  and  O_21
REMARK                            x       y       z     vdW  Elec       q    Type
REMARK                         _______ _______ _______ _____ _____    ______ ____
ROOT
ATOM      1  O   UNL     1     -33.272 100.373  13.899  0.00  0.00    +0.000 OA
ATOM      2  O   UNL     1     -36.152  98.577  16.171  0.00  0.00    +0.000 OA
ATOM      3  O   UNL     1     -34.483  97.977  17.652  0.00  0.00    +0.000 OA
ATOM      4  C   UNL     1     -33.853  99.199  15.741  0.00  0.00    +0.000 A 
ATOM      5  C   UNL     1     -34.284  99.805  14.590  0.00  0.00    +0.000 A 
ATOM      6  C   UNL     1     -32.451  99.400  15.783  0.00  0.00    +0.000 A 
ATOM      7  C   UNL     1     -35.639  99.856  14.131  0.00  0.00    +0.000 A 
ATOM      8  C   UNL     1     -32.141 100.126  14.629  0.00  0.00    +0.000 A 
ATOM      9  C   UNL     1     -36.570  99.218  14.964  0.00  0.00    +0.000 A 
ATOM     10  C   UNL     1     -34.800  98.537  16.610  0.00  0.00    +0.000 A 
ATOM     11  C   UNL     1     -31.410  99.053  16.659  0.00  0.00    +0.000 A 
ATOM     12  C   UNL     1     -36.063 100.475  12.961  0.00  0.00    +0.000 A 
ATOM     13  C   UNL     1     -30.855 100.537  14.281  0.00  0.00    +0.000 A 
ATOM     14  C   UNL     1     -37.923  99.185  14.649  0.00  0.00    +0.000 A 
ATOM     15  C   UNL     1     -30.108  99.449  16.340  0.00  0.00    +0.000 A 
ATOM     16  C   UNL     1     -29.849 100.172  15.178  0.00  0.00    +0.000 A 
ATOM     17  C   UNL     1     -37.418 100.449  12.633  0.00  0.00    +0.000 A 
ATOM     18  C   UNL     1     -38.331  99.809  13.475  0.00  0.00    +0.000 A 
ENDROOT
BRANCH  16  19
ATOM     19  O   UNL     1     -28.550 100.527  14.928  0.00  0.00    +0.000 OA
ATOM     20  H   UNL     1     -28.382 101.390  15.345  0.00  0.00    +0.000 HD
ENDBRANCH  16  19
BRANCH  18  21
ATOM     21  O   UNL     1     -39.660  99.780  13.160  0.00  0.00    +0.000 OA
ATOM     22  H   UNL     1     -39.821 100.425  12.449  0.00  0.00    +0.000 HD
ENDBRANCH  18  21
TORSDOF 2
ENDMDL
MODEL 2
REMARK VINA RESULT:      -7.0      1.654      6.544
REMARK  Name = COUMESTROL.pdbqt.pdb
REMARK  2 active torsions:
REMARK  status: ('A' for Active; 'I' for Inactive)
REMARK    1  A    between atoms: C_16  and  O_19
REMARK    2  A    between atoms: C_18  and  O_21
REMARK                            x       y       z     vdW  Elec       q    Type
REMARK                         _______ _______ _______ _____ _____    ______ ____
ROOT
ATOM      1  O   UNL     1     -32.745 101.527  13.565  0.00  0.00    +0.000 OA
ATOM      2  O   UNL     1     -30.751  99.351  16.389  0.00  0.00    +0.000 OA
ATOM      3  O   UNL     1     -32.689  98.129  16.688  0.00  0.00    +0.000 OA
ATOM      4  C   UNL     1     -32.729  99.860  15.092  0.00  0.00    +0.000 A 
ATOM      5  C   UNL     1     -32.014 100.858  14.483  0.00  0.00    +0.000 A 
ATOM      6  C   UNL     1     -34.022  99.900  14.511  0.00  0.00    +0.000 A 
ATOM      7  C   UNL     1     -30.648 101.190  14.754  0.00  0.00    +0.000 A 
ATOM      8  C   UNL     1     -33.982 100.941  13.579  0.00  0.00    +0.000 A 
ATOM      9  C   UNL     1     -30.032 100.399  15.735  0.00  0.00    +0.000 A 
ATOM     10  C   UNL     1     -32.109  99.037  16.104  0.00  0.00    +0.000 A 
ATOM     11  C   UNL     1     -35.217  99.181  14.665  0.00  0.00    +0.000 A 
ATOM     12  C   UNL     1     -29.934 102.204  14.129  0.00  0.00    +0.000 A 
ATOM     13  C   UNL     1     -35.059 101.322  12.778  0.00  0.00    +0.000 A 
ATOM     14  C   UNL     1     -28.708 100.603  16.106  0.00  0.00    +0.000 A 
ATOM     15  C   UNL     1     -36.317  99.536  13.878  0.00  0.00    +0.000 A 
ATOM     16  C   UNL     1     -36.229 100.581  12.962  0.00  0.00    +0.000 A 
ATOM     17  C   UNL     1     -28.605 102.421  14.491  0.00  0.00    +0.000 A 
ATOM     18  C   UNL     1     -28.007 101.623  15.471  0.00  0.00    +0.000 A 
ENDROOT
BRANCH  16  19
ATOM     19  O   UNL     1     -37.345 100.875  12.224  0.00  0.00    +0.000 OA
ATOM     20  H   UNL     1     -37.237 100.489  11.338  0.00  0.00    +0.000 HD
ENDBRANCH  16  19
BRANCH  18  21
ATOM     21  O   UNL     1     -26.705 101.829  15.830  0.00  0.00    +0.000 OA
ATOM     22  H   UNL     1     -26.681 102.076  16.771  0.00  0.00    +0.000 HD
ENDBRANCH  18  21
TORSDOF 2
ENDMDL
MODEL 3
REMARK VINA RESULT:      -6.9      1.546      3.138
REMARK  Name = COUMESTROL.pdbqt.pdb
REMARK  2 active torsions:
REMARK  status: ('A' for Active; 'I' for Inactive)
REMARK    1  A    between atoms: C_16  and  O_19
REMARK    2  A    between atoms: C_18  and  O_21
REMARK                            x       y       z     vdW  Elec       q    Type
REMARK                         _______ _______ _______ _____ _____    ______ ____
ROOT
ATOM      1  O   UNL     1     -34.025  98.310  16.421  0.00  0.00    +0.000 OA
ATOM      2  O   UNL     1     -33.863 100.946  13.304  0.00  0.00    +0.000 OA
ATOM      3  O   UNL     1     -31.604 101.173  13.730  0.00  0.00    +0.000 OA
ATOM      4  C   UNL     1     -32.829  99.710  15.109  0.00  0.00    +0.000 A 
ATOM      5  C   UNL     1     -34.059  99.169  15.379  0.00  0.00    +0.000 A 
ATOM      6  C   UNL     1     -31.942  99.147  16.060  0.00  0.00    +0.000 A 
ATOM      7  C   UNL     1     -35.268  99.451  14.666  0.00  0.00    +0.000 A 
ATOM      8  C   UNL     1     -32.723  98.293  16.843  0.00  0.00    +0.000 A 
ATOM      9  C   UNL     1     -35.133 100.364  13.610  0.00  0.00    +0.000 A 
ATOM     10  C   UNL     1     -32.673 100.653  14.025  0.00  0.00    +0.000 A 
ATOM     11  C   UNL     1     -30.572  99.259  16.349  0.00  0.00    +0.000 A 
ATOM     12  C   UNL     1     -36.509  98.895  14.949  0.00  0.00    +0.000 A 
ATOM     13  C   UNL     1     -32.235  97.534  17.906  0.00  0.00    +0.000 A 
ATOM     14  C   UNL     1     -36.219 100.736  12.828  0.00  0.00    +0.000 A 
ATOM     15  C   UNL     1     -30.049  98.511  17.408  0.00  0.00    +0.000 A 
ATOM     16  C   UNL     1     -30.869  97.673  18.161  0.00  0.00    +0.000 A 
ATOM     17  C   UNL     1     -37.609  99.259  14.173  0.00  0.00    +0.000 A 
ATOM     18  C   UNL     1     -37.455 100.171  13.125  0.00  0.00    +0.000 A 
ENDROOT
BRANCH  16  19
ATOM     19  O   UNL     1     -30.290  96.971  19.184  0.00  0.00    +0.000 OA
ATOM     20  H   UNL     1     -30.959  96.376  19.565  0.00  0.00    +0.000 HD
ENDBRANCH  16  19
BRANCH  18  21
ATOM     21  O   UNL     1     -38.528 100.532  12.360  0.00  0.00    +0.000 OA
ATOM     22  H   UNL     1     -38.967 101.290  12.783  0.00  0.00    +0.000 HD
ENDBRANCH  18  21
TORSDOF 2
ENDMDL
MODEL 4
REMARK VINA RESULT:      -6.9      1.516      6.712
REMARK  Name = COUMESTROL.pdbqt.pdb
REMARK  2 active torsions:
REMARK  status: ('A' for Active; 'I' for Inactive)
REMARK    1  A    between atoms: C_16  and  O_19
REMARK    2  A    between atoms: C_18  and  O_21
REMARK                            x       y       z     vdW  Elec       q    Type
REMARK                         _______ _______ _______ _____ _____    ______ ____
ROOT
ATOM      1  O   UNL     1     -34.775  98.584  16.109  0.00  0.00    +0.000 OA
ATOM      2  O   UNL     1     -31.223 100.245  14.964  0.00  0.00    +0.000 OA
ATOM      3  O   UNL     1     -32.368 101.298  13.256  0.00  0.00    +0.000 OA
ATOM      4  C   UNL     1     -33.606  99.916  14.705  0.00  0.00    +0.000 A 
ATOM      5  C   UNL     1     -33.562  99.090  15.798  0.00  0.00    +0.000 A 
ATOM      6  C   UNL     1     -34.961  99.935  14.289  0.00  0.00    +0.000 A 
ATOM      7  C   UNL     1     -32.389  98.771  16.555  0.00  0.00    +0.000 A 
ATOM      8  C   UNL     1     -35.640  99.101  15.183  0.00  0.00    +0.000 A 
ATOM      9  C   UNL     1     -31.209  99.378  16.101  0.00  0.00    +0.000 A 
ATOM     10  C   UNL     1     -32.399 100.550  14.225  0.00  0.00    +0.000 A 
ATOM     11  C   UNL     1     -35.691 100.557  13.264  0.00  0.00    +0.000 A 
ATOM     12  C   UNL     1     -32.358  97.931  17.661  0.00  0.00    +0.000 A 
ATOM     13  C   UNL     1     -37.009  98.840  15.129  0.00  0.00    +0.000 A 
ATOM     14  C   UNL     1     -29.992  99.163  16.735  0.00  0.00    +0.000 A 
ATOM     15  C   UNL     1     -37.066 100.317  13.180  0.00  0.00    +0.000 A 
ATOM     16  C   UNL     1     -37.698  99.478  14.095  0.00  0.00    +0.000 A 
ATOM     17  C   UNL     1     -31.143  97.706  18.308  0.00  0.00    +0.000 A 
ATOM     18  C   UNL     1     -29.977  98.320  17.842  0.00  0.00    +0.000 A 
ENDROOT
BRANCH  16  19
ATOM     19  O   UNL     1     -39.046  99.287  13.954  0.00  0.00    +0.000 OA
ATOM     20  H   UNL     1     -39.372  98.809  14.736  0.00  0.00    +0.000 HD
ENDBRANCH  16  19
BRANCH  18  21
ATOM     21  O   UNL     1     -28.783  98.103  18.470  0.00  0.00    +0.000 OA
ATOM     22  H   UNL     1     -28.465  97.216  18.228  0.00  0.00    +0.000 HD
ENDBRANCH  18  21
TORSDOF 2
ENDMDL
MODEL 5
REMARK VINA RESULT:      -6.5      1.775      3.105
REMARK  Name = COUMESTROL.pdbqt.pdb
REMARK  2 active torsions:
REMARK  status: ('A' for Active; 'I' for Inactive)
REMARK    1  A    between atoms: C_16  and  O_19
REMARK    2  A    between atoms: C_18  and  O_21
REMARK                            x       y       z     vdW  Elec       q    Type
REMARK                         _______ _______ _______ _____ _____    ______ ____
ROOT
ATOM      1  O   UNL     1     -34.762  99.148  14.956  0.00  0.00    +0.000 OA
ATOM      2  O   UNL     1     -36.049 102.474  12.964  0.00  0.00    +0.000 OA
ATOM      3  O   UNL     1     -33.833 103.090  12.742  0.00  0.00    +0.000 OA
ATOM      4  C   UNL     1     -34.295 101.077  13.873  0.00  0.00    +0.000 A 
ATOM      5  C   UNL     1     -35.271 100.219  14.309  0.00  0.00    +0.000 A 
ATOM      6  C   UNL     1     -33.065 100.502  14.278  0.00  0.00    +0.000 A 
ATOM      7  C   UNL     1     -36.679 100.395  14.123  0.00  0.00    +0.000 A 
ATOM      8  C   UNL     1     -33.404  99.318  14.940  0.00  0.00    +0.000 A 
ATOM      9  C   UNL     1     -37.043 101.559  13.430  0.00  0.00    +0.000 A 
ATOM     10  C   UNL     1     -34.653 102.281  13.159  0.00  0.00    +0.000 A 
ATOM     11  C   UNL     1     -31.707 100.843  14.164  0.00  0.00    +0.000 A 
ATOM     12  C   UNL     1     -37.659  99.517  14.569  0.00  0.00    +0.000 A 
ATOM     13  C   UNL     1     -32.479  98.438  15.502  0.00  0.00    +0.000 A 
ATOM     14  C   UNL     1     -38.374 101.865  13.174  0.00  0.00    +0.000 A 
ATOM     15  C   UNL     1     -30.753  99.983  14.716  0.00  0.00    +0.000 A 
ATOM     16  C   UNL     1     -31.141  98.813  15.366  0.00  0.00    +0.000 A 
ATOM     17  C   UNL     1     -38.999  99.811  14.319  0.00  0.00    +0.000 A 
ATOM     18  C   UNL     1     -39.343 100.976  13.628  0.00  0.00    +0.000 A 
ENDROOT
BRANCH  16  19
ATOM     19  O   UNL     1     -30.153  98.018  15.883  0.00  0.00    +0.000 OA
ATOM     20  H   UNL     1     -30.532  97.488  16.605  0.00  0.00    +0.000 HD
ENDBRANCH  16  19
BRANCH  18  21
ATOM     21  O   UNL     1     -40.654 101.271  13.379  0.00  0.00    +0.000 OA
ATOM     22  H   UNL     1     -40.705 101.761  12.540  0.00  0.00    +0.000 HD
ENDBRANCH  18  21
TORSDOF 2
ENDMDL
MODEL 6
REMARK VINA RESULT:      -6.4      1.584      2.135
REMARK  Name = COUMESTROL.pdbqt.pdb
REMARK  2 active torsions:
REMARK  status: ('A' for Active; 'I' for Inactive)
REMARK    1  A    between atoms: C_16  and  O_19
REMARK    2  A    between atoms: C_18  and  O_21
REMARK                            x       y       z     vdW  Elec       q    Type
REMARK                         _______ _______ _______ _____ _____    ______ ____
ROOT
ATOM      1  O   UNL     1     -31.518 101.487  14.161  0.00  0.00    +0.000 OA
ATOM      2  O   UNL     1     -34.074  98.822  15.908  0.00  0.00    +0.000 OA
ATOM      3  O   UNL     1     -32.398  98.346  17.426  0.00  0.00    +0.000 OA
ATOM      4  C   UNL     1     -31.938  99.950  15.765  0.00  0.00    +0.000 A 
ATOM      5  C   UNL     1     -32.424 100.628  14.677  0.00  0.00    +0.000 A 
ATOM      6  C   UNL     1     -30.614 100.418  15.953  0.00  0.00    +0.000 A 
ATOM      7  C   UNL     1     -33.733 100.477  14.117  0.00  0.00    +0.000 A 
ATOM      8  C   UNL     1     -30.402 101.361  14.943  0.00  0.00    +0.000 A 
ATOM      9  C   UNL     1     -34.552  99.545  14.771  0.00  0.00    +0.000 A 
ATOM     10  C   UNL     1     -32.769  98.986  16.450  0.00  0.00    +0.000 A 
ATOM     11  C   UNL     1     -29.572 100.156  16.857  0.00  0.00    +0.000 A 
ATOM     12  C   UNL     1     -34.214 101.171  13.014  0.00  0.00    +0.000 A 
ATOM     13  C   UNL     1     -29.215 102.071  14.765  0.00  0.00    +0.000 A 
ATOM     14  C   UNL     1     -35.848  99.291  14.342  0.00  0.00    +0.000 A 
ATOM     15  C   UNL     1     -28.367 100.850  16.708  0.00  0.00    +0.000 A 
ATOM     16  C   UNL     1     -28.204 101.781  15.685  0.00  0.00    +0.000 A 
ATOM     17  C   UNL     1     -35.513 100.926  12.572  0.00  0.00    +0.000 A 
ATOM     18  C   UNL     1     -36.315  99.993  13.236  0.00  0.00    +0.000 A 
ENDROOT
BRANCH  16  19
ATOM     19  O   UNL     1     -26.998 102.423  15.598  0.00  0.00    +0.000 OA
ATOM     20  H   UNL     1     -27.139 103.368  15.780  0.00  0.00    +0.000 HD
ENDBRANCH  16  19
BRANCH  18  21
ATOM     21  O   UNL     1     -37.589  99.748  12.808  0.00  0.00    +0.000 OA
ATOM     22  H   UNL     1     -38.208 100.047  13.497  0.00  0.00    +0.000 HD
ENDBRANCH  18  21
TORSDOF 2
ENDMDL
MODEL 7
REMARK VINA RESULT:      -6.4      1.684      2.165
REMARK  Name = COUMESTROL.pdbqt.pdb
REMARK  2 active torsions:
REMARK  status: ('A' for Active; 'I' for Inactive)
REMARK    1  A    between atoms: C_16  and  O_19
REMARK    2  A    between atoms: C_18  and  O_21
REMARK                            x       y       z     vdW  Elec       q    Type
REMARK                         _______ _______ _______ _____ _____    ______ ____
ROOT
ATOM      1  O   UNL     1     -32.453  99.499  15.550  0.00  0.00    +0.000 OA
ATOM      2  O   UNL     1     -36.331  98.309  16.027  0.00  0.00    +0.000 OA
ATOM      3  O   UNL     1     -35.641  97.107  17.876  0.00  0.00    +0.000 OA
ATOM      4  C   UNL     1     -34.006  98.324  16.697  0.00  0.00    +0.000 A 
ATOM      5  C   UNL     1     -33.756  99.154  15.636  0.00  0.00    +0.000 A 
ATOM      6  C   UNL     1     -32.757  98.127  17.337  0.00  0.00    +0.000 A 
ATOM      7  C   UNL     1     -34.730  99.626  14.699  0.00  0.00    +0.000 A 
ATOM      8  C   UNL     1     -31.834  98.870  16.595  0.00  0.00    +0.000 A 
ATOM      9  C   UNL     1     -36.038  99.175  14.928  0.00  0.00    +0.000 A 
ATOM     10  C   UNL     1     -35.348  97.850  16.947  0.00  0.00    +0.000 A 
ATOM     11  C   UNL     1     -32.300  97.410  18.455  0.00  0.00    +0.000 A 
ATOM     12  C   UNL     1     -34.463 100.468  13.626  0.00  0.00    +0.000 A 
ATOM     13  C   UNL     1     -30.473  98.952  16.889  0.00  0.00    +0.000 A 
ATOM     14  C   UNL     1     -37.090  99.550  14.102  0.00  0.00    +0.000 A 
ATOM     15  C   UNL     1     -30.941  97.470  18.778  0.00  0.00    +0.000 A 
ATOM     16  C   UNL     1     -30.059  98.224  18.007  0.00  0.00    +0.000 A 
ATOM     17  C   UNL     1     -35.510 100.852  12.789  0.00  0.00    +0.000 A 
ATOM     18  C   UNL     1     -36.807 100.392  13.033  0.00  0.00    +0.000 A 
ENDROOT
BRANCH  16  19
ATOM     19  O   UNL     1     -28.742  98.237  18.381  0.00  0.00    +0.000 OA
ATOM     20  H   UNL     1     -28.397  97.330  18.320  0.00  0.00    +0.000 HD
ENDBRANCH  16  19
BRANCH  18  21
ATOM     21  O   UNL     1     -37.837 100.765  12.216  0.00  0.00    +0.000 OA
ATOM     22  H   UNL     1     -38.610 100.210  12.423  0.00  0.00    +0.000 HD
ENDBRANCH  18  21
TORSDOF 2
ENDMDL
MODEL 8
REMARK VINA RESULT:      -6.4      2.357      4.591
REMARK  Name = COUMESTROL.pdbqt.pdb
REMARK  2 active torsions:
REMARK  status: ('A' for Active; 'I' for Inactive)
REMARK    1  A    between atoms: C_16  and  O_19
REMARK    2  A    between atoms: C_18  and  O_21
REMARK                            x       y       z     vdW  Elec       q    Type
REMARK                         _______ _______ _______ _____ _____    ______ ____
ROOT
ATOM      1  O   UNL     1     -34.060  97.835  16.724  0.00  0.00    +0.000 OA
ATOM      2  O   UNL     1     -31.509 100.540  15.032  0.00  0.00    +0.000 OA
ATOM      3  O   UNL     1     -29.873  99.759  16.466  0.00  0.00    +0.000 OA
ATOM      4  C   UNL     1     -32.005  98.770  16.606  0.00  0.00    +0.000 A 
ATOM      5  C   UNL     1     -33.284  98.756  16.112  0.00  0.00    +0.000 A 
ATOM      6  C   UNL     1     -31.970  97.776  17.616  0.00  0.00    +0.000 A 
ATOM      7  C   UNL     1     -33.784  99.599  15.068  0.00  0.00    +0.000 A 
ATOM      8  C   UNL     1     -33.256  97.230  17.650  0.00  0.00    +0.000 A 
ATOM      9  C   UNL     1     -32.849 100.500  14.538  0.00  0.00    +0.000 A 
ATOM     10  C   UNL     1     -31.031  99.693  16.070  0.00  0.00    +0.000 A 
ATOM     11  C   UNL     1     -31.002  97.276  18.502  0.00  0.00    +0.000 A 
ATOM     12  C   UNL     1     -35.083  99.574  14.576  0.00  0.00    +0.000 A 
ATOM     13  C   UNL     1     -33.654  96.209  18.513  0.00  0.00    +0.000 A 
ATOM     14  C   UNL     1     -33.189 101.382  13.520  0.00  0.00    +0.000 A 
ATOM     15  C   UNL     1     -31.367  96.252  19.382  0.00  0.00    +0.000 A 
ATOM     16  C   UNL     1     -32.663  95.740  19.378  0.00  0.00    +0.000 A 
ATOM     17  C   UNL     1     -35.437 100.454  13.554  0.00  0.00    +0.000 A 
ATOM     18  C   UNL     1     -34.493 101.345  13.037  0.00  0.00    +0.000 A 
ENDROOT
BRANCH  16  19
ATOM     19  O   UNL     1     -32.951  94.738  20.267  0.00  0.00    +0.000 OA
ATOM     20  H   UNL     1     -33.161  95.141  21.127  0.00  0.00    +0.000 HD
ENDBRANCH  16  19
BRANCH  18  21
ATOM     21  O   UNL     1     -34.834 102.210  12.036  0.00  0.00    +0.000 OA
ATOM     22  H   UNL     1     -34.041 102.714  11.782  0.00  0.00    +0.000 HD
ENDBRANCH  18  21
TORSDOF 2
ENDMDL
MODEL 9
REMARK VINA RESULT:      -6.2      1.588      6.663
REMARK  Name = COUMESTROL.pdbqt.pdb
REMARK  2 active torsions:
REMARK  status: ('A' for Active; 'I' for Inactive)
REMARK    1  A    between atoms: C_16  and  O_19
REMARK    2  A    between atoms: C_18  and  O_21
REMARK                            x       y       z     vdW  Elec       q    Type
REMARK                         _______ _______ _______ _____ _____    ______ ____
ROOT
ATOM      1  O   UNL     1     -35.223  99.220  16.214  0.00  0.00    +0.000 OA
ATOM      2  O   UNL     1     -33.281 101.349  13.319  0.00  0.00    +0.000 OA
ATOM      3  O   UNL     1     -35.346 102.123  12.628  0.00  0.00    +0.000 OA
ATOM      4  C   UNL     1     -35.295 100.642  14.458  0.00  0.00    +0.000 A 
ATOM      5  C   UNL     1     -34.505  99.891  15.288  0.00  0.00    +0.000 A 
ATOM      6  C   UNL     1     -36.626 100.430  14.896  0.00  0.00    +0.000 A 
ATOM      7  C   UNL     1     -33.078  99.796  15.219  0.00  0.00    +0.000 A 
ATOM      8  C   UNL     1     -36.530  99.549  15.977  0.00  0.00    +0.000 A 
ATOM      9  C   UNL     1     -32.483 100.555  14.200  0.00  0.00    +0.000 A 
ATOM     10  C   UNL     1     -34.699 101.430  13.404  0.00  0.00    +0.000 A 
ATOM     11  C   UNL     1     -37.898 100.879  14.505  0.00  0.00    +0.000 A 
ATOM     12  C   UNL     1     -32.287  99.030  16.066  0.00  0.00    +0.000 A 
ATOM     13  C   UNL     1     -37.621  99.076  16.706  0.00  0.00    +0.000 A 
ATOM     14  C   UNL     1     -31.107 100.563  14.010  0.00  0.00    +0.000 A 
ATOM     15  C   UNL     1     -39.015 100.424  15.215  0.00  0.00    +0.000 A 
ATOM     16  C   UNL     1     -38.868  99.546  16.286  0.00  0.00    +0.000 A 
ATOM     17  C   UNL     1     -30.904  99.029  15.887  0.00  0.00    +0.000 A 
ATOM     18  C   UNL     1     -30.329  99.791  14.866  0.00  0.00    +0.000 A 
ENDROOT
BRANCH  16  19
ATOM     19  O   UNL     1     -40.004  99.142  16.935  0.00  0.00    +0.000 OA
ATOM     20  H   UNL     1     -40.218  99.802  17.617  0.00  0.00    +0.000 HD
ENDBRANCH  16  19
BRANCH  18  21
ATOM     21  O   UNL     1     -28.975  99.795  14.685  0.00  0.00    +0.000 OA
ATOM     22  H   UNL     1     -28.784 100.143  13.797  0.00  0.00    +0.000 HD
ENDBRANCH  18  21
TORSDOF 2
ENDMDL
