MODEL 1
REMARK VINA RESULT:      -7.4      0.000      0.000
REMARK  Name = CP466722.pdbqt.pdb
REMARK  3 active torsions:
REMARK  status: ('A' for Active; 'I' for Inactive)
REMARK    1  A    between atoms: C_5  and  C_23
REMARK    2  A    between atoms: C_14  and  O_16
REMARK    3  A    between atoms: C_15  and  O_18
REMARK                            x       y       z     vdW  Elec       q    Type
REMARK                         _______ _______ _______ _____ _____    ______ ____
ROOT
ATOM      1  N   UNL     1     -32.582  99.573  15.276  0.00  0.00    +0.000 N 
ATOM      2  N   UNL     1     -33.900  99.264  15.281  0.00  0.00    +0.000 NA
ATOM      3  N   UNL     1     -33.451 100.767  13.631  0.00  0.00    +0.000 NA
ATOM      4  C   UNL     1     -32.333 100.484  14.247  0.00  0.00    +0.000 A 
ATOM      5  C   UNL     1     -34.395 100.004  14.277  0.00  0.00    +0.000 A 
ATOM      6  C   UNL     1     -31.652  99.044  16.232  0.00  0.00    +0.000 A 
ATOM      7  N   UNL     1     -30.387  99.542  16.197  0.00  0.00    +0.000 NA
ATOM      8  C   UNL     1     -29.527  99.065  17.103  0.00  0.00    +0.000 A 
ATOM      9  N   UNL     1     -29.812  98.154  18.038  0.00  0.00    +0.000 NA
ATOM     10  C   UNL     1     -31.054  97.669  18.068  0.00  0.00    +0.000 A 
ATOM     11  C   UNL     1     -32.051  98.070  17.169  0.00  0.00    +0.000 A 
ATOM     12  C   UNL     1     -31.363  96.728  19.041  0.00  0.00    +0.000 A 
ATOM     13  C   UNL     1     -33.328  97.467  17.269  0.00  0.00    +0.000 A 
ATOM     14  C   UNL     1     -33.615  96.498  18.224  0.00  0.00    +0.000 A 
ATOM     15  C   UNL     1     -32.637  96.167  19.154  0.00  0.00    +0.000 A 
ATOM     16  N   UNL     1     -31.121 100.984  13.938  0.00  0.00    +0.000 N 
ATOM     17  H   UNL     1     -31.078 101.805  13.345  0.00  0.00    +0.000 HD
ATOM     18  H   UNL     1     -30.353 100.885  14.602  0.00  0.00    +0.000 HD
ENDROOT
BRANCH   5  19
ATOM     19  C   UNL     1     -35.809 100.020  13.889  0.00  0.00    +0.000 A 
ATOM     20  N   UNL     1     -36.163 100.751  12.796  0.00  0.00    +0.000 NA
ATOM     21  C   UNL     1     -37.471 100.751  12.459  0.00  0.00    +0.000 A 
ATOM     22  C   UNL     1     -38.451 100.061  13.150  0.00  0.00    +0.000 A 
ATOM     23  C   UNL     1     -38.060  99.322  14.259  0.00  0.00    +0.000 A 
ATOM     24  C   UNL     1     -36.725  99.295  14.641  0.00  0.00    +0.000 A 
ENDBRANCH   5  19
BRANCH  14  25
ATOM     25  O   UNL     1     -34.882  95.982  18.265  0.00  0.00    +0.000 OA
ATOM     26  C   UNL     1     -35.807  96.909  17.755  0.00  0.00    +0.000 C 
ENDBRANCH  14  25
BRANCH  15  27
ATOM     27  O   UNL     1     -32.875  95.233  20.126  0.00  0.00    +0.000 OA
ATOM     28  C   UNL     1     -32.547  93.949  19.657  0.00  0.00    +0.000 C 
ENDBRANCH  15  27
TORSDOF 3
ENDMDL
MODEL 2
REMARK VINA RESULT:      -6.8      2.835      4.565
REMARK  Name = CP466722.pdbqt.pdb
REMARK  3 active torsions:
REMARK  status: ('A' for Active; 'I' for Inactive)
REMARK    1  A    between atoms: C_5  and  C_23
REMARK    2  A    between atoms: C_14  and  O_16
REMARK    3  A    between atoms: C_15  and  O_18
REMARK                            x       y       z     vdW  Elec       q    Type
REMARK                         _______ _______ _______ _____ _____    ______ ____
ROOT
ATOM      1  N   UNL     1     -34.097  97.741  17.341  0.00  0.00    +0.000 N 
ATOM      2  N   UNL     1     -34.411  98.608  16.349  0.00  0.00    +0.000 NA
ATOM      3  N   UNL     1     -36.244  97.394  16.940  0.00  0.00    +0.000 NA
ATOM      4  C   UNL     1     -35.241  97.021  17.693  0.00  0.00    +0.000 A 
ATOM      5  C   UNL     1     -35.713  98.370  16.130  0.00  0.00    +0.000 A 
ATOM      6  C   UNL     1     -32.771  97.606  17.871  0.00  0.00    +0.000 A 
ATOM      7  N   UNL     1     -32.568  96.604  18.768  0.00  0.00    +0.000 NA
ATOM      8  C   UNL     1     -31.326  96.465  19.243  0.00  0.00    +0.000 A 
ATOM      9  N   UNL     1     -30.276  97.218  18.903  0.00  0.00    +0.000 NA
ATOM     10  C   UNL     1     -30.481  98.200  18.023  0.00  0.00    +0.000 A 
ATOM     11  C   UNL     1     -31.734  98.465  17.456  0.00  0.00    +0.000 A 
ATOM     12  C   UNL     1     -29.395  98.983  17.656  0.00  0.00    +0.000 A 
ATOM     13  C   UNL     1     -31.846  99.553  16.556  0.00  0.00    +0.000 A 
ATOM     14  C   UNL     1     -30.760 100.354  16.225  0.00  0.00    +0.000 A 
ATOM     15  C   UNL     1     -29.510 100.030  16.739  0.00  0.00    +0.000 A 
ATOM     16  N   UNL     1     -35.297  96.092  18.667  0.00  0.00    +0.000 N 
ATOM     17  H   UNL     1     -36.093  95.464  18.685  0.00  0.00    +0.000 HD
ATOM     18  H   UNL     1     -34.431  95.709  19.045  0.00  0.00    +0.000 HD
ENDROOT
BRANCH   5  19
ATOM     19  C   UNL     1     -36.517  99.068  15.122  0.00  0.00    +0.000 A 
ATOM     20  N   UNL     1     -37.804  99.380  15.436  0.00  0.00    +0.000 NA
ATOM     21  C   UNL     1     -38.524 100.022  14.490  0.00  0.00    +0.000 A 
ATOM     22  C   UNL     1     -38.034 100.375  13.245  0.00  0.00    +0.000 A 
ATOM     23  C   UNL     1     -36.716 100.046  12.955  0.00  0.00    +0.000 A 
ATOM     24  C   UNL     1     -35.940  99.384  13.898  0.00  0.00    +0.000 A 
ENDBRANCH   5  19
BRANCH  14  25
ATOM     25  O   UNL     1     -30.951 101.371  15.330  0.00  0.00    +0.000 OA
ATOM     26  C   UNL     1     -31.330 100.859  14.077  0.00  0.00    +0.000 C 
ENDBRANCH  14  25
BRANCH  15  27
ATOM     27  O   UNL     1     -28.404 100.774  16.428  0.00  0.00    +0.000 OA
ATOM     28  C   UNL     1     -28.179 101.745  17.420  0.00  0.00    +0.000 C 
ENDBRANCH  15  27
TORSDOF 3
ENDMDL
MODEL 3
REMARK VINA RESULT:      -6.2      2.291      3.124
REMARK  Name = CP466722.pdbqt.pdb
REMARK  3 active torsions:
REMARK  status: ('A' for Active; 'I' for Inactive)
REMARK    1  A    between atoms: C_5  and  C_23
REMARK    2  A    between atoms: C_14  and  O_16
REMARK    3  A    between atoms: C_15  and  O_18
REMARK                            x       y       z     vdW  Elec       q    Type
REMARK                         _______ _______ _______ _____ _____    ______ ____
ROOT
ATOM      1  N   UNL     1     -30.851 101.031  15.532  0.00  0.00    +0.000 N 
ATOM      2  N   UNL     1     -32.069 100.477  15.739  0.00  0.00    +0.000 NA
ATOM      3  N   UNL     1     -31.964 101.389  13.655  0.00  0.00    +0.000 NA
ATOM      4  C   UNL     1     -30.809 101.569  14.244  0.00  0.00    +0.000 A 
ATOM      5  C   UNL     1     -32.716 100.713  14.588  0.00  0.00    +0.000 A 
ATOM      6  C   UNL     1     -29.826 101.062  16.536  0.00  0.00    +0.000 A 
ATOM      7  N   UNL     1     -28.701 101.767  16.242  0.00  0.00    +0.000 NA
ATOM      8  C   UNL     1     -27.757 101.814  17.188  0.00  0.00    +0.000 A 
ATOM      9  N   UNL     1     -27.833 101.236  18.390  0.00  0.00    +0.000 NA
ATOM     10  C   UNL     1     -28.939 100.545  18.673  0.00  0.00    +0.000 A 
ATOM     11  C   UNL     1     -30.001 100.403  17.770  0.00  0.00    +0.000 A 
ATOM     12  C   UNL     1     -29.033  99.948  19.922  0.00  0.00    +0.000 A 
ATOM     13  C   UNL     1     -31.113  99.621  18.161  0.00  0.00    +0.000 A 
ATOM     14  C   UNL     1     -31.180  98.996  19.401  0.00  0.00    +0.000 A 
ATOM     15  C   UNL     1     -30.152  99.209  20.311  0.00  0.00    +0.000 A 
ATOM     16  N   UNL     1     -29.737 102.172  13.696  0.00  0.00    +0.000 N 
ATOM     17  H   UNL     1     -29.877 102.734  12.863  0.00  0.00    +0.000 HD
ATOM     18  H   UNL     1     -28.965 102.465  14.295  0.00  0.00    +0.000 HD
ENDROOT
BRANCH   5  19
ATOM     19  C   UNL     1     -34.099 100.306  14.324  0.00  0.00    +0.000 A 
ATOM     20  N   UNL     1     -34.736 100.859  13.256  0.00  0.00    +0.000 NA
ATOM     21  C   UNL     1     -36.010 100.468  13.034  0.00  0.00    +0.000 A 
ATOM     22  C   UNL     1     -36.689  99.552  13.818  0.00  0.00    +0.000 A 
ATOM     23  C   UNL     1     -36.013  99.002  14.899  0.00  0.00    +0.000 A 
ATOM     24  C   UNL     1     -34.702  99.377  15.164  0.00  0.00    +0.000 A 
ENDBRANCH   5  19
BRANCH  14  25
ATOM     25  O   UNL     1     -32.303  98.276  19.706  0.00  0.00    +0.000 OA
ATOM     26  C   UNL     1     -32.260  97.014  19.090  0.00  0.00    +0.000 C 
ENDBRANCH  14  25
BRANCH  15  27
ATOM     27  O   UNL     1     -30.178  98.634  21.553  0.00  0.00    +0.000 OA
ATOM     28  C   UNL     1     -28.878  98.561  22.081  0.00  0.00    +0.000 C 
ENDBRANCH  15  27
TORSDOF 3
ENDMDL
MODEL 4
REMARK VINA RESULT:      -5.9     22.903     23.603
REMARK  Name = CP466722.pdbqt.pdb
REMARK  3 active torsions:
REMARK  status: ('A' for Active; 'I' for Inactive)
REMARK    1  A    between atoms: C_5  and  C_23
REMARK    2  A    between atoms: C_14  and  O_16
REMARK    3  A    between atoms: C_15  and  O_18
REMARK                            x       y       z     vdW  Elec       q    Type
REMARK                         _______ _______ _______ _____ _____    ______ ____
ROOT
ATOM      1  N   UNL     1     -35.446  88.254  -5.883  0.00  0.00    +0.000 N 
ATOM      2  N   UNL     1     -36.577  88.759  -5.336  0.00  0.00    +0.000 NA
ATOM      3  N   UNL     1     -36.034  89.912  -7.223  0.00  0.00    +0.000 NA
ATOM      4  C   UNL     1     -35.144  88.969  -7.044  0.00  0.00    +0.000 A 
ATOM      5  C   UNL     1     -36.904  89.759  -6.169  0.00  0.00    +0.000 A 
ATOM      6  C   UNL     1     -34.701  87.181  -5.288  0.00  0.00    +0.000 A 
ATOM      7  N   UNL     1     -33.513  86.864  -5.869  0.00  0.00    +0.000 NA
ATOM      8  C   UNL     1     -32.810  85.879  -5.300  0.00  0.00    +0.000 A 
ATOM      9  N   UNL     1     -33.173  85.195  -4.211  0.00  0.00    +0.000 NA
ATOM     10  C   UNL     1     -34.340  85.511  -3.646  0.00  0.00    +0.000 A 
ATOM     11  C   UNL     1     -35.183  86.512  -4.145  0.00  0.00    +0.000 A 
ATOM     12  C   UNL     1     -34.723  84.813  -2.509  0.00  0.00    +0.000 A 
ATOM     13  C   UNL     1     -36.414  86.743  -3.486  0.00  0.00    +0.000 A 
ATOM     14  C   UNL     1     -36.805  86.012  -2.371  0.00  0.00    +0.000 A 
ATOM     15  C   UNL     1     -35.924  85.075  -1.845  0.00  0.00    +0.000 A 
ATOM     16  N   UNL     1     -34.099  88.715  -7.855  0.00  0.00    +0.000 N 
ATOM     17  H   UNL     1     -33.831  89.426  -8.527  0.00  0.00    +0.000 HD
ATOM     18  H   UNL     1     -33.341  88.118  -7.526  0.00  0.00    +0.000 HD
ENDROOT
BRANCH   5  19
ATOM     19  C   UNL     1     -38.071  90.628  -5.990  0.00  0.00    +0.000 A 
ATOM     20  N   UNL     1     -39.307  90.065  -6.085  0.00  0.00    +0.000 NA
ATOM     21  C   UNL     1     -40.366  90.887  -5.918  0.00  0.00    +0.000 A 
ATOM     22  C   UNL     1     -40.265  92.242  -5.658  0.00  0.00    +0.000 A 
ATOM     23  C   UNL     1     -38.992  92.788  -5.563  0.00  0.00    +0.000 A 
ATOM     24  C   UNL     1     -37.875  91.979  -5.730  0.00  0.00    +0.000 A 
ENDBRANCH   5  19
BRANCH  14  25
ATOM     25  O   UNL     1     -38.002  86.315  -1.781  0.00  0.00    +0.000 OA
ATOM     26  C   UNL     1     -39.031  86.332  -2.739  0.00  0.00    +0.000 C 
ENDBRANCH  14  25
BRANCH  15  27
ATOM     27  O   UNL     1     -36.252  84.342  -0.736  0.00  0.00    +0.000 OA
ATOM     28  C   UNL     1     -35.525  83.138  -0.718  0.00  0.00    +0.000 C 
ENDBRANCH  15  27
TORSDOF 3
ENDMDL
MODEL 5
REMARK VINA RESULT:      -5.9     14.324     15.682
REMARK  Name = CP466722.pdbqt.pdb
REMARK  3 active torsions:
REMARK  status: ('A' for Active; 'I' for Inactive)
REMARK    1  A    between atoms: C_5  and  C_23
REMARK    2  A    between atoms: C_14  and  O_16
REMARK    3  A    between atoms: C_15  and  O_18
REMARK                            x       y       z     vdW  Elec       q    Type
REMARK                         _______ _______ _______ _____ _____    ______ ____
ROOT
ATOM      1  N   UNL     1     -20.132  98.601   6.443  0.00  0.00    +0.000 N 
ATOM      2  N   UNL     1     -21.140  99.500   6.359  0.00  0.00    +0.000 NA
ATOM      3  N   UNL     1     -20.907  98.394   4.382  0.00  0.00    +0.000 NA
ATOM      4  C   UNL     1     -20.021  97.928   5.224  0.00  0.00    +0.000 A 
ATOM      5  C   UNL     1     -21.584  99.351   5.102  0.00  0.00    +0.000 A 
ATOM      6  C   UNL     1     -19.318  98.445   7.615  0.00  0.00    +0.000 A 
ATOM      7  N   UNL     1     -18.256  97.601   7.516  0.00  0.00    +0.000 NA
ATOM      8  C   UNL     1     -17.486  97.475   8.602  0.00  0.00    +0.000 A 
ATOM      9  N   UNL     1     -17.670  98.112   9.762  0.00  0.00    +0.000 NA
ATOM     10  C   UNL     1     -18.714  98.938   9.853  0.00  0.00    +0.000 A 
ATOM     11  C   UNL     1     -19.609  99.154   8.797  0.00  0.00    +0.000 A 
ATOM     12  C   UNL     1     -18.909  99.612  11.051  0.00  0.00    +0.000 A 
ATOM     13  C   UNL     1     -20.702 100.027   9.013  0.00  0.00    +0.000 A 
ATOM     14  C   UNL     1     -20.909 100.668  10.229  0.00  0.00    +0.000 A 
ATOM     15  C   UNL     1     -19.971 100.500  11.240  0.00  0.00    +0.000 A 
ATOM     16  N   UNL     1     -19.138  96.943   4.966  0.00  0.00    +0.000 N 
ATOM     17  H   UNL     1     -18.975  96.689   3.997  0.00  0.00    +0.000 HD
ATOM     18  H   UNL     1     -18.348  96.800   5.594  0.00  0.00    +0.000 HD
ENDROOT
BRANCH   5  19
ATOM     19  C   UNL     1     -22.684 100.128   4.522  0.00  0.00    +0.000 A 
ATOM     20  N   UNL     1     -22.433 100.846   3.393  0.00  0.00    +0.000 NA
ATOM     21  C   UNL     1     -23.461 101.555   2.878  0.00  0.00    +0.000 A 
ATOM     22  C   UNL     1     -24.732 101.588   3.424  0.00  0.00    +0.000 A 
ATOM     23  C   UNL     1     -24.960 100.843   4.574  0.00  0.00    +0.000 A 
ATOM     24  C   UNL     1     -23.929 100.101   5.137  0.00  0.00    +0.000 A 
ENDBRANCH   5  19
BRANCH  14  25
ATOM     25  O   UNL     1     -21.979 101.513  10.344  0.00  0.00    +0.000 OA
ATOM     26  C   UNL     1     -22.740 101.508   9.163  0.00  0.00    +0.000 C 
ENDBRANCH  14  25
BRANCH  15  27
ATOM     27  O   UNL     1     -20.117 101.124  12.449  0.00  0.00    +0.000 OA
ATOM     28  C   UNL     1     -19.711 100.268  13.488  0.00  0.00    +0.000 C 
ENDBRANCH  15  27
TORSDOF 3
ENDMDL
MODEL 6
REMARK VINA RESULT:      -5.9     13.097     14.100
REMARK  Name = CP466722.pdbqt.pdb
REMARK  3 active torsions:
REMARK  status: ('A' for Active; 'I' for Inactive)
REMARK    1  A    between atoms: C_5  and  C_23
REMARK    2  A    between atoms: C_14  and  O_16
REMARK    3  A    between atoms: C_15  and  O_18
REMARK                            x       y       z     vdW  Elec       q    Type
REMARK                         _______ _______ _______ _____ _____    ______ ____
ROOT
ATOM      1  N   UNL     1     -36.374 105.322   5.056  0.00  0.00    +0.000 N 
ATOM      2  N   UNL     1     -37.092 105.796   6.101  0.00  0.00    +0.000 NA
ATOM      3  N   UNL     1     -35.123 106.925   5.925  0.00  0.00    +0.000 NA
ATOM      4  C   UNL     1     -35.180 106.041   4.962  0.00  0.00    +0.000 A 
ATOM      5  C   UNL     1     -36.307 106.760   6.605  0.00  0.00    +0.000 A 
ATOM      6  C   UNL     1     -36.811 104.225   4.240  0.00  0.00    +0.000 A 
ATOM      7  N   UNL     1     -35.932 103.765   3.311  0.00  0.00    +0.000 NA
ATOM      8  C   UNL     1     -36.332 102.728   2.567  0.00  0.00    +0.000 A 
ATOM      9  N   UNL     1     -37.512 102.108   2.670  0.00  0.00    +0.000 NA
ATOM     10  C   UNL     1     -38.370 102.565   3.584  0.00  0.00    +0.000 A 
ATOM     11  C   UNL     1     -38.085 103.652   4.421  0.00  0.00    +0.000 A 
ATOM     12  C   UNL     1     -39.594 101.923   3.706  0.00  0.00    +0.000 A 
ATOM     13  C   UNL     1     -39.081 104.074   5.334  0.00  0.00    +0.000 A 
ATOM     14  C   UNL     1     -40.319 103.447   5.421  0.00  0.00    +0.000 A 
ATOM     15  C   UNL     1     -40.555 102.325   4.636  0.00  0.00    +0.000 A 
ATOM     16  N   UNL     1     -34.240 105.852   4.016  0.00  0.00    +0.000 N 
ATOM     17  H   UNL     1     -33.318 106.247   4.171  0.00  0.00    +0.000 HD
ATOM     18  H   UNL     1     -34.261 105.004   3.450  0.00  0.00    +0.000 HD
ENDROOT
BRANCH   5  19
ATOM     19  C   UNL     1     -36.652 107.574   7.774  0.00  0.00    +0.000 A 
ATOM     20  N   UNL     1     -37.970 107.726   8.080  0.00  0.00    +0.000 NA
ATOM     21  C   UNL     1     -38.263 108.481   9.161  0.00  0.00    +0.000 A 
ATOM     22  C   UNL     1     -37.315 109.093   9.962  0.00  0.00    +0.000 A 
ATOM     23  C   UNL     1     -35.978 108.917   9.628  0.00  0.00    +0.000 A 
ATOM     24  C   UNL     1     -35.633 108.150   8.522  0.00  0.00    +0.000 A 
ENDBRANCH   5  19
BRANCH  14  25
ATOM     25  O   UNL     1     -41.216 103.906   6.347  0.00  0.00    +0.000 OA
ATOM     26  C   UNL     1     -40.721 105.057   6.983  0.00  0.00    +0.000 C 
ENDBRANCH  14  25
BRANCH  15  27
ATOM     27  O   UNL     1     -41.750 101.659   4.699  0.00  0.00    +0.000 OA
ATOM     28  C   UNL     1     -42.114 101.196   3.422  0.00  0.00    +0.000 C 
ENDBRANCH  15  27
TORSDOF 3
ENDMDL
MODEL 7
REMARK VINA RESULT:      -5.9     14.430     15.207
REMARK  Name = CP466722.pdbqt.pdb
REMARK  3 active torsions:
REMARK  status: ('A' for Active; 'I' for Inactive)
REMARK    1  A    between atoms: C_5  and  C_23
REMARK    2  A    between atoms: C_14  and  O_16
REMARK    3  A    between atoms: C_15  and  O_18
REMARK                            x       y       z     vdW  Elec       q    Type
REMARK                         _______ _______ _______ _____ _____    ______ ____
ROOT
ATOM      1  N   UNL     1     -22.579 101.232   5.346  0.00  0.00    +0.000 N 
ATOM      2  N   UNL     1     -22.959 102.431   5.846  0.00  0.00    +0.000 NA
ATOM      3  N   UNL     1     -23.465 102.309   3.630  0.00  0.00    +0.000 NA
ATOM      4  C   UNL     1     -22.914 101.179   3.991  0.00  0.00    +0.000 A 
ATOM      5  C   UNL     1     -23.488 103.057   4.784  0.00  0.00    +0.000 A 
ATOM      6  C   UNL     1     -21.905 100.236   6.128  0.00  0.00    +0.000 A 
ATOM      7  N   UNL     1     -21.460  99.134   5.467  0.00  0.00    +0.000 NA
ATOM      8  C   UNL     1     -20.813  98.217   6.194  0.00  0.00    +0.000 A 
ATOM      9  N   UNL     1     -20.562  98.301   7.504  0.00  0.00    +0.000 NA
ATOM     10  C   UNL     1     -21.002  99.384   8.147  0.00  0.00    +0.000 A 
ATOM     11  C   UNL     1     -21.706 100.415   7.512  0.00  0.00    +0.000 A 
ATOM     12  C   UNL     1     -20.739  99.485   9.506  0.00  0.00    +0.000 A 
ATOM     13  C   UNL     1     -22.154 101.504   8.297  0.00  0.00    +0.000 A 
ATOM     14  C   UNL     1     -21.918 101.577   9.665  0.00  0.00    +0.000 A 
ATOM     15  C   UNL     1     -21.155 100.582  10.264  0.00  0.00    +0.000 A 
ATOM     16  N   UNL     1     -22.704 100.118   3.187  0.00  0.00    +0.000 N 
ATOM     17  H   UNL     1     -22.758 100.260   2.184  0.00  0.00    +0.000 HD
ATOM     18  H   UNL     1     -22.075  99.376   3.489  0.00  0.00    +0.000 HD
ENDROOT
BRANCH   5  19
ATOM     19  C   UNL     1     -24.039 104.414   4.822  0.00  0.00    +0.000 A 
ATOM     20  N   UNL     1     -23.805 105.169   5.930  0.00  0.00    +0.000 NA
ATOM     21  C   UNL     1     -24.325 106.416   5.941  0.00  0.00    +0.000 A 
ATOM     22  C   UNL     1     -25.066 106.958   4.906  0.00  0.00    +0.000 A 
ATOM     23  C   UNL     1     -25.286 106.166   3.787  0.00  0.00    +0.000 A 
ATOM     24  C   UNL     1     -24.771 104.877   3.735  0.00  0.00    +0.000 A 
ENDBRANCH   5  19
BRANCH  14  25
ATOM     25  O   UNL     1     -22.368 102.676  10.344  0.00  0.00    +0.000 OA
ATOM     26  C   UNL     1     -21.552 103.788  10.076  0.00  0.00    +0.000 C 
ENDBRANCH  14  25
BRANCH  15  27
ATOM     27  O   UNL     1     -20.877 100.617  11.604  0.00  0.00    +0.000 OA
ATOM     28  C   UNL     1     -19.648  99.984  11.861  0.00  0.00    +0.000 C 
ENDBRANCH  15  27
TORSDOF 3
ENDMDL
MODEL 8
REMARK VINA RESULT:      -5.9     14.017     16.929
REMARK  Name = CP466722.pdbqt.pdb
REMARK  3 active torsions:
REMARK  status: ('A' for Active; 'I' for Inactive)
REMARK    1  A    between atoms: C_5  and  C_23
REMARK    2  A    between atoms: C_14  and  O_16
REMARK    3  A    between atoms: C_15  and  O_18
REMARK                            x       y       z     vdW  Elec       q    Type
REMARK                         _______ _______ _______ _____ _____    ______ ____
ROOT
ATOM      1  N   UNL     1     -21.587 100.052   8.201  0.00  0.00    +0.000 N 
ATOM      2  N   UNL     1     -20.604  99.534   8.974  0.00  0.00    +0.000 NA
ATOM      3  N   UNL     1     -21.937 100.902  10.212  0.00  0.00    +0.000 NA
ATOM      4  C   UNL     1     -22.397 100.874   8.988  0.00  0.00    +0.000 A 
ATOM      5  C   UNL     1     -20.843 100.069  10.180  0.00  0.00    +0.000 A 
ATOM      6  C   UNL     1     -21.696  99.790   6.794  0.00  0.00    +0.000 A 
ATOM      7  N   UNL     1     -22.650 100.482   6.115  0.00  0.00    +0.000 NA
ATOM      8  C   UNL     1     -22.735 100.254   4.800  0.00  0.00    +0.000 A 
ATOM      9  N   UNL     1     -21.960  99.415   4.106  0.00  0.00    +0.000 NA
ATOM     10  C   UNL     1     -21.026  98.739   4.778  0.00  0.00    +0.000 A 
ATOM     11  C   UNL     1     -20.836  98.872   6.160  0.00  0.00    +0.000 A 
ATOM     12  C   UNL     1     -20.209  97.873   4.066  0.00  0.00    +0.000 A 
ATOM     13  C   UNL     1     -19.838  98.082   6.779  0.00  0.00    +0.000 A 
ATOM     14  C   UNL     1     -19.050  97.189   6.061  0.00  0.00    +0.000 A 
ATOM     15  C   UNL     1     -19.202  97.126   4.681  0.00  0.00    +0.000 A 
ATOM     16  N   UNL     1     -23.489 101.529   8.547  0.00  0.00    +0.000 N 
ATOM     17  H   UNL     1     -23.863 102.277   9.121  0.00  0.00    +0.000 HD
ATOM     18  H   UNL     1     -23.642 101.630   7.544  0.00  0.00    +0.000 HD
ENDROOT
BRANCH   5  19
ATOM     19  C   UNL     1     -20.026  99.811  11.370  0.00  0.00    +0.000 A 
ATOM     20  N   UNL     1     -20.640  99.833  12.584  0.00  0.00    +0.000 NA
ATOM     21  C   UNL     1     -19.866  99.593  13.665  0.00  0.00    +0.000 A 
ATOM     22  C   UNL     1     -18.509  99.330  13.606  0.00  0.00    +0.000 A 
ATOM     23  C   UNL     1     -17.909  99.312  12.353  0.00  0.00    +0.000 A 
ATOM     24  C   UNL     1     -18.669  99.554  11.215  0.00  0.00    +0.000 A 
ENDBRANCH   5  19
BRANCH  14  25
ATOM     25  O   UNL     1     -18.093  96.480   6.734  0.00  0.00    +0.000 OA
ATOM     26  C   UNL     1     -17.471  97.289   7.701  0.00  0.00    +0.000 C 
ENDBRANCH  14  25
BRANCH  15  27
ATOM     27  O   UNL     1     -18.438  96.278   3.925  0.00  0.00    +0.000 OA
ATOM     28  C   UNL     1     -18.500  96.647   2.570  0.00  0.00    +0.000 C 
ENDBRANCH  15  27
TORSDOF 3
ENDMDL
MODEL 9
REMARK VINA RESULT:      -5.8      4.542      8.953
REMARK  Name = CP466722.pdbqt.pdb
REMARK  3 active torsions:
REMARK  status: ('A' for Active; 'I' for Inactive)
REMARK    1  A    between atoms: C_5  and  C_23
REMARK    2  A    between atoms: C_14  and  O_16
REMARK    3  A    between atoms: C_15  and  O_18
REMARK                            x       y       z     vdW  Elec       q    Type
REMARK                         _______ _______ _______ _____ _____    ______ ____
ROOT
ATOM      1  N   UNL     1     -36.094 100.872  14.024  0.00  0.00    +0.000 N 
ATOM      2  N   UNL     1     -34.869 101.441  14.111  0.00  0.00    +0.000 NA
ATOM      3  N   UNL     1     -34.731  99.210  14.545  0.00  0.00    +0.000 NA
ATOM      4  C   UNL     1     -35.978  99.504  14.280  0.00  0.00    +0.000 A 
ATOM      5  C   UNL     1     -34.070 100.411  14.429  0.00  0.00    +0.000 A 
ATOM      6  C   UNL     1     -37.287 101.621  13.750  0.00  0.00    +0.000 A 
ATOM      7  N   UNL     1     -38.465 100.946  13.825  0.00  0.00    +0.000 NA
ATOM      8  C   UNL     1     -39.577 101.651  13.592  0.00  0.00    +0.000 A 
ATOM      9  N   UNL     1     -39.624 102.955  13.303  0.00  0.00    +0.000 NA
ATOM     10  C   UNL     1     -38.464 103.611  13.230  0.00  0.00    +0.000 A 
ATOM     11  C   UNL     1     -37.224 102.994  13.439  0.00  0.00    +0.000 A 
ATOM     12  C   UNL     1     -38.501 104.968  12.940  0.00  0.00    +0.000 A 
ATOM     13  C   UNL     1     -36.053 103.778  13.306  0.00  0.00    +0.000 A 
ATOM     14  C   UNL     1     -36.100 105.128  12.977  0.00  0.00    +0.000 A 
ATOM     15  C   UNL     1     -37.341 105.740  12.848  0.00  0.00    +0.000 A 
ATOM     16  N   UNL     1     -36.999  98.625  14.248  0.00  0.00    +0.000 N 
ATOM     17  H   UNL     1     -36.861  97.716  14.676  0.00  0.00    +0.000 HD
ATOM     18  H   UNL     1     -37.958  98.970  14.255  0.00  0.00    +0.000 HD
ENDROOT
BRANCH   5  19
ATOM     19  C   UNL     1     -32.625 100.529  14.645  0.00  0.00    +0.000 A 
ATOM     20  N   UNL     1     -32.037 101.730  14.391  0.00  0.00    +0.000 NA
ATOM     21  C   UNL     1     -30.704 101.813  14.597  0.00  0.00    +0.000 A 
ATOM     22  C   UNL     1     -29.921 100.765  15.046  0.00  0.00    +0.000 A 
ATOM     23  C   UNL     1     -30.549  99.552  15.299  0.00  0.00    +0.000 A 
ATOM     24  C   UNL     1     -31.917  99.423  15.099  0.00  0.00    +0.000 A 
ENDBRANCH   5  19
BRANCH  14  25
ATOM     25  O   UNL     1     -34.921 105.817  12.890  0.00  0.00    +0.000 OA
ATOM     26  C   UNL     1     -34.501 106.236  14.164  0.00  0.00    +0.000 C 
ENDBRANCH  14  25
BRANCH  15  27
ATOM     27  O   UNL     1     -37.443 107.072  12.545  0.00  0.00    +0.000 OA
ATOM     28  C   UNL     1     -38.029 107.237  11.278  0.00  0.00    +0.000 C 
ENDBRANCH  15  27
TORSDOF 3
ENDMDL
