MODEL 1
REMARK VINA RESULT:      -6.0      0.000      0.000
REMARK  Name = Curcumin.pdbqt.pdb
REMARK  8 active torsions:
REMARK  status: ('A' for Active; 'I' for Inactive)
REMARK    1  A    between atoms: C_2  and  C_4
REMARK    2  A    between atoms: C_5  and  C_6
REMARK    3  A    between atoms: C_8  and  O_12
REMARK    4  A    between atoms: C_9  and  O_14
REMARK    5  A    between atoms: C_16  and  C_18
REMARK    6  A    between atoms: C_19  and  C_20
REMARK    7  A    between atoms: C_22  and  O_26
REMARK    8  A    between atoms: C_23  and  O_28
REMARK                            x       y       z     vdW  Elec       q    Type
REMARK                         _______ _______ _______ _____ _____    ______ ____
ROOT
ATOM      1  C   UNL     1     -43.432 101.125   2.529  0.00  0.00    +0.000 C 
ATOM      2  C   UNL     1     -44.537 101.232   1.636  0.00  0.00    +0.000 C 
ATOM      3  O   UNL     1     -44.525 102.082   0.758  0.00  0.00    +0.000 OA
ATOM      4  C   UNL     1     -42.329 101.021   3.425  0.00  0.00    +0.000 C 
ATOM      5  O   UNL     1     -42.455 100.408   4.475  0.00  0.00    +0.000 OA
ENDROOT
BRANCH   2   6
ATOM      6  C   UNL     1     -45.658 100.337   1.771  0.00  0.00    +0.000 C 
ATOM      7  C   UNL     1     -46.592  99.590   1.886  0.00  0.00    +0.000 C 
BRANCH   7   8
ATOM      8  C   UNL     1     -47.703  98.705   2.022  0.00  0.00    +0.000 A 
ATOM      9  C   UNL     1     -48.552  98.819   3.121  0.00  0.00    +0.000 A 
ATOM     10  C   UNL     1     -49.646  97.961   3.270  0.00  0.00    +0.000 A 
ATOM     11  C   UNL     1     -49.871  96.985   2.295  0.00  0.00    +0.000 A 
ATOM     12  C   UNL     1     -49.023  96.869   1.194  0.00  0.00    +0.000 A 
ATOM     13  C   UNL     1     -47.938  97.730   1.057  0.00  0.00    +0.000 A 
BRANCH  10  14
ATOM     14  O   UNL     1     -50.523  98.014   4.324  0.00  0.00    +0.000 OA
ATOM     15  C   UNL     1     -50.253  98.977   5.303  0.00  0.00    +0.000 C 
ENDBRANCH  10  14
BRANCH  11  16
ATOM     16  O   UNL     1     -50.913  96.101   2.354  0.00  0.00    +0.000 OA
ATOM     17  H   UNL     1     -50.963  95.689   3.233  0.00  0.00    +0.000 HD
ENDBRANCH  11  16
ENDBRANCH   7   8
ENDBRANCH   2   6
BRANCH   4  18
ATOM     18  C   UNL     1     -41.072 101.639   3.086  0.00  0.00    +0.000 C 
ATOM     19  C   UNL     1     -40.022 102.150   2.802  0.00  0.00    +0.000 C 
BRANCH  19  20
ATOM     20  C   UNL     1     -38.775 102.753   2.466  0.00  0.00    +0.000 A 
ATOM     21  C   UNL     1     -38.741 103.824   1.573  0.00  0.00    +0.000 A 
ATOM     22  C   UNL     1     -37.527 104.427   1.233  0.00  0.00    +0.000 A 
ATOM     23  C   UNL     1     -36.350 103.935   1.804  0.00  0.00    +0.000 A 
ATOM     24  C   UNL     1     -36.379 102.864   2.697  0.00  0.00    +0.000 A 
ATOM     25  C   UNL     1     -37.594 102.273   3.027  0.00  0.00    +0.000 A 
BRANCH  22  26
ATOM     26  O   UNL     1     -37.403 105.484   0.364  0.00  0.00    +0.000 OA
ATOM     27  C   UNL     1     -37.528 105.166  -0.997  0.00  0.00    +0.000 C 
ENDBRANCH  22  26
BRANCH  23  28
ATOM     28  O   UNL     1     -35.151 104.511   1.484  0.00  0.00    +0.000 OA
ATOM     29  H   UNL     1     -35.057 104.516   0.514  0.00  0.00    +0.000 HD
ENDBRANCH  23  28
ENDBRANCH  19  20
ENDBRANCH   4  18
TORSDOF 8
ENDMDL
MODEL 2
REMARK VINA RESULT:      -5.8     11.860     13.874
REMARK  Name = Curcumin.pdbqt.pdb
REMARK  8 active torsions:
REMARK  status: ('A' for Active; 'I' for Inactive)
REMARK    1  A    between atoms: C_2  and  C_4
REMARK    2  A    between atoms: C_5  and  C_6
REMARK    3  A    between atoms: C_8  and  O_12
REMARK    4  A    between atoms: C_9  and  O_14
REMARK    5  A    between atoms: C_16  and  C_18
REMARK    6  A    between atoms: C_19  and  C_20
REMARK    7  A    between atoms: C_22  and  O_26
REMARK    8  A    between atoms: C_23  and  O_28
REMARK                            x       y       z     vdW  Elec       q    Type
REMARK                         _______ _______ _______ _____ _____    ______ ____
ROOT
ATOM      1  C   UNL     1     -38.382 101.187  14.553  0.00  0.00    +0.000 C 
ATOM      2  C   UNL     1     -39.070 102.399  14.849  0.00  0.00    +0.000 C 
ATOM      3  O   UNL     1     -38.499 103.282  15.473  0.00  0.00    +0.000 OA
ATOM      4  C   UNL     1     -37.694  99.973  14.261  0.00  0.00    +0.000 C 
ATOM      5  O   UNL     1     -38.327  98.982  13.926  0.00  0.00    +0.000 OA
ENDROOT
BRANCH   2   6
ATOM      6  C   UNL     1     -40.430 102.577  14.409  0.00  0.00    +0.000 C 
ATOM      7  C   UNL     1     -41.565 102.724  14.044  0.00  0.00    +0.000 C 
BRANCH   7   8
ATOM      8  C   UNL     1     -42.913 102.900  13.611  0.00  0.00    +0.000 A 
ATOM      9  C   UNL     1     -43.179 103.588  12.429  0.00  0.00    +0.000 A 
ATOM     10  C   UNL     1     -44.494 103.770  11.989  0.00  0.00    +0.000 A 
ATOM     11  C   UNL     1     -45.538 103.248  12.759  0.00  0.00    +0.000 A 
ATOM     12  C   UNL     1     -45.274 102.559  13.943  0.00  0.00    +0.000 A 
ATOM     13  C   UNL     1     -43.960 102.385  14.369  0.00  0.00    +0.000 A 
BRANCH  10  14
ATOM     14  O   UNL     1     -44.831 104.434  10.837  0.00  0.00    +0.000 OA
ATOM     15  C   UNL     1     -44.464 103.813   9.637  0.00  0.00    +0.000 C 
ENDBRANCH  10  14
BRANCH  11  16
ATOM     16  O   UNL     1     -46.854 103.375  12.411  0.00  0.00    +0.000 OA
ATOM     17  H   UNL     1     -47.102 102.702  11.755  0.00  0.00    +0.000 HD
ENDBRANCH  11  16
ENDBRANCH   7   8
ENDBRANCH   2   6
BRANCH   4  18
ATOM     18  C   UNL     1     -36.258  99.923  14.362  0.00  0.00    +0.000 C 
ATOM     19  C   UNL     1     -35.059  99.885  14.444  0.00  0.00    +0.000 C 
BRANCH  19  20
ATOM     20  C   UNL     1     -33.638  99.842  14.538  0.00  0.00    +0.000 A 
ATOM     21  C   UNL     1     -33.021  98.827  15.268  0.00  0.00    +0.000 A 
ATOM     22  C   UNL     1     -31.628  98.770  15.371  0.00  0.00    +0.000 A 
ATOM     23  C   UNL     1     -30.868  99.751  14.727  0.00  0.00    +0.000 A 
ATOM     24  C   UNL     1     -31.480 100.768  13.996  0.00  0.00    +0.000 A 
ATOM     25  C   UNL     1     -32.867 100.812  13.902  0.00  0.00    +0.000 A 
BRANCH  22  26
ATOM     26  O   UNL     1     -30.941  97.807  16.069  0.00  0.00    +0.000 OA
ATOM     27  C   UNL     1     -31.016  97.904  17.467  0.00  0.00    +0.000 C 
ENDBRANCH  22  26
BRANCH  23  28
ATOM     28  O   UNL     1     -29.503  99.713  14.816  0.00  0.00    +0.000 OA
ATOM     29  H   UNL     1     -29.206 100.460  15.367  0.00  0.00    +0.000 HD
ENDBRANCH  23  28
ENDBRANCH  19  20
ENDBRANCH   4  18
TORSDOF 8
ENDMDL
MODEL 3
REMARK VINA RESULT:      -5.7     13.048     17.616
REMARK  Name = Curcumin.pdbqt.pdb
REMARK  8 active torsions:
REMARK  status: ('A' for Active; 'I' for Inactive)
REMARK    1  A    between atoms: C_2  and  C_4
REMARK    2  A    between atoms: C_5  and  C_6
REMARK    3  A    between atoms: C_8  and  O_12
REMARK    4  A    between atoms: C_9  and  O_14
REMARK    5  A    between atoms: C_16  and  C_18
REMARK    6  A    between atoms: C_19  and  C_20
REMARK    7  A    between atoms: C_22  and  O_26
REMARK    8  A    between atoms: C_23  and  O_28
REMARK                            x       y       z     vdW  Elec       q    Type
REMARK                         _______ _______ _______ _____ _____    ______ ____
ROOT
ATOM      1  C   UNL     1     -42.921  88.151  -1.925  0.00  0.00    +0.000 C 
ATOM      2  C   UNL     1     -42.272  87.389  -0.911  0.00  0.00    +0.000 C 
ATOM      3  O   UNL     1     -42.870  87.122   0.122  0.00  0.00    +0.000 OA
ATOM      4  C   UNL     1     -43.570  88.916  -2.937  0.00  0.00    +0.000 C 
ATOM      5  O   UNL     1     -42.907  89.449  -3.814  0.00  0.00    +0.000 OA
ENDROOT
BRANCH   2   6
ATOM      6  C   UNL     1     -40.919  86.937  -1.109  0.00  0.00    +0.000 C 
ATOM      7  C   UNL     1     -39.790  86.562  -1.275  0.00  0.00    +0.000 C 
BRANCH   7   8
ATOM      8  C   UNL     1     -38.449  86.115  -1.469  0.00  0.00    +0.000 A 
ATOM      9  C   UNL     1     -38.119  84.783  -1.228  0.00  0.00    +0.000 A 
ATOM     10  C   UNL     1     -36.810  84.327  -1.414  0.00  0.00    +0.000 A 
ATOM     11  C   UNL     1     -35.838  85.235  -1.846  0.00  0.00    +0.000 A 
ATOM     12  C   UNL     1     -36.165  86.569  -2.088  0.00  0.00    +0.000 A 
ATOM     13  C   UNL     1     -37.473  87.009  -1.899  0.00  0.00    +0.000 A 
BRANCH  10  14
ATOM     14  O   UNL     1     -36.411  83.032  -1.199  0.00  0.00    +0.000 OA
ATOM     15  C   UNL     1     -36.400  82.605   0.134  0.00  0.00    +0.000 C 
ENDBRANCH  10  14
BRANCH  11  16
ATOM     16  O   UNL     1     -34.533  84.883  -2.055  0.00  0.00    +0.000 OA
ATOM     17  H   UNL     1     -34.344  84.015  -1.662  0.00  0.00    +0.000 HD
ENDBRANCH  11  16
ENDBRANCH   7   8
ENDBRANCH   2   6
BRANCH   4  18
ATOM     18  C   UNL     1     -45.004  89.056  -2.919  0.00  0.00    +0.000 C 
ATOM     19  C   UNL     1     -46.200  89.174  -2.908  0.00  0.00    +0.000 C 
BRANCH  19  20
ATOM     20  C   UNL     1     -47.618  89.315  -2.899  0.00  0.00    +0.000 A 
ATOM     21  C   UNL     1     -48.209  90.433  -3.486  0.00  0.00    +0.000 A 
ATOM     22  C   UNL     1     -49.598  90.586  -3.486  0.00  0.00    +0.000 A 
ATOM     23  C   UNL     1     -50.382  89.597  -2.887  0.00  0.00    +0.000 A 
ATOM     24  C   UNL     1     -49.797  88.477  -2.298  0.00  0.00    +0.000 A 
ATOM     25  C   UNL     1     -48.413  88.336  -2.305  0.00  0.00    +0.000 A 
BRANCH  22  26
ATOM     26  O   UNL     1     -50.260  91.655  -4.041  0.00  0.00    +0.000 OA
ATOM     27  C   UNL     1     -50.111  92.876  -3.365  0.00  0.00    +0.000 C 
ENDBRANCH  22  26
BRANCH  23  28
ATOM     28  O   UNL     1     -51.744  89.728  -2.876  0.00  0.00    +0.000 OA
ATOM     29  H   UNL     1     -52.001  90.368  -3.564  0.00  0.00    +0.000 HD
ENDBRANCH  23  28
ENDBRANCH  19  20
ENDBRANCH   4  18
TORSDOF 8
ENDMDL
MODEL 4
REMARK VINA RESULT:      -5.6     12.067     17.195
REMARK  Name = Curcumin.pdbqt.pdb
REMARK  8 active torsions:
REMARK  status: ('A' for Active; 'I' for Inactive)
REMARK    1  A    between atoms: C_2  and  C_4
REMARK    2  A    between atoms: C_5  and  C_6
REMARK    3  A    between atoms: C_8  and  O_12
REMARK    4  A    between atoms: C_9  and  O_14
REMARK    5  A    between atoms: C_16  and  C_18
REMARK    6  A    between atoms: C_19  and  C_20
REMARK    7  A    between atoms: C_22  and  O_26
REMARK    8  A    between atoms: C_23  and  O_28
REMARK                            x       y       z     vdW  Elec       q    Type
REMARK                         _______ _______ _______ _____ _____    ______ ____
ROOT
ATOM      1  C   UNL     1     -38.492 101.420  14.585  0.00  0.00    +0.000 C 
ATOM      2  C   UNL     1     -37.848 100.240  15.056  0.00  0.00    +0.000 C 
ATOM      3  O   UNL     1     -38.518  99.331  15.524  0.00  0.00    +0.000 OA
ATOM      4  C   UNL     1     -39.137 102.602  14.117  0.00  0.00    +0.000 C 
ATOM      5  O   UNL     1     -38.485 103.621  13.943  0.00  0.00    +0.000 OA
ENDROOT
BRANCH   2   6
ATOM      6  C   UNL     1     -36.414 100.124  14.974  0.00  0.00    +0.000 C 
ATOM      7  C   UNL     1     -35.219 100.026  14.907  0.00  0.00    +0.000 C 
BRANCH   7   8
ATOM      8  C   UNL     1     -33.800  99.909  14.826  0.00  0.00    +0.000 A 
ATOM      9  C   UNL     1     -33.146  98.885  15.508  0.00  0.00    +0.000 A 
ATOM     10  C   UNL     1     -31.755  98.755  15.439  0.00  0.00    +0.000 A 
ATOM     11  C   UNL     1     -31.033  99.674  14.671  0.00  0.00    +0.000 A 
ATOM     12  C   UNL     1     -31.684 100.700  13.987  0.00  0.00    +0.000 A 
ATOM     13  C   UNL     1     -33.069 100.817  14.065  0.00  0.00    +0.000 A 
BRANCH  10  14
ATOM     14  O   UNL     1     -31.045  97.773  16.082  0.00  0.00    +0.000 OA
ATOM     15  C   UNL     1     -31.033  97.836  17.480  0.00  0.00    +0.000 C 
ENDBRANCH  10  14
BRANCH  11  16
ATOM     16  O   UNL     1     -29.672  99.628  14.544  0.00  0.00    +0.000 OA
ATOM     17  H   UNL     1     -29.243 100.121  15.263  0.00  0.00    +0.000 HD
ENDBRANCH  11  16
ENDBRANCH   7   8
ENDBRANCH   2   6
BRANCH   4  18
ATOM     18  C   UNL     1     -40.554 102.587  13.853  0.00  0.00    +0.000 C 
ATOM     19  C   UNL     1     -41.736 102.574  13.637  0.00  0.00    +0.000 C 
BRANCH  19  20
ATOM     20  C   UNL     1     -43.138 102.558  13.385  0.00  0.00    +0.000 A 
ATOM     21  C   UNL     1     -44.027 102.280  14.423  0.00  0.00    +0.000 A 
ATOM     22  C   UNL     1     -45.406 102.260  14.192  0.00  0.00    +0.000 A 
ATOM     23  C   UNL     1     -45.874 102.524  12.902  0.00  0.00    +0.000 A 
ATOM     24  C   UNL     1     -44.990 102.802  11.860  0.00  0.00    +0.000 A 
ATOM     25  C   UNL     1     -43.620 102.819  12.104  0.00  0.00    +0.000 A 
BRANCH  22  26
ATOM     26  O   UNL     1     -46.349 101.996  15.156  0.00  0.00    +0.000 OA
ATOM     27  C   UNL     1     -46.149 100.817  15.890  0.00  0.00    +0.000 C 
ENDBRANCH  22  26
BRANCH  23  28
ATOM     28  O   UNL     1     -47.219 102.509  12.655  0.00  0.00    +0.000 OA
ATOM     29  H   UNL     1     -47.535 103.428  12.591  0.00  0.00    +0.000 HD
ENDBRANCH  23  28
ENDBRANCH  19  20
ENDBRANCH   4  18
TORSDOF 8
ENDMDL
MODEL 5
REMARK VINA RESULT:      -5.5     17.398     19.157
REMARK  Name = Curcumin.pdbqt.pdb
REMARK  8 active torsions:
REMARK  status: ('A' for Active; 'I' for Inactive)
REMARK    1  A    between atoms: C_2  and  C_4
REMARK    2  A    between atoms: C_5  and  C_6
REMARK    3  A    between atoms: C_8  and  O_12
REMARK    4  A    between atoms: C_9  and  O_14
REMARK    5  A    between atoms: C_16  and  C_18
REMARK    6  A    between atoms: C_19  and  C_20
REMARK    7  A    between atoms: C_22  and  O_26
REMARK    8  A    between atoms: C_23  and  O_28
REMARK                            x       y       z     vdW  Elec       q    Type
REMARK                         _______ _______ _______ _____ _____    ______ ____
ROOT
ATOM      1  C   UNL     1     -42.392  82.005   3.100  0.00  0.00    +0.000 C 
ATOM      2  C   UNL     1     -42.621  81.786   4.490  0.00  0.00    +0.000 C 
ATOM      3  O   UNL     1     -41.860  81.069   5.123  0.00  0.00    +0.000 OA
ATOM      4  C   UNL     1     -42.165  82.220   1.710  0.00  0.00    +0.000 C 
ATOM      5  O   UNL     1     -43.064  82.662   1.009  0.00  0.00    +0.000 OA
ENDROOT
BRANCH   2   6
ATOM      6  C   UNL     1     -43.745  82.411   5.139  0.00  0.00    +0.000 C 
ATOM      7  C   UNL     1     -44.683  82.933   5.678  0.00  0.00    +0.000 C 
BRANCH   7   8
ATOM      8  C   UNL     1     -45.797  83.550   6.320  0.00  0.00    +0.000 A 
ATOM      9  C   UNL     1     -47.058  82.964   6.240  0.00  0.00    +0.000 A 
ATOM     10  C   UNL     1     -48.162  83.555   6.864  0.00  0.00    +0.000 A 
ATOM     11  C   UNL     1     -47.975  84.747   7.569  0.00  0.00    +0.000 A 
ATOM     12  C   UNL     1     -46.714  85.337   7.651  0.00  0.00    +0.000 A 
ATOM     13  C   UNL     1     -45.624  84.738   7.025  0.00  0.00    +0.000 A 
BRANCH  10  14
ATOM     14  O   UNL     1     -49.431  83.035   6.829  0.00  0.00    +0.000 OA
ATOM     15  C   UNL     1     -49.764  82.297   5.687  0.00  0.00    +0.000 C 
ENDBRANCH  10  14
BRANCH  11  16
ATOM     16  O   UNL     1     -48.992  85.399   8.210  0.00  0.00    +0.000 OA
ATOM     17  H   UNL     1     -49.437  86.018   7.608  0.00  0.00    +0.000 HD
ENDBRANCH  11  16
ENDBRANCH   7   8
ENDBRANCH   2   6
BRANCH   4  18
ATOM     18  C   UNL     1     -40.877  81.916   1.141  0.00  0.00    +0.000 C 
ATOM     19  C   UNL     1     -39.801  81.663   0.669  0.00  0.00    +0.000 C 
BRANCH  19  20
ATOM     20  C   UNL     1     -38.523  81.364   0.114  0.00  0.00    +0.000 A 
ATOM     21  C   UNL     1     -37.525  82.338   0.103  0.00  0.00    +0.000 A 
ATOM     22  C   UNL     1     -36.267  82.061  -0.438  0.00  0.00    +0.000 A 
ATOM     23  C   UNL     1     -36.028  80.789  -0.966  0.00  0.00    +0.000 A 
ATOM     24  C   UNL     1     -37.022  79.811  -0.957  0.00  0.00    +0.000 A 
ATOM     25  C   UNL     1     -38.271  80.100  -0.416  0.00  0.00    +0.000 A 
BRANCH  22  26
ATOM     26  O   UNL     1     -35.230  82.962  -0.488  0.00  0.00    +0.000 OA
ATOM     27  C   UNL     1     -35.325  83.938  -1.492  0.00  0.00    +0.000 C 
ENDBRANCH  22  26
BRANCH  23  28
ATOM     28  O   UNL     1     -34.803  80.498  -1.500  0.00  0.00    +0.000 OA
ATOM     29  H   UNL     1     -34.196  80.260  -0.776  0.00  0.00    +0.000 HD
ENDBRANCH  23  28
ENDBRANCH  19  20
ENDBRANCH   4  18
TORSDOF 8
ENDMDL
MODEL 6
REMARK VINA RESULT:      -5.5     17.290     21.373
REMARK  Name = Curcumin.pdbqt.pdb
REMARK  8 active torsions:
REMARK  status: ('A' for Active; 'I' for Inactive)
REMARK    1  A    between atoms: C_2  and  C_4
REMARK    2  A    between atoms: C_5  and  C_6
REMARK    3  A    between atoms: C_8  and  O_12
REMARK    4  A    between atoms: C_9  and  O_14
REMARK    5  A    between atoms: C_16  and  C_18
REMARK    6  A    between atoms: C_19  and  C_20
REMARK    7  A    between atoms: C_22  and  O_26
REMARK    8  A    between atoms: C_23  and  O_28
REMARK                            x       y       z     vdW  Elec       q    Type
REMARK                         _______ _______ _______ _____ _____    ______ ____
ROOT
ATOM      1  C   UNL     1     -42.265  81.964   3.031  0.00  0.00    +0.000 C 
ATOM      2  C   UNL     1     -42.029  82.222   1.649  0.00  0.00    +0.000 C 
ATOM      3  O   UNL     1     -42.927  82.678   0.957  0.00  0.00    +0.000 OA
ATOM      4  C   UNL     1     -42.503  81.704   4.412  0.00  0.00    +0.000 C 
ATOM      5  O   UNL     1     -41.743  80.974   5.032  0.00  0.00    +0.000 OA
ENDROOT
BRANCH   2   6
ATOM      6  C   UNL     1     -40.735  81.945   1.079  0.00  0.00    +0.000 C 
ATOM      7  C   UNL     1     -39.657  81.713   0.603  0.00  0.00    +0.000 C 
BRANCH   7   8
ATOM      8  C   UNL     1     -38.376  81.438   0.037  0.00  0.00    +0.000 A 
ATOM      9  C   UNL     1     -37.600  82.481  -0.464  0.00  0.00    +0.000 A 
ATOM     10  C   UNL     1     -36.343  82.231  -1.022  0.00  0.00    +0.000 A 
ATOM     11  C   UNL     1     -35.880  80.912  -1.069  0.00  0.00    +0.000 A 
ATOM     12  C   UNL     1     -36.655  79.866  -0.569  0.00  0.00    +0.000 A 
ATOM     13  C   UNL     1     -37.905  80.130  -0.016  0.00  0.00    +0.000 A 
BRANCH  10  14
ATOM     14  O   UNL     1     -35.523  83.206  -1.533  0.00  0.00    +0.000 OA
ATOM     15  C   UNL     1     -36.047  84.503  -1.552  0.00  0.00    +0.000 C 
ENDBRANCH  10  14
BRANCH  11  16
ATOM     16  O   UNL     1     -34.665  80.570  -1.596  0.00  0.00    +0.000 OA
ATOM     17  H   UNL     1     -34.576  80.909  -2.502  0.00  0.00    +0.000 HD
ENDBRANCH  11  16
ENDBRANCH   7   8
ENDBRANCH   2   6
BRANCH   4  18
ATOM     18  C   UNL     1     -43.638  82.303   5.067  0.00  0.00    +0.000 C 
ATOM     19  C   UNL     1     -44.587  82.802   5.610  0.00  0.00    +0.000 C 
BRANCH  19  20
ATOM     20  C   UNL     1     -45.713  83.394   6.251  0.00  0.00    +0.000 A 
ATOM     21  C   UNL     1     -46.965  82.786   6.156  0.00  0.00    +0.000 A 
ATOM     22  C   UNL     1     -48.080  83.354   6.778  0.00  0.00    +0.000 A 
ATOM     23  C   UNL     1     -47.915  84.541   7.497  0.00  0.00    +0.000 A 
ATOM     24  C   UNL     1     -46.667  85.153   7.595  0.00  0.00    +0.000 A 
ATOM     25  C   UNL     1     -45.564  84.577   6.971  0.00  0.00    +0.000 A 
BRANCH  22  26
ATOM     26  O   UNL     1     -49.346  82.822   6.734  0.00  0.00    +0.000 OA
ATOM     27  C   UNL     1     -50.004  82.926   5.499  0.00  0.00    +0.000 C 
ENDBRANCH  22  26
BRANCH  23  28
ATOM     28  O   UNL     1     -48.995  85.112   8.113  0.00  0.00    +0.000 OA
ATOM     29  H   UNL     1     -49.761  84.518   8.015  0.00  0.00    +0.000 HD
ENDBRANCH  23  28
ENDBRANCH  19  20
ENDBRANCH   4  18
TORSDOF 8
ENDMDL
MODEL 7
REMARK VINA RESULT:      -5.4      1.765      2.393
REMARK  Name = Curcumin.pdbqt.pdb
REMARK  8 active torsions:
REMARK  status: ('A' for Active; 'I' for Inactive)
REMARK    1  A    between atoms: C_2  and  C_4
REMARK    2  A    between atoms: C_5  and  C_6
REMARK    3  A    between atoms: C_8  and  O_12
REMARK    4  A    between atoms: C_9  and  O_14
REMARK    5  A    between atoms: C_16  and  C_18
REMARK    6  A    between atoms: C_19  and  C_20
REMARK    7  A    between atoms: C_22  and  O_26
REMARK    8  A    between atoms: C_23  and  O_28
REMARK                            x       y       z     vdW  Elec       q    Type
REMARK                         _______ _______ _______ _____ _____    ______ ____
ROOT
ATOM      1  C   UNL     1     -42.658 100.939   1.993  0.00  0.00    +0.000 C 
ATOM      2  C   UNL     1     -43.793 100.829   2.848  0.00  0.00    +0.000 C 
ATOM      3  O   UNL     1     -43.671 101.037   4.046  0.00  0.00    +0.000 OA
ATOM      4  C   UNL     1     -41.522 101.046   1.140  0.00  0.00    +0.000 C 
ATOM      5  O   UNL     1     -41.552 100.548   0.024  0.00  0.00    +0.000 OA
ENDROOT
BRANCH   2   6
ATOM      6  C   UNL     1     -45.076 100.476   2.295  0.00  0.00    +0.000 C 
ATOM      7  C   UNL     1     -46.145 100.180   1.834  0.00  0.00    +0.000 C 
BRANCH   7   8
ATOM      8  C   UNL     1     -47.415  99.830   1.288  0.00  0.00    +0.000 A 
ATOM      9  C   UNL     1     -48.140  98.773   1.837  0.00  0.00    +0.000 A 
ATOM     10  C   UNL     1     -49.387  98.416   1.315  0.00  0.00    +0.000 A 
ATOM     11  C   UNL     1     -49.893  99.140   0.231  0.00  0.00    +0.000 A 
ATOM     12  C   UNL     1     -49.171 100.197  -0.320  0.00  0.00    +0.000 A 
ATOM     13  C   UNL     1     -47.930 100.542   0.210  0.00  0.00    +0.000 A 
BRANCH  10  14
ATOM     14  O   UNL     1     -50.156  97.390   1.803  0.00  0.00    +0.000 OA
ATOM     15  C   UNL     1     -49.804  96.102   1.383  0.00  0.00    +0.000 C 
ENDBRANCH  10  14
BRANCH  11  16
ATOM     16  O   UNL     1     -51.102  98.865  -0.347  0.00  0.00    +0.000 OA
ATOM     17  H   UNL     1     -50.993  98.258  -1.098  0.00  0.00    +0.000 HD
ENDBRANCH  11  16
ENDBRANCH   7   8
ENDBRANCH   2   6
BRANCH   4  18
ATOM     18  C   UNL     1     -40.345 101.740   1.599  0.00  0.00    +0.000 C 
ATOM     19  C   UNL     1     -39.363 102.315   1.985  0.00  0.00    +0.000 C 
BRANCH  19  20
ATOM     20  C   UNL     1     -38.198 102.995   2.445  0.00  0.00    +0.000 A 
ATOM     21  C   UNL     1     -37.505 103.844   1.584  0.00  0.00    +0.000 A 
ATOM     22  C   UNL     1     -36.361 104.519   2.019  0.00  0.00    +0.000 A 
ATOM     23  C   UNL     1     -35.927 104.325   3.334  0.00  0.00    +0.000 A 
ATOM     24  C   UNL     1     -36.617 103.477   4.199  0.00  0.00    +0.000 A 
ATOM     25  C   UNL     1     -37.755 102.811   3.753  0.00  0.00    +0.000 A 
BRANCH  22  26
ATOM     26  O   UNL     1     -35.620 105.372   1.238  0.00  0.00    +0.000 OA
ATOM     27  C   UNL     1     -36.248 105.815   0.063  0.00  0.00    +0.000 C 
ENDBRANCH  22  26
BRANCH  23  28
ATOM     28  O   UNL     1     -34.810 104.976   3.779  0.00  0.00    +0.000 OA
ATOM     29  H   UNL     1     -35.057 105.884   4.032  0.00  0.00    +0.000 HD
ENDBRANCH  23  28
ENDBRANCH  19  20
ENDBRANCH   4  18
TORSDOF 8
ENDMDL
MODEL 8
REMARK VINA RESULT:      -5.3      1.561     11.805
REMARK  Name = Curcumin.pdbqt.pdb
REMARK  8 active torsions:
REMARK  status: ('A' for Active; 'I' for Inactive)
REMARK    1  A    between atoms: C_2  and  C_4
REMARK    2  A    between atoms: C_5  and  C_6
REMARK    3  A    between atoms: C_8  and  O_12
REMARK    4  A    between atoms: C_9  and  O_14
REMARK    5  A    between atoms: C_16  and  C_18
REMARK    6  A    between atoms: C_19  and  C_20
REMARK    7  A    between atoms: C_22  and  O_26
REMARK    8  A    between atoms: C_23  and  O_28
REMARK                            x       y       z     vdW  Elec       q    Type
REMARK                         _______ _______ _______ _____ _____    ______ ____
ROOT
ATOM      1  C   UNL     1     -43.325 101.081   3.215  0.00  0.00    +0.000 C 
ATOM      2  C   UNL     1     -42.435 100.860   2.124  0.00  0.00    +0.000 C 
ATOM      3  O   UNL     1     -42.764 100.109   1.218  0.00  0.00    +0.000 OA
ATOM      4  C   UNL     1     -44.214 101.299   4.307  0.00  0.00    +0.000 C 
ATOM      5  O   UNL     1     -43.790 101.782   5.348  0.00  0.00    +0.000 OA
ENDROOT
BRANCH   2   6
ATOM      6  C   UNL     1     -41.157 101.524   2.095  0.00  0.00    +0.000 C 
ATOM      7  C   UNL     1     -40.091 102.078   2.073  0.00  0.00    +0.000 C 
BRANCH   7   8
ATOM      8  C   UNL     1     -38.824 102.734   2.045  0.00  0.00    +0.000 A 
ATOM      9  C   UNL     1     -38.642 103.860   1.246  0.00  0.00    +0.000 A 
ATOM     10  C   UNL     1     -37.408 104.516   1.207  0.00  0.00    +0.000 A 
ATOM     11  C   UNL     1     -36.359 104.019   1.986  0.00  0.00    +0.000 A 
ATOM     12  C   UNL     1     -36.538 102.891   2.787  0.00  0.00    +0.000 A 
ATOM     13  C   UNL     1     -37.772 102.248   2.816  0.00  0.00    +0.000 A 
BRANCH  10  14
ATOM     14  O   UNL     1     -37.156 105.630   0.446  0.00  0.00    +0.000 OA
ATOM     15  C   UNL     1     -37.119 105.434  -0.939  0.00  0.00    +0.000 C 
ENDBRANCH  10  14
BRANCH  11  16
ATOM     16  O   UNL     1     -35.117 104.591   2.013  0.00  0.00    +0.000 OA
ATOM     17  H   UNL     1     -34.462 104.011   1.591  0.00  0.00    +0.000 HD
ENDBRANCH  11  16
ENDBRANCH   7   8
ENDBRANCH   2   6
BRANCH   4  18
ATOM     18  C   UNL     1     -45.605 100.949   4.178  0.00  0.00    +0.000 C 
ATOM     19  C   UNL     1     -46.765 100.652   4.070  0.00  0.00    +0.000 C 
BRANCH  19  20
ATOM     20  C   UNL     1     -48.139 100.297   3.943  0.00  0.00    +0.000 A 
ATOM     21  C   UNL     1     -48.492  98.978   3.663  0.00  0.00    +0.000 A 
ATOM     22  C   UNL     1     -49.835  98.613   3.535  0.00  0.00    +0.000 A 
ATOM     23  C   UNL     1     -50.816  99.596   3.694  0.00  0.00    +0.000 A 
ATOM     24  C   UNL     1     -50.468 100.917   3.973  0.00  0.00    +0.000 A 
ATOM     25  C   UNL     1     -49.127 101.267   4.098  0.00  0.00    +0.000 A 
BRANCH  22  26
ATOM     26  O   UNL     1     -50.269  97.338   3.261  0.00  0.00    +0.000 OA
ATOM     27  C   UNL     1     -49.957  96.371   4.230  0.00  0.00    +0.000 C 
ENDBRANCH  22  26
BRANCH  23  28
ATOM     28  O   UNL     1     -52.136  99.259   3.572  0.00  0.00    +0.000 OA
ATOM     29  H   UNL     1     -52.674  99.941   4.014  0.00  0.00    +0.000 HD
ENDBRANCH  23  28
ENDBRANCH  19  20
ENDBRANCH   4  18
TORSDOF 8
ENDMDL
MODEL 9
REMARK VINA RESULT:      -5.3     21.884     28.084
REMARK  Name = Curcumin.pdbqt.pdb
REMARK  8 active torsions:
REMARK  status: ('A' for Active; 'I' for Inactive)
REMARK    1  A    between atoms: C_2  and  C_4
REMARK    2  A    between atoms: C_5  and  C_6
REMARK    3  A    between atoms: C_8  and  O_12
REMARK    4  A    between atoms: C_9  and  O_14
REMARK    5  A    between atoms: C_16  and  C_18
REMARK    6  A    between atoms: C_19  and  C_20
REMARK    7  A    between atoms: C_22  and  O_26
REMARK    8  A    between atoms: C_23  and  O_28
REMARK                            x       y       z     vdW  Elec       q    Type
REMARK                         _______ _______ _______ _____ _____    ______ ____
ROOT
ATOM      1  C   UNL     1     -18.741  98.942  13.281  0.00  0.00    +0.000 C 
ATOM      2  C   UNL     1     -19.836  99.829  13.076  0.00  0.00    +0.000 C 
ATOM      3  O   UNL     1     -20.250 100.505  14.007  0.00  0.00    +0.000 OA
ATOM      4  C   UNL     1     -17.647  98.052  13.488  0.00  0.00    +0.000 C 
ATOM      5  O   UNL     1     -17.428  97.161  12.679  0.00  0.00    +0.000 OA
ENDROOT
BRANCH   2   6
ATOM      6  C   UNL     1     -20.447  99.926  11.775  0.00  0.00    +0.000 C 
ATOM      7  C   UNL     1     -20.956 100.009  10.690  0.00  0.00    +0.000 C 
BRANCH   7   8
ATOM      8  C   UNL     1     -21.559 100.107   9.400  0.00  0.00    +0.000 A 
ATOM      9  C   UNL     1     -21.049  99.363   8.338  0.00  0.00    +0.000 A 
ATOM     10  C   UNL     1     -21.628  99.445   7.067  0.00  0.00    +0.000 A 
ATOM     11  C   UNL     1     -22.728 100.290   6.883  0.00  0.00    +0.000 A 
ATOM     12  C   UNL     1     -23.239 101.035   7.945  0.00  0.00    +0.000 A 
ATOM     13  C   UNL     1     -22.653 100.943   9.205  0.00  0.00    +0.000 A 
BRANCH  10  14
ATOM     14  O   UNL     1     -21.182  98.743   5.975  0.00  0.00    +0.000 OA
ATOM     15  C   UNL     1     -19.837  98.922   5.635  0.00  0.00    +0.000 C 
ENDBRANCH  10  14
BRANCH  11  16
ATOM     16  O   UNL     1     -23.359 100.436   5.679  0.00  0.00    +0.000 OA
ATOM     17  H   UNL     1     -23.032 101.224   5.214  0.00  0.00    +0.000 HD
ENDBRANCH  11  16
ENDBRANCH   7   8
ENDBRANCH   2   6
BRANCH   4  18
ATOM     18  C   UNL     1     -16.807  98.208  14.648  0.00  0.00    +0.000 C 
ATOM     19  C   UNL     1     -16.110  98.337  15.618  0.00  0.00    +0.000 C 
BRANCH  19  20
ATOM     20  C   UNL     1     -15.286  98.491  16.771  0.00  0.00    +0.000 A 
ATOM     21  C   UNL     1     -15.430  99.617  17.581  0.00  0.00    +0.000 A 
ATOM     22  C   UNL     1     -14.630  99.783  18.715  0.00  0.00    +0.000 A 
ATOM     23  C   UNL     1     -13.686  98.798  19.020  0.00  0.00    +0.000 A 
ATOM     24  C   UNL     1     -13.538  97.671  18.213  0.00  0.00    +0.000 A 
ATOM     25  C   UNL     1     -14.340  97.518  17.087  0.00  0.00    +0.000 A 
BRANCH  22  26
ATOM     26  O   UNL     1     -14.706 100.859  19.566  0.00  0.00    +0.000 OA
ATOM     27  C   UNL     1     -15.809 100.868  20.434  0.00  0.00    +0.000 C 
ENDBRANCH  22  26
BRANCH  23  28
ATOM     28  O   UNL     1     -12.893  98.942  20.126  0.00  0.00    +0.000 OA
ATOM     29  H   UNL     1     -13.151  98.272  20.785  0.00  0.00    +0.000 HD
ENDBRANCH  23  28
ENDBRANCH  19  20
ENDBRANCH   4  18
TORSDOF 8
ENDMDL
