MODEL 1
REMARK VINA RESULT:      -9.6      0.000      0.000
REMARK  Name = Cyclosporin_A.pdbqt.pdb
REMARK  4 active torsions:
REMARK  status: ('A' for Active; 'I' for Inactive)
REMARK    1  A    between atoms: N_13  and  C_36
REMARK    2  A    between atoms: C_36  and  O_70
REMARK    3  A    between atoms: C_72  and  C_73
REMARK    4  A    between atoms: C_75  and  C_76
REMARK                            x       y       z     vdW  Elec       q    Type
REMARK                         _______ _______ _______ _____ _____    ______ ____
ROOT
ATOM      1  O   UNL     1     -33.617 109.421   0.185  0.00  0.00    +0.000 OA
ATOM      2  O   UNL     1     -36.364 109.977   4.481  0.00  0.00    +0.000 OA
ATOM      3  O   UNL     1     -34.570 106.476   7.208  0.00  0.00    +0.000 OA
ATOM      4  O   UNL     1     -32.215 104.922  -1.159  0.00  0.00    +0.000 OA
ATOM      5  O   UNL     1     -33.146 111.328   6.807  0.00  0.00    +0.000 OA
ATOM      6  O   UNL     1     -22.522 107.554   6.865  0.00  0.00    +0.000 OA
ATOM      7  O   UNL     1     -28.560 109.101  -1.672  0.00  0.00    +0.000 OA
ATOM      8  O   UNL     1     -24.084 104.533   3.300  0.00  0.00    +0.000 OA
ATOM      9  O   UNL     1     -25.797 109.610   9.786  0.00  0.00    +0.000 OA
ATOM     10  O   UNL     1     -25.535 106.246  -0.139  0.00  0.00    +0.000 OA
ATOM     11  O   UNL     1     -28.890 111.658   7.586  0.00  0.00    +0.000 OA
ATOM     12  N   UNL     1     -35.131 109.095   3.276  0.00  0.00    +0.000 NA
ATOM     13  N   UNL     1     -33.309 107.388   1.434  0.00  0.00    +0.000 NA
ATOM     14  N   UNL     1     -35.383 108.058   6.329  0.00  0.00    +0.000 NA
ATOM     15  N   UNL     1     -32.835 109.032   7.965  0.00  0.00    +0.000 NA
ATOM     16  N   UNL     1     -30.735 106.476  -0.000  0.00  0.00    +0.000 NA
ATOM     17  N   UNL     1     -24.526 106.649   7.706  0.00  0.00    +0.000 N 
ATOM     18  N   UNL     1     -25.002 106.191   4.674  0.00  0.00    +0.000 N 
ATOM     19  N   UNL     1     -25.524 106.421   1.825  0.00  0.00    +0.000 NA
ATOM     20  N   UNL     1     -28.415 108.398   0.487  0.00  0.00    +0.000 NA
ATOM     21  N   UNL     1     -30.071 109.561   6.978  0.00  0.00    +0.000 NA
ATOM     22  N   UNL     1     -26.678 108.887   7.656  0.00  0.00    +0.000 NA
ATOM     23  C   UNL     1     -34.372 109.586   2.254  0.00  0.00    +0.000 C 
ATOM     24  C   UNL     1     -34.924 108.023   5.075  0.00  0.00    +0.000 C 
ATOM     25  C   UNL     1     -33.215 106.539   0.348  0.00  0.00    +0.000 C 
ATOM     26  C   UNL     1     -34.641 110.781   1.612  0.00  0.00    +0.000 C 
ATOM     27  C   UNL     1     -35.282 106.614   4.792  0.00  0.00    +0.000 C 
ATOM     28  C   UNL     1     -33.751 108.714   1.384  0.00  0.00    +0.000 C 
ATOM     29  C   UNL     1     -35.325 109.240   4.638  0.00  0.00    +0.000 C 
ATOM     30  C   UNL     1     -34.112 108.830   7.793  0.00  0.00    +0.000 C 
ATOM     31  C   UNL     1     -34.282 107.727   7.010  0.00  0.00    +0.000 C 
ATOM     32  C   UNL     1     -31.975 105.804  -0.048  0.00  0.00    +0.000 C 
ATOM     33  C   UNL     1     -35.881 111.127   2.233  0.00  0.00    +0.000 C 
ATOM     34  C   UNL     1     -34.341 110.591   0.304  0.00  0.00    +0.000 C 
ATOM     35  C   UNL     1     -35.988 110.179   3.239  0.00  0.00    +0.000 C 
ATOM     36  C   UNL     1     -35.737 106.686   6.441  0.00  0.00    +0.000 C 
ATOM     37  C   UNL     1     -30.173 107.234  -1.059  0.00  0.00    +0.000 C 
ATOM     38  C   UNL     1     -23.879 106.709   5.268  0.00  0.00    +0.000 A 
ATOM     39  C   UNL     1     -32.718 109.997   7.058  0.00  0.00    +0.000 C 
ATOM     40  C   UNL     1     -24.876 107.672   8.624  0.00  0.00    +0.000 C 
ATOM     41  C   UNL     1     -25.764 105.255   2.473  0.00  0.00    +0.000 C 
ATOM     42  C   UNL     1     -33.113 109.433   9.368  0.00  0.00    +0.000 C 
ATOM     43  C   UNL     1     -22.663 107.160   4.671  0.00  0.00    +0.000 A 
ATOM     44  C   UNL     1     -23.842 107.161  10.021  0.00  0.00    +0.000 C 
ATOM     45  C   UNL     1     -31.246 110.095   6.839  0.00  0.00    +0.000 C 
ATOM     46  C   UNL     1     -24.664 104.340   2.009  0.00  0.00    +0.000 C 
ATOM     47  C   UNL     1     -30.817 107.022  -2.315  0.00  0.00    +0.000 C 
ATOM     48  C   UNL     1     -23.735 106.951   6.630  0.00  0.00    +0.000 A 
ATOM     49  C   UNL     1     -29.182 108.126  -0.812  0.00  0.00    +0.000 C 
ATOM     50  C   UNL     1     -24.990 105.419   3.611  0.00  0.00    +0.000 C 
ATOM     51  C   UNL     1     -25.742 108.739   8.662  0.00  0.00    +0.000 C 
ATOM     52  C   UNL     1     -27.480 107.303   0.760  0.00  0.00    +0.000 C 
ATOM     53  C   UNL     1     -22.283 107.219   3.216  0.00  0.00    +0.000 C 
ATOM     54  C   UNL     1     -21.875 107.669   5.672  0.00  0.00    +0.000 A 
ATOM     55  C   UNL     1     -26.492 106.290   0.864  0.00  0.00    +0.000 C 
ATOM     56  C   UNL     1     -27.551 109.839   7.578  0.00  0.00    +0.000 C 
ATOM     57  C   UNL     1     -31.910 111.273   6.628  0.00  0.00    +0.000 C 
ATOM     58  C   UNL     1     -23.864 106.425   8.864  0.00  0.00    +0.000 C 
ATOM     59  C   UNL     1     -31.729 106.451  -2.843  0.00  0.00    +0.000 C 
ATOM     60  C   UNL     1     -28.982 110.249   7.289  0.00  0.00    +0.000 C 
ATOM     61  C   UNL     1     -24.457 105.920   0.793  0.00  0.00    +0.000 C 
ATOM     62  C   UNL     1     -28.075 109.160  -0.535  0.00  0.00    +0.000 C 
ATOM     63  C   UNL     1     -27.774 111.157   7.801  0.00  0.00    +0.000 C 
ATOM     64  H   UNL     1     -30.628 106.996   0.871  0.00  0.00    +0.000 HD
ATOM     65  H   UNL     1     -25.887 106.612   4.945  0.00  0.00    +0.000 HD
ATOM     66  H   UNL     1     -30.032 108.553   7.100  0.00  0.00    +0.000 HD
ATOM     67  H   UNL     1     -26.865 108.001   7.197  0.00  0.00    +0.000 HD
ATOM     68  C   UNL     1     -34.052 106.581  -0.652  0.00  0.00    +0.000 C 
ATOM     69  C   UNL     1     -34.047 106.186  -2.020  0.00  0.00    +0.000 C 
ATOM     70  C   UNL     1     -32.741 105.574  -2.332  0.00  0.00    +0.000 C 
ATOM     71  C   UNL     1     -36.613 105.716   4.322  0.00  0.00    +0.000 C 
ATOM     72  C   UNL     1     -36.612 104.653   3.520  0.00  0.00    +0.000 C 
ATOM     73  C   UNL     1     -36.539 105.905   5.705  0.00  0.00    +0.000 C 
ATOM     74  C   UNL     1     -34.490 109.094   9.189  0.00  0.00    +0.000 C 
ATOM     75  C   UNL     1     -34.238 110.151  10.052  0.00  0.00    +0.000 C 
ATOM     76  C   UNL     1     -34.538 110.044  11.563  0.00  0.00    +0.000 C 
ATOM     77  C   UNL     1     -33.004 110.731   9.832  0.00  0.00    +0.000 C 
ATOM     78  C   UNL     1     -24.222 103.354   0.827  0.00  0.00    +0.000 C 
ATOM     79  C   UNL     1     -23.460 102.267   0.748  0.00  0.00    +0.000 C 
ATOM     80  C   UNL     1     -24.127 104.666   0.361  0.00  0.00    +0.000 C 
ATOM     81  C   UNL     1     -24.035 108.065  10.984  0.00  0.00    +0.000 C 
ATOM     82  C   UNL     1     -23.352 107.976  12.309  0.00  0.00    +0.000 C 
ATOM     83  C   UNL     1     -24.953 109.101  10.683  0.00  0.00    +0.000 C 
ENDROOT
BRANCH  69  84
ATOM     84  C   UNL     1     -34.931 106.649  -3.023  0.00  0.00    +0.000 C 
ATOM     85  C   UNL     1     -35.677 107.049  -3.875  0.00  0.00    +0.000 C 
BRANCH  85  86
ATOM     86  C   UNL     1     -36.628 107.565  -4.960  0.00  0.00    +0.000 C 
ATOM     87  C   UNL     1     -37.454 108.018  -5.901  0.00  0.00    +0.000 C 
ENDBRANCH  85  86
ENDBRANCH  69  84
BRANCH  13  88
ATOM     88  C   UNL     1     -32.646 106.967   2.657  0.00  0.00    +0.000 C 
BRANCH  88  89
ATOM     89  O   UNL     1     -32.046 106.559   3.767  0.00  0.00    +0.000 OA
ATOM     90  H   UNL     1     -31.216 107.052   3.898  0.00  0.00    +0.000 HD
ENDBRANCH  88  89
ENDBRANCH  13  88
TORSDOF 4
ENDMDL
MODEL 2
REMARK VINA RESULT:      -9.5     23.100     28.593
REMARK  Name = Cyclosporin_A.pdbqt.pdb
REMARK  4 active torsions:
REMARK  status: ('A' for Active; 'I' for Inactive)
REMARK    1  A    between atoms: N_13  and  C_36
REMARK    2  A    between atoms: C_36  and  O_70
REMARK    3  A    between atoms: C_72  and  C_73
REMARK    4  A    between atoms: C_75  and  C_76
REMARK                            x       y       z     vdW  Elec       q    Type
REMARK                         _______ _______ _______ _____ _____    ______ ____
ROOT
ATOM      1  O   UNL     1     -21.766  78.215   2.394  0.00  0.00    +0.000 OA
ATOM      2  O   UNL     1     -19.264  82.683   2.098  0.00  0.00    +0.000 OA
ATOM      3  O   UNL     1     -22.869  85.810   2.471  0.00  0.00    +0.000 OA
ATOM      4  O   UNL     1     -26.279  77.904   0.512  0.00  0.00    +0.000 OA
ATOM      5  O   UNL     1     -19.964  83.765   6.090  0.00  0.00    +0.000 OA
ATOM      6  O   UNL     1     -29.425  82.513  12.092  0.00  0.00    +0.000 OA
ATOM      7  O   UNL     1     -25.277  75.447   5.416  0.00  0.00    +0.000 OA
ATOM      8  O   UNL     1     -31.161  80.373   8.009  0.00  0.00    +0.000 OA
ATOM      9  O   UNL     1     -25.545  85.396  11.750  0.00  0.00    +0.000 OA
ATOM     10  O   UNL     1     -29.235  77.004   6.666  0.00  0.00    +0.000 OA
ATOM     11  O   UNL     1     -22.239  83.456   9.773  0.00  0.00    +0.000 OA
ATOM     12  N   UNL     1     -20.819  81.530   2.132  0.00  0.00    +0.000 NA
ATOM     13  N   UNL     1     -23.440  79.881   1.937  0.00  0.00    +0.000 NA
ATOM     14  N   UNL     1     -21.207  84.728   2.423  0.00  0.00    +0.000 NA
ATOM     15  N   UNL     1     -21.854  85.418   5.459  0.00  0.00    +0.000 NA
ATOM     16  N   UNL     1     -25.860  78.224   2.893  0.00  0.00    +0.000 NA
ATOM     17  N   UNL     1     -28.835  83.997  10.362  0.00  0.00    +0.000 N 
ATOM     18  N   UNL     1     -29.174  81.397   8.702  0.00  0.00    +0.000 N 
ATOM     19  N   UNL     1     -28.929  78.788   7.449  0.00  0.00    +0.000 NA
ATOM     20  N   UNL     1     -25.725  77.628   5.883  0.00  0.00    +0.000 NA
ATOM     21  N   UNL     1     -23.218  83.735   7.509  0.00  0.00    +0.000 NA
ATOM     22  N   UNL     1     -25.763  83.804   9.947  0.00  0.00    +0.000 NA
ATOM     23  C   UNL     1     -20.989  80.270   2.627  0.00  0.00    +0.000 C 
ATOM     24  C   UNL     1     -21.628  83.464   2.318  0.00  0.00    +0.000 C 
ATOM     25  C   UNL     1     -24.262  79.082   1.166  0.00  0.00    +0.000 C 
ATOM     26  C   UNL     1     -19.943  79.396   2.860  0.00  0.00    +0.000 C 
ATOM     27  C   UNL     1     -22.541  83.672   1.172  0.00  0.00    +0.000 C 
ATOM     28  C   UNL     1     -22.132  79.563   2.316  0.00  0.00    +0.000 C 
ATOM     29  C   UNL     1     -20.465  82.805   2.535  0.00  0.00    +0.000 C 
ATOM     30  C   UNL     1     -21.247  85.598   4.319  0.00  0.00    +0.000 C 
ATOM     31  C   UNL     1     -22.080  85.212   3.311  0.00  0.00    +0.000 C 
ATOM     32  C   UNL     1     -25.633  78.643   1.565  0.00  0.00    +0.000 C 
ATOM     33  C   UNL     1     -18.857  80.155   2.324  0.00  0.00    +0.000 C 
ATOM     34  C   UNL     1     -20.392  78.161   2.532  0.00  0.00    +0.000 C 
ATOM     35  C   UNL     1     -19.446  81.384   2.067  0.00  0.00    +0.000 C 
ATOM     36  C   UNL     1     -22.059  85.294   1.435  0.00  0.00    +0.000 C 
ATOM     37  C   UNL     1     -25.702  76.899   3.372  0.00  0.00    +0.000 C 
ATOM     38  C   UNL     1     -29.401  81.559  10.045  0.00  0.00    +0.000 A 
ATOM     39  C   UNL     1     -21.249  84.276   5.768  0.00  0.00    +0.000 C 
ATOM     40  C   UNL     1     -27.735  84.646  10.978  0.00  0.00    +0.000 C 
ATOM     41  C   UNL     1     -29.640  79.772   6.847  0.00  0.00    +0.000 C 
ATOM     42  C   UNL     1     -21.244  86.679   5.954  0.00  0.00    +0.000 C 
ATOM     43  C   UNL     1     -29.844  80.605  11.012  0.00  0.00    +0.000 A 
ATOM     44  C   UNL     1     -28.645  85.865  11.964  0.00  0.00    +0.000 C 
ATOM     45  C   UNL     1     -22.092  83.717   6.864  0.00  0.00    +0.000 C 
ATOM     46  C   UNL     1     -31.074  79.349   7.017  0.00  0.00    +0.000 C 
ATOM     47  C   UNL     1     -25.587  75.928   2.333  0.00  0.00    +0.000 C 
ATOM     48  C   UNL     1     -29.178  82.732  10.758  0.00  0.00    +0.000 A 
ATOM     49  C   UNL     1     -25.586  76.661   4.703  0.00  0.00    +0.000 C 
ATOM     50  C   UNL     1     -29.883  80.617   7.918  0.00  0.00    +0.000 C 
ATOM     51  C   UNL     1     -26.363  84.577  10.923  0.00  0.00    +0.000 C 
ATOM     52  C   UNL     1     -27.133  77.981   6.083  0.00  0.00    +0.000 C 
ATOM     53  C   UNL     1     -30.160  79.145  10.829  0.00  0.00    +0.000 C 
ATOM     54  C   UNL     1     -29.837  81.224  12.235  0.00  0.00    +0.000 A 
ATOM     55  C   UNL     1     -28.525  78.142   6.310  0.00  0.00    +0.000 C 
ATOM     56  C   UNL     1     -24.489  83.659   9.782  0.00  0.00    +0.000 C 
ATOM     57  C   UNL     1     -20.779  83.339   6.936  0.00  0.00    +0.000 C 
ATOM     58  C   UNL     1     -29.313  84.994  11.141  0.00  0.00    +0.000 C 
ATOM     59  C   UNL     1     -25.525  75.796   1.143  0.00  0.00    +0.000 C 
ATOM     60  C   UNL     1     -23.317  83.592   8.822  0.00  0.00    +0.000 C 
ATOM     61  C   UNL     1     -30.067  77.726   7.626  0.00  0.00    +0.000 C 
ATOM     62  C   UNL     1     -25.426  76.385   6.209  0.00  0.00    +0.000 C 
ATOM     63  C   UNL     1     -23.297  83.549  10.417  0.00  0.00    +0.000 C 
ATOM     64  H   UNL     1     -25.439  78.869   3.562  0.00  0.00    +0.000 HD
ATOM     65  H   UNL     1     -28.278  81.730   8.356  0.00  0.00    +0.000 HD
ATOM     66  H   UNL     1     -24.024  84.122   7.024  0.00  0.00    +0.000 HD
ATOM     67  H   UNL     1     -26.387  83.663   9.157  0.00  0.00    +0.000 HD
ATOM     68  C   UNL     1     -23.806  78.322   0.208  0.00  0.00    +0.000 C 
ATOM     69  C   UNL     1     -24.241  77.154  -0.479  0.00  0.00    +0.000 C 
ATOM     70  C   UNL     1     -25.550  76.743   0.068  0.00  0.00    +0.000 C 
ATOM     71  C   UNL     1     -22.474  83.780  -0.496  0.00  0.00    +0.000 C 
ATOM     72  C   UNL     1     -23.382  83.326  -1.359  0.00  0.00    +0.000 C 
ATOM     73  C   UNL     1     -22.247  85.002   0.142  0.00  0.00    +0.000 C 
ATOM     74  C   UNL     1     -20.684  86.912   4.660  0.00  0.00    +0.000 C 
ATOM     75  C   UNL     1     -19.930  87.368   5.732  0.00  0.00    +0.000 C 
ATOM     76  C   UNL     1     -19.696  88.876   5.967  0.00  0.00    +0.000 C 
ATOM     77  C   UNL     1     -20.249  86.726   6.914  0.00  0.00    +0.000 C 
ATOM     78  C   UNL     1     -32.224  78.423   6.400  0.00  0.00    +0.000 C 
ATOM     79  C   UNL     1     -33.553  78.483   6.352  0.00  0.00    +0.000 C 
ATOM     80  C   UNL     1     -31.293  77.599   7.035  0.00  0.00    +0.000 C 
ATOM     81  C   UNL     1     -27.730  86.556  12.648  0.00  0.00    +0.000 C 
ATOM     82  C   UNL     1     -28.099  87.666  13.575  0.00  0.00    +0.000 C 
ATOM     83  C   UNL     1     -26.381  86.189  12.419  0.00  0.00    +0.000 C 
ENDROOT
BRANCH  69  84
ATOM     84  C   UNL     1     -23.426  76.284  -1.240  0.00  0.00    +0.000 C 
ATOM     85  C   UNL     1     -22.731  75.542  -1.880  0.00  0.00    +0.000 C 
BRANCH  85  86
ATOM     86  C   UNL     1     -21.841  74.596  -2.692  0.00  0.00    +0.000 C 
ATOM     87  C   UNL     1     -21.066  73.771  -3.394  0.00  0.00    +0.000 C 
ENDBRANCH  85  86
ENDBRANCH  69  84
BRANCH  13  88
ATOM     88  C   UNL     1     -24.068  80.994   2.631  0.00  0.00    +0.000 C 
BRANCH  88  89
ATOM     89  O   UNL     1     -24.642  81.996   3.284  0.00  0.00    +0.000 OA
ATOM     90  H   UNL     1     -25.609  81.882   3.285  0.00  0.00    +0.000 HD
ENDBRANCH  88  89
ENDBRANCH  13  88
TORSDOF 4
ENDMDL
MODEL 3
REMARK VINA RESULT:      -9.1      7.029     13.652
REMARK  Name = Cyclosporin_A.pdbqt.pdb
REMARK  4 active torsions:
REMARK  status: ('A' for Active; 'I' for Inactive)
REMARK    1  A    between atoms: N_13  and  C_36
REMARK    2  A    between atoms: C_36  and  O_70
REMARK    3  A    between atoms: C_72  and  C_73
REMARK    4  A    between atoms: C_75  and  C_76
REMARK                            x       y       z     vdW  Elec       q    Type
REMARK                         _______ _______ _______ _____ _____    ______ ____
ROOT
ATOM      1  O   UNL     1     -37.836 108.909   3.932  0.00  0.00    +0.000 OA
ATOM      2  O   UNL     1     -40.951 105.568   1.598  0.00  0.00    +0.000 OA
ATOM      3  O   UNL     1     -40.378 101.678   4.329  0.00  0.00    +0.000 OA
ATOM      4  O   UNL     1     -33.742 107.244   6.047  0.00  0.00    +0.000 OA
ATOM      5  O   UNL     1     -43.758 105.440   4.712  0.00  0.00    +0.000 OA
ATOM      6  O   UNL     1     -41.837 105.183  15.818  0.00  0.00    +0.000 OA
ATOM      7  O   UNL     1     -36.723 111.120   8.727  0.00  0.00    +0.000 OA
ATOM      8  O   UNL     1     -37.094 105.469  14.519  0.00  0.00    +0.000 OA
ATOM      9  O   UNL     1     -45.075 103.709  12.529  0.00  0.00    +0.000 OA
ATOM     10  O   UNL     1     -35.903 108.782  12.402  0.00  0.00    +0.000 OA
ATOM     11  O   UNL     1     -44.848 105.991   8.876  0.00  0.00    +0.000 OA
ATOM     12  N   UNL     1     -39.582 106.128   2.847  0.00  0.00    +0.000 NA
ATOM     13  N   UNL     1     -37.221 106.738   4.767  0.00  0.00    +0.000 NA
ATOM     14  N   UNL     1     -40.877 103.179   3.130  0.00  0.00    +0.000 NA
ATOM     15  N   UNL     1     -42.890 103.165   5.592  0.00  0.00    +0.000 NA
ATOM     16  N   UNL     1     -35.775 107.730   7.304  0.00  0.00    +0.000 NA
ATOM     17  N   UNL     1     -41.596 103.555  14.134  0.00  0.00    +0.000 N 
ATOM     18  N   UNL     1     -39.169 105.360  13.441  0.00  0.00    +0.000 N 
ATOM     19  N   UNL     1     -37.365 107.470  12.586  0.00  0.00    +0.000 NA
ATOM     20  N   UNL     1     -37.684 109.122   9.235  0.00  0.00    +0.000 NA
ATOM     21  N   UNL     1     -42.814 104.813   8.076  0.00  0.00    +0.000 NA
ATOM     22  N   UNL     1     -43.037 104.598  11.588  0.00  0.00    +0.000 NA
ATOM     23  C   UNL     1     -39.304 107.353   3.382  0.00  0.00    +0.000 C 
ATOM     24  C   UNL     1     -40.034 104.164   3.451  0.00  0.00    +0.000 C 
ATOM     25  C   UNL     1     -35.871 106.994   4.912  0.00  0.00    +0.000 C 
ATOM     26  C   UNL     1     -39.721 108.543   2.815  0.00  0.00    +0.000 C 
ATOM     27  C   UNL     1     -38.786 103.374   3.352  0.00  0.00    +0.000 C 
ATOM     28  C   UNL     1     -38.123 107.547   4.068  0.00  0.00    +0.000 C 
ATOM     29  C   UNL     1     -40.597 105.192   2.773  0.00  0.00    +0.000 C 
ATOM     30  C   UNL     1     -42.529 102.887   4.370  0.00  0.00    +0.000 C 
ATOM     31  C   UNL     1     -41.179 102.700   4.340  0.00  0.00    +0.000 C 
ATOM     32  C   UNL     1     -35.159 107.063   6.224  0.00  0.00    +0.000 C 
ATOM     33  C   UNL     1     -40.303 108.055   1.604  0.00  0.00    +0.000 C 
ATOM     34  C   UNL     1     -38.718 109.434   3.007  0.00  0.00    +0.000 C 
ATOM     35  C   UNL     1     -40.285 106.682   1.794  0.00  0.00    +0.000 C 
ATOM     36  C   UNL     1     -39.923 102.126   3.068  0.00  0.00    +0.000 C 
ATOM     37  C   UNL     1     -35.653 109.113   7.589  0.00  0.00    +0.000 C 
ATOM     38  C   UNL     1     -40.035 105.504  14.495  0.00  0.00    +0.000 A 
ATOM     39  C   UNL     1     -42.989 104.480   5.420  0.00  0.00    +0.000 C 
ATOM     40  C   UNL     1     -42.940 103.483  13.688  0.00  0.00    +0.000 C 
ATOM     41  C   UNL     1     -36.934 106.187  12.651  0.00  0.00    +0.000 C 
ATOM     42  C   UNL     1     -44.114 102.348   5.390  0.00  0.00    +0.000 C 
ATOM     43  C   UNL     1     -40.051 106.490  15.528  0.00  0.00    +0.000 A 
ATOM     44  C   UNL     1     -43.593 102.352  14.944  0.00  0.00    +0.000 C 
ATOM     45  C   UNL     1     -43.022 105.014   6.812  0.00  0.00    +0.000 C 
ATOM     46  C   UNL     1     -36.033 106.159  13.856  0.00  0.00    +0.000 C 
ATOM     47  C   UNL     1     -34.597 109.752   6.871  0.00  0.00    +0.000 C 
ATOM     48  C   UNL     1     -41.146 104.702  14.732  0.00  0.00    +0.000 A 
ATOM     49  C   UNL     1     -36.547 109.727   8.405  0.00  0.00    +0.000 C 
ATOM     50  C   UNL     1     -37.884 105.631  13.493  0.00  0.00    +0.000 C 
ATOM     51  C   UNL     1     -43.681 103.969  12.636  0.00  0.00    +0.000 C 
ATOM     52  C   UNL     1     -37.140 108.406  10.392  0.00  0.00    +0.000 C 
ATOM     53  C   UNL     1     -39.135 107.667  15.732  0.00  0.00    +0.000 C 
ATOM     54  C   UNL     1     -41.161 106.261  16.300  0.00  0.00    +0.000 A 
ATOM     55  C   UNL     1     -36.544 107.878  11.567  0.00  0.00    +0.000 C 
ATOM     56  C   UNL     1     -43.613 105.091  10.540  0.00  0.00    +0.000 C 
ATOM     57  C   UNL     1     -43.690 105.796   5.908  0.00  0.00    +0.000 C 
ATOM     58  C   UNL     1     -42.268 102.707  14.946  0.00  0.00    +0.000 C 
ATOM     59  C   UNL     1     -33.754 109.570   6.040  0.00  0.00    +0.000 C 
ATOM     60  C   UNL     1     -43.609 105.266   9.034  0.00  0.00    +0.000 C 
ATOM     61  C   UNL     1     -36.379 108.119  13.616  0.00  0.00    +0.000 C 
ATOM     62  C   UNL     1     -37.574 110.435   9.307  0.00  0.00    +0.000 C 
ATOM     63  C   UNL     1     -44.711 105.743  10.086  0.00  0.00    +0.000 C 
ATOM     64  H   UNL     1     -36.754 107.459   7.397  0.00  0.00    +0.000 HD
ATOM     65  H   UNL     1     -39.594 105.250  12.523  0.00  0.00    +0.000 HD
ATOM     66  H   UNL     1     -42.163 104.074   8.328  0.00  0.00    +0.000 HD
ATOM     67  H   UNL     1     -42.063 104.313  11.533  0.00  0.00    +0.000 HD
ATOM     68  C   UNL     1     -35.160 107.570   3.982  0.00  0.00    +0.000 C 
ATOM     69  C   UNL     1     -33.944 108.307   3.920  0.00  0.00    +0.000 C 
ATOM     70  C   UNL     1     -33.383 108.411   5.282  0.00  0.00    +0.000 C 
ATOM     71  C   UNL     1     -37.711 102.847   2.183  0.00  0.00    +0.000 C 
ATOM     72  C   UNL     1     -36.390 102.736   2.310  0.00  0.00    +0.000 C 
ATOM     73  C   UNL     1     -38.794 101.981   2.364  0.00  0.00    +0.000 C 
ATOM     74  C   UNL     1     -43.641 101.965   4.097  0.00  0.00    +0.000 C 
ATOM     75  C   UNL     1     -45.018 102.081   4.224  0.00  0.00    +0.000 C 
ATOM     76  C   UNL     1     -45.942 100.850   4.112  0.00  0.00    +0.000 C 
ATOM     77  C   UNL     1     -45.386 102.882   5.289  0.00  0.00    +0.000 C 
ATOM     78  C   UNL     1     -34.544 106.468  14.356  0.00  0.00    +0.000 C 
ATOM     79  C   UNL     1     -33.753 105.976  15.307  0.00  0.00    +0.000 C 
ATOM     80  C   UNL     1     -35.193 107.684  14.140  0.00  0.00    +0.000 C 
ATOM     81  C   UNL     1     -44.892 102.201  14.678  0.00  0.00    +0.000 C 
ATOM     82  C   UNL     1     -45.777 101.325  15.501  0.00  0.00    +0.000 C 
ATOM     83  C   UNL     1     -45.376 102.902  13.547  0.00  0.00    +0.000 C 
ENDROOT
BRANCH  69  84
ATOM     84  C   UNL     1     -33.535 109.152   2.862  0.00  0.00    +0.000 C 
ATOM     85  C   UNL     1     -33.196 109.871   1.961  0.00  0.00    +0.000 C 
BRANCH  85  86
ATOM     86  C   UNL     1     -32.768 110.787   0.810  0.00  0.00    +0.000 C 
ATOM     87  C   UNL     1     -32.395 111.580  -0.193  0.00  0.00    +0.000 C 
ENDBRANCH  85  86
ENDBRANCH  69  84
BRANCH  13  88
ATOM     88  C   UNL     1     -37.793 105.714   5.626  0.00  0.00    +0.000 C 
BRANCH  88  89
ATOM     89  O   UNL     1     -38.338 104.788   6.403  0.00  0.00    +0.000 OA
ATOM     90  H   UNL     1     -39.123 104.409   5.969  0.00  0.00    +0.000 HD
ENDBRANCH  88  89
ENDBRANCH  13  88
TORSDOF 4
ENDMDL
MODEL 4
REMARK VINA RESULT:      -8.7     12.432     18.881
REMARK  Name = Cyclosporin_A.pdbqt.pdb
REMARK  4 active torsions:
REMARK  status: ('A' for Active; 'I' for Inactive)
REMARK    1  A    between atoms: N_13  and  C_36
REMARK    2  A    between atoms: C_36  and  O_70
REMARK    3  A    between atoms: C_72  and  C_73
REMARK    4  A    between atoms: C_75  and  C_76
REMARK                            x       y       z     vdW  Elec       q    Type
REMARK                         _______ _______ _______ _____ _____    ______ ____
ROOT
ATOM      1  O   UNL     1     -50.420 105.005  11.054  0.00  0.00    +0.000 OA
ATOM      2  O   UNL     1     -46.855 105.347  14.726  0.00  0.00    +0.000 OA
ATOM      3  O   UNL     1     -43.926 101.753  13.536  0.00  0.00    +0.000 OA
ATOM      4  O   UNL     1     -51.579 100.583   9.290  0.00  0.00    +0.000 OA
ATOM      5  O   UNL     1     -43.798 106.632  12.156  0.00  0.00    +0.000 OA
ATOM      6  O   UNL     1     -41.441 102.973   1.757  0.00  0.00    +0.000 OA
ATOM      7  O   UNL     1     -51.071 104.819   5.700  0.00  0.00    +0.000 OA
ATOM      8  O   UNL     1     -45.385 100.091   2.396  0.00  0.00    +0.000 OA
ATOM      9  O   UNL     1     -39.275 104.866   5.656  0.00  0.00    +0.000 OA
ATOM     10  O   UNL     1     -48.996 101.934   3.051  0.00  0.00    +0.000 OA
ATOM     11  O   UNL     1     -42.046 106.974   8.201  0.00  0.00    +0.000 OA
ATOM     12  N   UNL     1     -47.776 104.531  13.231  0.00  0.00    +0.000 NA
ATOM     13  N   UNL     1     -49.214 102.924  11.000  0.00  0.00    +0.000 NA
ATOM     14  N   UNL     1     -44.906 103.362  14.157  0.00  0.00    +0.000 NA
ATOM     15  N   UNL     1     -42.691 104.293  12.074  0.00  0.00    +0.000 NA
ATOM     16  N   UNL     1     -50.051 102.102   8.147  0.00  0.00    +0.000 NA
ATOM     17  N   UNL     1     -41.120 102.011   3.882  0.00  0.00    +0.000 N 
ATOM     18  N   UNL     1     -44.196 101.679   3.638  0.00  0.00    +0.000 N 
ATOM     19  N   UNL     1     -47.077 102.024   3.496  0.00  0.00    +0.000 NA
ATOM     20  N   UNL     1     -48.967 104.026   6.042  0.00  0.00    +0.000 NA
ATOM     21  N   UNL     1     -42.992 104.893   9.168  0.00  0.00    +0.000 NA
ATOM     22  N   UNL     1     -41.577 104.226   6.009  0.00  0.00    +0.000 NA
ATOM     23  C   UNL     1     -48.576 105.073  12.268  0.00  0.00    +0.000 C 
ATOM     24  C   UNL     1     -46.022 103.385  13.422  0.00  0.00    +0.000 C 
ATOM     25  C   UNL     1     -50.282 102.124  10.642  0.00  0.00    +0.000 C 
ATOM     26  C   UNL     1     -49.215 106.292  12.406  0.00  0.00    +0.000 C 
ATOM     27  C   UNL     1     -46.434 101.986  13.676  0.00  0.00    +0.000 C 
ATOM     28  C   UNL     1     -49.312 104.246  11.446  0.00  0.00    +0.000 C 
ATOM     29  C   UNL     1     -46.491 104.615  13.736  0.00  0.00    +0.000 C 
ATOM     30  C   UNL     1     -43.160 104.084  13.273  0.00  0.00    +0.000 C 
ATOM     31  C   UNL     1     -44.004 103.014  13.236  0.00  0.00    +0.000 C 
ATOM     32  C   UNL     1     -50.409 101.420   9.330  0.00  0.00    +0.000 C 
ATOM     33  C   UNL     1     -48.884 106.598  13.762  0.00  0.00    +0.000 C 
ATOM     34  C   UNL     1     -50.425 106.161  11.809  0.00  0.00    +0.000 C 
ATOM     35  C   UNL     1     -47.967 105.607  14.078  0.00  0.00    +0.000 C 
ATOM     36  C   UNL     1     -44.933 101.983  14.500  0.00  0.00    +0.000 C 
ATOM     37  C   UNL     1     -50.921 102.910   7.373  0.00  0.00    +0.000 C 
ATOM     38  C   UNL     1     -43.339 102.182   2.693  0.00  0.00    +0.000 A 
ATOM     39  C   UNL     1     -43.507 105.297  11.770  0.00  0.00    +0.000 C 
ATOM     40  C   UNL     1     -40.268 102.990   4.453  0.00  0.00    +0.000 C 
ATOM     41  C   UNL     1     -46.548 100.829   3.855  0.00  0.00    +0.000 C 
ATOM     42  C   UNL     1     -41.375 104.631  12.675  0.00  0.00    +0.000 C 
ATOM     43  C   UNL     1     -43.621 102.672   1.381  0.00  0.00    +0.000 A 
ATOM     44  C   UNL     1     -38.691 102.431   3.758  0.00  0.00    +0.000 C 
ATOM     45  C   UNL     1     -43.377 105.419  10.290  0.00  0.00    +0.000 C 
ATOM     46  C   UNL     1     -46.781  99.946   2.659  0.00  0.00    +0.000 C 
ATOM     47  C   UNL     1     -52.299 102.745   7.706  0.00  0.00    +0.000 C 
ATOM     48  C   UNL     1     -41.972 102.367   2.870  0.00  0.00    +0.000 A 
ATOM     49  C   UNL     1     -50.417 103.802   6.483  0.00  0.00    +0.000 C 
ATOM     50  C   UNL     1     -45.257 100.953   3.367  0.00  0.00    +0.000 C 
ATOM     51  C   UNL     1     -40.389 104.046   5.326  0.00  0.00    +0.000 C 
ATOM     52  C   UNL     1     -48.528 102.930   5.172  0.00  0.00    +0.000 C 
ATOM     53  C   UNL     1     -44.947 102.797   0.678  0.00  0.00    +0.000 C 
ATOM     54  C   UNL     1     -42.446 103.145   0.855  0.00  0.00    +0.000 A 
ATOM     55  C   UNL     1     -48.239 101.924   4.214  0.00  0.00    +0.000 C 
ATOM     56  C   UNL     1     -41.817 105.171   6.860  0.00  0.00    +0.000 C 
ATOM     57  C   UNL     1     -43.689 106.598  10.912  0.00  0.00    +0.000 C 
ATOM     58  C   UNL     1     -39.850 101.745   3.498  0.00  0.00    +0.000 C 
ATOM     59  C   UNL     1     -53.044 102.188   8.461  0.00  0.00    +0.000 C 
ATOM     60  C   UNL     1     -42.412 105.578   8.194  0.00  0.00    +0.000 C 
ATOM     61  C   UNL     1     -47.854 101.580   2.210  0.00  0.00    +0.000 C 
ATOM     62  C   UNL     1     -49.852 104.835   5.491  0.00  0.00    +0.000 C 
ATOM     63  C   UNL     1     -41.600 106.476   7.154  0.00  0.00    +0.000 C 
ATOM     64  H   UNL     1     -49.159 102.585   8.255  0.00  0.00    +0.000 HD
ATOM     65  H   UNL     1     -44.120 102.078   4.570  0.00  0.00    +0.000 HD
ATOM     66  H   UNL     1     -42.904 103.880   9.137  0.00  0.00    +0.000 HD
ATOM     67  H   UNL     1     -42.101 103.359   6.067  0.00  0.00    +0.000 HD
ATOM     68  C   UNL     1     -51.445 102.199  11.227  0.00  0.00    +0.000 C 
ATOM     69  C   UNL     1     -52.789 101.863  10.901  0.00  0.00    +0.000 C 
ATOM     70  C   UNL     1     -52.815 101.279   9.545  0.00  0.00    +0.000 C 
ATOM     71  C   UNL     1     -47.233 101.095  14.846  0.00  0.00    +0.000 C 
ATOM     72  C   UNL     1     -48.055 100.068  14.639  0.00  0.00    +0.000 C 
ATOM     73  C   UNL     1     -45.864 101.226  15.095  0.00  0.00    +0.000 C 
ATOM     74  C   UNL     1     -41.879 104.284  13.966  0.00  0.00    +0.000 C 
ATOM     75  C   UNL     1     -40.940 105.306  13.942  0.00  0.00    +0.000 C 
ATOM     76  C   UNL     1     -39.545 105.131  14.579  0.00  0.00    +0.000 C 
ATOM     77  C   UNL     1     -40.847 105.908  12.701  0.00  0.00    +0.000 C 
ATOM     78  C   UNL     1     -47.867  99.017   1.938  0.00  0.00    +0.000 C 
ATOM     79  C   UNL     1     -47.811  97.942   1.156  0.00  0.00    +0.000 C 
ATOM     80  C   UNL     1     -48.247 100.348   1.764  0.00  0.00    +0.000 C 
ATOM     81  C   UNL     1     -37.764 103.291   4.186  0.00  0.00    +0.000 C 
ATOM     82  C   UNL     1     -36.322 103.153   3.824  0.00  0.00    +0.000 C 
ATOM     83  C   UNL     1     -38.228 104.329   5.030  0.00  0.00    +0.000 C 
ENDROOT
BRANCH  69  84
ATOM     84  C   UNL     1     -53.950 102.359  11.539  0.00  0.00    +0.000 C 
ATOM     85  C   UNL     1     -54.939 102.772  12.082  0.00  0.00    +0.000 C 
BRANCH  85  86
ATOM     86  C   UNL     1     -56.202 103.296  12.773  0.00  0.00    +0.000 C 
ATOM     87  C   UNL     1     -57.302 103.752  13.369  0.00  0.00    +0.000 C 
ENDBRANCH  85  86
ENDBRANCH  69  84
BRANCH  13  88
ATOM     88  C   UNL     1     -47.888 102.458  10.627  0.00  0.00    +0.000 C 
BRANCH  88  89
ATOM     89  O   UNL     1     -46.689 102.015  10.275  0.00  0.00    +0.000 OA
ATOM     90  H   UNL     1     -46.749 101.523   9.436  0.00  0.00    +0.000 HD
ENDBRANCH  88  89
ENDBRANCH  13  88
TORSDOF 4
ENDMDL
MODEL 5
REMARK VINA RESULT:      -8.6      8.180     15.389
REMARK  Name = Cyclosporin_A.pdbqt.pdb
REMARK  4 active torsions:
REMARK  status: ('A' for Active; 'I' for Inactive)
REMARK    1  A    between atoms: N_13  and  C_36
REMARK    2  A    between atoms: C_36  and  O_70
REMARK    3  A    between atoms: C_72  and  C_73
REMARK    4  A    between atoms: C_75  and  C_76
REMARK                            x       y       z     vdW  Elec       q    Type
REMARK                         _______ _______ _______ _____ _____    ______ ____
ROOT
ATOM      1  O   UNL     1     -39.470 108.404   4.647  0.00  0.00    +0.000 OA
ATOM      2  O   UNL     1     -42.290 105.069   1.958  0.00  0.00    +0.000 OA
ATOM      3  O   UNL     1     -41.790 101.089   4.571  0.00  0.00    +0.000 OA
ATOM      4  O   UNL     1     -35.490 106.779   6.998  0.00  0.00    +0.000 OA
ATOM      5  O   UNL     1     -45.313 104.728   4.845  0.00  0.00    +0.000 OA
ATOM      6  O   UNL     1     -44.210 104.071  16.046  0.00  0.00    +0.000 OA
ATOM      7  O   UNL     1     -38.788 110.449   9.595  0.00  0.00    +0.000 OA
ATOM      8  O   UNL     1     -39.396 104.556  15.118  0.00  0.00    +0.000 OA
ATOM      9  O   UNL     1     -47.145 102.635  12.468  0.00  0.00    +0.000 OA
ATOM     10  O   UNL     1     -38.164 107.987  13.227  0.00  0.00    +0.000 OA
ATOM     11  O   UNL     1     -46.726 105.073   8.934  0.00  0.00    +0.000 OA
ATOM     12  N   UNL     1     -41.036 105.619   3.328  0.00  0.00    +0.000 NA
ATOM     13  N   UNL     1     -38.845 106.221   5.441  0.00  0.00    +0.000 NA
ATOM     14  N   UNL     1     -42.249 102.622   3.397  0.00  0.00    +0.000 NA
ATOM     15  N   UNL     1     -44.436 102.446   5.699  0.00  0.00    +0.000 NA
ATOM     16  N   UNL     1     -37.625 107.151   8.117  0.00  0.00    +0.000 NA
ATOM     17  N   UNL     1     -43.791 102.522  14.323  0.00  0.00    +0.000 N 
ATOM     18  N   UNL     1     -41.381 104.428  13.885  0.00  0.00    +0.000 N 
ATOM     19  N   UNL     1     -39.590 106.625  13.250  0.00  0.00    +0.000 NA
ATOM     20  N   UNL     1     -39.717 108.403   9.951  0.00  0.00    +0.000 NA
ATOM     21  N   UNL     1     -44.600 103.991   8.244  0.00  0.00    +0.000 NA
ATOM     22  N   UNL     1     -45.074 103.625  11.718  0.00  0.00    +0.000 NA
ATOM     23  C   UNL     1     -40.840 106.828   3.928  0.00  0.00    +0.000 C 
ATOM     24  C   UNL     1     -41.466 103.619   3.819  0.00  0.00    +0.000 C 
ATOM     25  C   UNL     1     -37.519 106.511   5.697  0.00  0.00    +0.000 C 
ATOM     26  C   UNL     1     -41.254 108.028   3.378  0.00  0.00    +0.000 C 
ATOM     27  C   UNL     1     -40.188 102.872   3.783  0.00  0.00    +0.000 C 
ATOM     28  C   UNL     1     -39.720 107.030   4.708  0.00  0.00    +0.000 C 
ATOM     29  C   UNL     1     -42.011 104.656   3.141  0.00  0.00    +0.000 C 
ATOM     30  C   UNL     1     -43.978 102.229   4.497  0.00  0.00    +0.000 C 
ATOM     31  C   UNL     1     -42.624 102.085   4.562  0.00  0.00    +0.000 C 
ATOM     32  C   UNL     1     -36.909 106.548   7.060  0.00  0.00    +0.000 C 
ATOM     33  C   UNL     1     -41.728 107.573   2.109  0.00  0.00    +0.000 C 
ATOM     34  C   UNL     1     -40.298 108.940   3.680  0.00  0.00    +0.000 C 
ATOM     35  C   UNL     1     -41.678 106.194   2.246  0.00  0.00    +0.000 C 
ATOM     36  C   UNL     1     -41.259 101.603   3.367  0.00  0.00    +0.000 C 
ATOM     37  C   UNL     1     -37.570 108.525   8.463  0.00  0.00    +0.000 C 
ATOM     38  C   UNL     1     -42.326 104.501  14.875  0.00  0.00    +0.000 A 
ATOM     39  C   UNL     1     -44.567 103.762   5.571  0.00  0.00    +0.000 C 
ATOM     40  C   UNL     1     -45.095 102.427  13.774  0.00  0.00    +0.000 C 
ATOM     41  C   UNL     1     -39.123 105.354  13.297  0.00  0.00    +0.000 C 
ATOM     42  C   UNL     1     -45.615 101.601   5.374  0.00  0.00    +0.000 C 
ATOM     43  C   UNL     1     -42.452 105.443  15.942  0.00  0.00    +0.000 A 
ATOM     44  C   UNL     1     -45.800 101.226  14.933  0.00  0.00    +0.000 C 
ATOM     45  C   UNL     1     -44.720 104.238   6.976  0.00  0.00    +0.000 C 
ATOM     46  C   UNL     1     -38.313 105.304  14.564  0.00  0.00    +0.000 C 
ATOM     47  C   UNL     1     -36.487 109.224   7.852  0.00  0.00    +0.000 C 
ATOM     48  C   UNL     1     -43.425 103.657  14.997  0.00  0.00    +0.000 A 
ATOM     49  C   UNL     1     -38.542 109.076   9.233  0.00  0.00    +0.000 C 
ATOM     50  C   UNL     1     -40.113 104.735  14.043  0.00  0.00    +0.000 C 
ATOM     51  C   UNL     1     -45.772 102.933  12.689  0.00  0.00    +0.000 C 
ATOM     52  C   UNL     1     -39.236 107.658  11.117  0.00  0.00    +0.000 C 
ATOM     53  C   UNL     1     -41.593 106.638  16.260  0.00  0.00    +0.000 C 
ATOM     54  C   UNL     1     -43.608 105.149  16.619  0.00  0.00    +0.000 A 
ATOM     55  C   UNL     1     -38.711 107.100  12.312  0.00  0.00    +0.000 C 
ATOM     56  C   UNL     1     -45.588 104.143  10.650  0.00  0.00    +0.000 C 
ATOM     57  C   UNL     1     -45.345 105.035   6.056  0.00  0.00    +0.000 C 
ATOM     58  C   UNL     1     -44.492 101.622  15.049  0.00  0.00    +0.000 C 
ATOM     59  C   UNL     1     -35.578 109.102   7.080  0.00  0.00    +0.000 C 
ATOM     60  C   UNL     1     -45.478 104.380   9.157  0.00  0.00    +0.000 C 
ATOM     61  C   UNL     1     -38.705 107.261  14.375  0.00  0.00    +0.000 C 
ATOM     62  C   UNL     1     -39.656 109.715  10.083  0.00  0.00    +0.000 C 
ATOM     63  C   UNL     1     -46.670 104.779  10.140  0.00  0.00    +0.000 C 
ATOM     64  H   UNL     1     -38.598 106.847   8.125  0.00  0.00    +0.000 HD
ATOM     65  H   UNL     1     -41.733 104.343  12.934  0.00  0.00    +0.000 HD
ATOM     66  H   UNL     1     -43.944 103.263   8.515  0.00  0.00    +0.000 HD
ATOM     67  H   UNL     1     -44.090 103.373  11.726  0.00  0.00    +0.000 HD
ATOM     68  C   UNL     1     -36.761 107.147   4.847  0.00  0.00    +0.000 C 
ATOM     69  C   UNL     1     -35.569 107.923   4.905  0.00  0.00    +0.000 C 
ATOM     70  C   UNL     1     -35.114 107.988   6.308  0.00  0.00    +0.000 C 
ATOM     71  C   UNL     1     -39.013 102.426   2.679  0.00  0.00    +0.000 C 
ATOM     72  C   UNL     1     -37.702 102.351   2.900  0.00  0.00    +0.000 C 
ATOM     73  C   UNL     1     -40.076 101.521   2.744  0.00  0.00    +0.000 C 
ATOM     74  C   UNL     1     -45.035 101.286   4.106  0.00  0.00    +0.000 C 
ATOM     75  C   UNL     1     -46.421 101.354   4.134  0.00  0.00    +0.000 C 
ATOM     76  C   UNL     1     -47.292 100.101   3.905  0.00  0.00    +0.000 C 
ATOM     77  C   UNL     1     -46.892 102.099   5.198  0.00  0.00    +0.000 C 
ATOM     78  C   UNL     1     -36.876 105.637  15.187  0.00  0.00    +0.000 C 
ATOM     79  C   UNL     1     -36.142 105.132  16.174  0.00  0.00    +0.000 C 
ATOM     80  C   UNL     1     -37.548 106.841  14.970  0.00  0.00    +0.000 C 
ATOM     81  C   UNL     1     -47.071 101.047  14.565  0.00  0.00    +0.000 C 
ATOM     82  C   UNL     1     -47.984 100.111  15.285  0.00  0.00    +0.000 C 
ATOM     83  C   UNL     1     -47.493 101.779  13.429  0.00  0.00    +0.000 C 
ENDROOT
BRANCH  69  84
ATOM     84  C   UNL     1     -35.112 108.823   3.913  0.00  0.00    +0.000 C 
ATOM     85  C   UNL     1     -34.717 109.582   3.071  0.00  0.00    +0.000 C 
BRANCH  85  86
ATOM     86  C   UNL     1     -34.209 110.549   1.996  0.00  0.00    +0.000 C 
ATOM     87  C   UNL     1     -33.762 111.389   1.064  0.00  0.00    +0.000 C 
ENDBRANCH  85  86
ENDBRANCH  69  84
BRANCH  13  88
ATOM     88  C   UNL     1     -39.445 105.146   6.214  0.00  0.00    +0.000 C 
BRANCH  88  89
ATOM     89  O   UNL     1     -39.992 104.179   6.939  0.00  0.00    +0.000 OA
ATOM     90  H   UNL     1     -40.932 104.080   6.706  0.00  0.00    +0.000 HD
ENDBRANCH  88  89
ENDBRANCH  13  88
TORSDOF 4
ENDMDL
MODEL 6
REMARK VINA RESULT:      -8.5     21.256     25.651
REMARK  Name = Cyclosporin_A.pdbqt.pdb
REMARK  4 active torsions:
REMARK  status: ('A' for Active; 'I' for Inactive)
REMARK    1  A    between atoms: N_13  and  C_36
REMARK    2  A    between atoms: C_36  and  O_70
REMARK    3  A    between atoms: C_72  and  C_73
REMARK    4  A    between atoms: C_75  and  C_76
REMARK                            x       y       z     vdW  Elec       q    Type
REMARK                         _______ _______ _______ _____ _____    ______ ____
ROOT
ATOM      1  O   UNL     1     -18.758  85.482   5.679  0.00  0.00    +0.000 OA
ATOM      2  O   UNL     1     -14.935  88.332   7.569  0.00  0.00    +0.000 OA
ATOM      3  O   UNL     1     -17.324  91.337  10.430  0.00  0.00    +0.000 OA
ATOM      4  O   UNL     1     -23.125  87.576   4.937  0.00  0.00    +0.000 OA
ATOM      5  O   UNL     1     -15.246  86.829  11.472  0.00  0.00    +0.000 OA
ATOM      6  O   UNL     1     -24.600  84.587  17.352  0.00  0.00    +0.000 OA
ATOM      7  O   UNL     1     -22.982  82.451   7.129  0.00  0.00    +0.000 OA
ATOM      8  O   UNL     1     -26.938  85.987  13.249  0.00  0.00    +0.000 OA
ATOM      9  O   UNL     1     -19.992  85.941  17.993  0.00  0.00    +0.000 OA
ATOM     10  O   UNL     1     -26.215  83.837   9.825  0.00  0.00    +0.000 OA
ATOM     11  O   UNL     1     -17.498  84.890  14.634  0.00  0.00    +0.000 OA
ATOM     12  N   UNL     1     -16.782  87.856   7.232  0.00  0.00    +0.000 NA
ATOM     13  N   UNL     1     -19.798  87.426   6.641  0.00  0.00    +0.000 NA
ATOM     14  N   UNL     1     -16.106  90.140   9.419  0.00  0.00    +0.000 NA
ATOM     15  N   UNL     1     -16.493  88.928  12.333  0.00  0.00    +0.000 NA
ATOM     16  N   UNL     1     -22.626  86.224   6.905  0.00  0.00    +0.000 NA
ATOM     17  N   UNL     1     -23.557  86.611  16.751  0.00  0.00    +0.000 N 
ATOM     18  N   UNL     1     -24.726  85.806  13.991  0.00  0.00    +0.000 N 
ATOM     19  N   UNL     1     -25.345  84.592  11.425  0.00  0.00    +0.000 NA
ATOM     20  N   UNL     1     -22.694  83.889   8.868  0.00  0.00    +0.000 NA
ATOM     21  N   UNL     1     -18.332  86.756  13.225  0.00  0.00    +0.000 NA
ATOM     22  N   UNL     1     -20.717  85.941  15.689  0.00  0.00    +0.000 NA
ATOM     23  C   UNL     1     -17.354  86.659   6.912  0.00  0.00    +0.000 C 
ATOM     24  C   UNL     1     -16.915  89.378   8.679  0.00  0.00    +0.000 C 
ATOM     25  C   UNL     1     -20.834  87.525   5.733  0.00  0.00    +0.000 C 
ATOM     26  C   UNL     1     -16.650  85.600   6.369  0.00  0.00    +0.000 C 
ATOM     27  C   UNL     1     -17.710  90.478   8.089  0.00  0.00    +0.000 C 
ATOM     28  C   UNL     1     -18.665  86.621   6.485  0.00  0.00    +0.000 C 
ATOM     29  C   UNL     1     -16.031  88.458   8.225  0.00  0.00    +0.000 C 
ATOM     30  C   UNL     1     -15.860  89.615  11.423  0.00  0.00    +0.000 C 
ATOM     31  C   UNL     1     -16.773  90.169  10.576  0.00  0.00    +0.000 C 
ATOM     32  C   UNL     1     -22.274  87.303   6.065  0.00  0.00    +0.000 C 
ATOM     33  C   UNL     1     -15.376  86.217   6.176  0.00  0.00    +0.000 C 
ATOM     34  C   UNL     1     -17.478  85.004   5.476  0.00  0.00    +0.000 C 
ATOM     35  C   UNL     1     -15.532  87.437   6.817  0.00  0.00    +0.000 C 
ATOM     36  C   UNL     1     -16.725  91.391   9.151  0.00  0.00    +0.000 C 
ATOM     37  C   UNL     1     -22.909  84.906   6.469  0.00  0.00    +0.000 C 
ATOM     38  C   UNL     1     -24.888  85.149  15.183  0.00  0.00    +0.000 A 
ATOM     39  C   UNL     1     -16.294  87.735  11.781  0.00  0.00    +0.000 C 
ATOM     40  C   UNL     1     -22.306  86.427  17.392  0.00  0.00    +0.000 C 
ATOM     41  C   UNL     1     -25.696  85.877  11.677  0.00  0.00    +0.000 C 
ATOM     42  C   UNL     1     -15.505  89.397  13.339  0.00  0.00    +0.000 C 
ATOM     43  C   UNL     1     -25.619  83.955  15.469  0.00  0.00    +0.000 A 
ATOM     44  C   UNL     1     -22.769  86.948  19.065  0.00  0.00    +0.000 C 
ATOM     45  C   UNL     1     -17.274  86.856  12.481  0.00  0.00    +0.000 C 
ATOM     46  C   UNL     1     -27.189  85.825  11.852  0.00  0.00    +0.000 C 
ATOM     47  C   UNL     1     -23.117  84.804   5.060  0.00  0.00    +0.000 C 
ATOM     48  C   UNL     1     -24.295  85.516  16.386  0.00  0.00    +0.000 A 
ATOM     49  C   UNL     1     -22.878  83.872   7.346  0.00  0.00    +0.000 C 
ATOM     50  C   UNL     1     -25.650  85.898  13.061  0.00  0.00    +0.000 C 
ATOM     51  C   UNL     1     -21.032  86.059  17.030  0.00  0.00    +0.000 C 
ATOM     52  C   UNL     1     -23.910  84.386   9.517  0.00  0.00    +0.000 C 
ATOM     53  C   UNL     1     -26.393  83.068  14.531  0.00  0.00    +0.000 C 
ATOM     54  C   UNL     1     -25.410  83.649  16.790  0.00  0.00    +0.000 A 
ATOM     55  C   UNL     1     -25.173  84.719  10.072  0.00  0.00    +0.000 C 
ATOM     56  C   UNL     1     -19.559  85.610  15.217  0.00  0.00    +0.000 C 
ATOM     57  C   UNL     1     -16.156  86.196  12.049  0.00  0.00    +0.000 C 
ATOM     58  C   UNL     1     -23.684  86.986  18.044  0.00  0.00    +0.000 C 
ATOM     59  C   UNL     1     -23.101  85.431   4.039  0.00  0.00    +0.000 C 
ATOM     60  C   UNL     1     -18.473  85.858  14.189  0.00  0.00    +0.000 C 
ATOM     61  C   UNL     1     -26.767  83.987  11.170  0.00  0.00    +0.000 C 
ATOM     62  C   UNL     1     -22.816  82.690   8.331  0.00  0.00    +0.000 C 
ATOM     63  C   UNL     1     -18.468  84.829  15.408  0.00  0.00    +0.000 C 
ATOM     64  H   UNL     1     -22.017  86.178   7.722  0.00  0.00    +0.000 HD
ATOM     65  H   UNL     1     -23.769  86.039  13.734  0.00  0.00    +0.000 HD
ATOM     66  H   UNL     1     -18.968  87.550  13.236  0.00  0.00    +0.000 HD
ATOM     67  H   UNL     1     -21.352  86.487  15.115  0.00  0.00    +0.000 HD
ATOM     68  C   UNL     1     -20.652  87.443   4.444  0.00  0.00    +0.000 C 
ATOM     69  C   UNL     1     -21.443  87.117   3.307  0.00  0.00    +0.000 C 
ATOM     70  C   UNL     1     -22.815  86.807   3.759  0.00  0.00    +0.000 C 
ATOM     71  C   UNL     1     -17.611  91.579   6.832  0.00  0.00    +0.000 C 
ATOM     72  C   UNL     1     -18.617  92.012   6.074  0.00  0.00    +0.000 C 
ATOM     73  C   UNL     1     -16.998  92.028   8.005  0.00  0.00    +0.000 C 
ATOM     74  C   UNL     1     -14.900  90.231  12.349  0.00  0.00    +0.000 C 
ATOM     75  C   UNL     1     -14.038  89.709  13.304  0.00  0.00    +0.000 C 
ATOM     76  C   UNL     1     -13.325  90.619  14.327  0.00  0.00    +0.000 C 
ATOM     77  C   UNL     1     -14.550  88.581  13.916  0.00  0.00    +0.000 C 
ATOM     78  C   UNL     1     -28.579  85.817  11.057  0.00  0.00    +0.000 C 
ATOM     79  C   UNL     1     -29.814  86.231  11.324  0.00  0.00    +0.000 C 
ATOM     80  C   UNL     1     -27.968  84.575  10.881  0.00  0.00    +0.000 C 
ATOM     81  C   UNL     1     -21.679  86.799  19.822  0.00  0.00    +0.000 C 
ATOM     82  C   UNL     1     -21.666  87.139  21.275  0.00  0.00    +0.000 C 
ATOM     83  C   UNL     1     -20.524  86.326  19.153  0.00  0.00    +0.000 C 
ENDROOT
BRANCH  69  84
ATOM     84  C   UNL     1     -20.957  86.738   2.034  0.00  0.00    +0.000 C 
ATOM     85  C   UNL     1     -20.550  86.421   0.949  0.00  0.00    +0.000 C 
BRANCH  85  86
ATOM     86  C   UNL     1     -20.035  86.017  -0.436  0.00  0.00    +0.000 C 
ATOM     87  C   UNL     1     -19.585  85.671  -1.641  0.00  0.00    +0.000 C 
ENDBRANCH  85  86
ENDBRANCH  69  84
BRANCH  13  88
ATOM     88  C   UNL     1     -20.028  87.979   7.965  0.00  0.00    +0.000 C 
BRANCH  88  89
ATOM     89  O   UNL     1     -20.215  88.476   9.181  0.00  0.00    +0.000 OA
ATOM     90  H   UNL     1     -20.513  89.401   9.120  0.00  0.00    +0.000 HD
ENDBRANCH  88  89
ENDBRANCH  13  88
TORSDOF 4
ENDMDL
MODEL 7
REMARK VINA RESULT:      -8.5     14.762     21.858
REMARK  Name = Cyclosporin_A.pdbqt.pdb
REMARK  4 active torsions:
REMARK  status: ('A' for Active; 'I' for Inactive)
REMARK    1  A    between atoms: N_13  and  C_36
REMARK    2  A    between atoms: C_36  and  O_70
REMARK    3  A    between atoms: C_72  and  C_73
REMARK    4  A    between atoms: C_75  and  C_76
REMARK                            x       y       z     vdW  Elec       q    Type
REMARK                         _______ _______ _______ _____ _____    ______ ____
ROOT
ATOM      1  O   UNL     1     -52.179 103.059  11.921  0.00  0.00    +0.000 OA
ATOM      2  O   UNL     1     -47.933 105.146  13.903  0.00  0.00    +0.000 OA
ATOM      3  O   UNL     1     -44.569 102.138  12.308  0.00  0.00    +0.000 OA
ATOM      4  O   UNL     1     -52.420  98.188  11.449  0.00  0.00    +0.000 OA
ATOM      5  O   UNL     1     -46.374 106.390  10.213  0.00  0.00    +0.000 OA
ATOM      6  O   UNL     1     -46.368 100.814   0.415  0.00  0.00    +0.000 OA
ATOM      7  O   UNL     1     -54.373 101.354   7.295  0.00  0.00    +0.000 OA
ATOM      8  O   UNL     1     -48.838  97.369   2.925  0.00  0.00    +0.000 OA
ATOM      9  O   UNL     1     -43.785 104.094   2.874  0.00  0.00    +0.000 OA
ATOM     10  O   UNL     1     -52.448  98.439   4.567  0.00  0.00    +0.000 OA
ATOM     11  O   UNL     1     -46.132 106.093   5.891  0.00  0.00    +0.000 OA
ATOM     12  N   UNL     1     -48.978 103.783  13.009  0.00  0.00    +0.000 NA
ATOM     13  N   UNL     1     -50.475 101.369  11.759  0.00  0.00    +0.000 NA
ATOM     14  N   UNL     1     -45.750 103.584  12.980  0.00  0.00    +0.000 NA
ATOM     15  N   UNL     1     -44.688 104.428  10.104  0.00  0.00    +0.000 NA
ATOM     16  N   UNL     1     -51.863  99.669   9.592  0.00  0.00    +0.000 NA
ATOM     17  N   UNL     1     -45.125 100.533   2.395  0.00  0.00    +0.000 N 
ATOM     18  N   UNL     1     -47.867  99.453   3.365  0.00  0.00    +0.000 N 
ATOM     19  N   UNL     1     -50.609  99.079   4.247  0.00  0.00    +0.000 NA
ATOM     20  N   UNL     1     -52.131 101.180   6.955  0.00  0.00    +0.000 NA
ATOM     21  N   UNL     1     -46.046 104.172   7.461  0.00  0.00    +0.000 NA
ATOM     22  N   UNL     1     -45.551 103.056   4.154  0.00  0.00    +0.000 NA
ATOM     23  C   UNL     1     -50.163 103.860  12.337  0.00  0.00    +0.000 C 
ATOM     24  C   UNL     1     -46.990 103.159  12.717  0.00  0.00    +0.000 C 
ATOM     25  C   UNL     1     -51.302 100.281  11.956  0.00  0.00    +0.000 C 
ATOM     26  C   UNL     1     -51.068 104.893  12.504  0.00  0.00    +0.000 C 
ATOM     27  C   UNL     1     -46.854 101.818  13.328  0.00  0.00    +0.000 C 
ATOM     28  C   UNL     1     -50.829 102.702  11.991  0.00  0.00    +0.000 C 
ATOM     29  C   UNL     1     -47.690 104.287  12.981  0.00  0.00    +0.000 C 
ATOM     30  C   UNL     1     -44.674 104.434  11.408  0.00  0.00    +0.000 C 
ATOM     31  C   UNL     1     -45.118 103.226  11.859  0.00  0.00    +0.000 C 
ATOM     32  C   UNL     1     -51.610  99.252  10.917  0.00  0.00    +0.000 C 
ATOM     33  C   UNL     1     -50.441 105.605  13.572  0.00  0.00    +0.000 C 
ATOM     34  C   UNL     1     -52.302 104.338  12.428  0.00  0.00    +0.000 C 
ATOM     35  C   UNL     1     -49.215 104.967  13.682  0.00  0.00    +0.000 C 
ATOM     36  C   UNL     1     -45.246 102.371  13.525  0.00  0.00    +0.000 C 
ATOM     37  C   UNL     1     -53.134 100.029   9.077  0.00  0.00    +0.000 C 
ATOM     38  C   UNL     1     -47.544  99.878   2.102  0.00  0.00    +0.000 A 
ATOM     39  C   UNL     1     -45.824 105.104   9.967  0.00  0.00    +0.000 C 
ATOM     40  C   UNL     1     -44.480 101.795   2.444  0.00  0.00    +0.000 C 
ATOM     41  C   UNL     1     -49.657  98.172   4.572  0.00  0.00    +0.000 C 
ATOM     42  C   UNL     1     -43.420 105.202  10.112  0.00  0.00    +0.000 C 
ATOM     43  C   UNL     1     -48.355  99.934   0.928  0.00  0.00    +0.000 A 
ATOM     44  C   UNL     1     -43.106 101.453   1.314  0.00  0.00    +0.000 C 
ATOM     45  C   UNL     1     -46.205 104.867   8.545  0.00  0.00    +0.000 C 
ATOM     46  C   UNL     1     -49.969  96.981   3.707  0.00  0.00    +0.000 C 
ATOM     47  C   UNL     1     -54.220  99.644   9.919  0.00  0.00    +0.000 C 
ATOM     48  C   UNL     1     -46.314 100.411   1.728  0.00  0.00    +0.000 A 
ATOM     49  C   UNL     1     -53.230 100.751   7.932  0.00  0.00    +0.000 C 
ATOM     50  C   UNL     1     -48.685  98.458   3.627  0.00  0.00    +0.000 C 
ATOM     51  C   UNL     1     -44.639 102.983   3.118  0.00  0.00    +0.000 C 
ATOM     52  C   UNL     1     -51.672 100.029   6.174  0.00  0.00    +0.000 C 
ATOM     53  C   UNL     1     -49.805  99.566   0.757  0.00  0.00    +0.000 C 
ATOM     54  C   UNL     1     -47.606 100.513  -0.064  0.00  0.00    +0.000 A 
ATOM     55  C   UNL     1     -51.402  98.904   5.352  0.00  0.00    +0.000 C 
ATOM     56  C   UNL     1     -45.791 104.107   4.869  0.00  0.00    +0.000 C 
ATOM     57  C   UNL     1     -46.652 106.062   9.040  0.00  0.00    +0.000 C 
ATOM     58  C   UNL     1     -44.020 100.476   1.616  0.00  0.00    +0.000 C 
ATOM     59  C   UNL     1     -54.487  99.144  10.975  0.00  0.00    +0.000 C 
ATOM     60  C   UNL     1     -46.036 104.697   6.245  0.00  0.00    +0.000 C 
ATOM     61  C   UNL     1     -51.573  98.152   3.431  0.00  0.00    +0.000 C 
ATOM     62  C   UNL     1     -53.346 101.595   6.649  0.00  0.00    +0.000 C 
ATOM     63  C   UNL     1     -45.903 105.458   4.848  0.00  0.00    +0.000 C 
ATOM     64  H   UNL     1     -51.175 100.356   9.282  0.00  0.00    +0.000 HD
ATOM     65  H   UNL     1     -47.631 100.085   4.126  0.00  0.00    +0.000 HD
ATOM     66  H   UNL     1     -45.667 103.234   7.563  0.00  0.00    +0.000 HD
ATOM     67  H   UNL     1     -45.740 102.137   4.541  0.00  0.00    +0.000 HD
ATOM     68  C   UNL     1     -52.191 100.235  12.911  0.00  0.00    +0.000 C 
ATOM     69  C   UNL     1     -53.399  99.527  13.164  0.00  0.00    +0.000 C 
ATOM     70  C   UNL     1     -53.666  98.623  12.028  0.00  0.00    +0.000 C 
ATOM     71  C   UNL     1     -46.937 101.100  14.837  0.00  0.00    +0.000 C 
ATOM     72  C   UNL     1     -47.427  99.893  15.118  0.00  0.00    +0.000 C 
ATOM     73  C   UNL     1     -45.667 101.601  14.537  0.00  0.00    +0.000 C 
ATOM     74  C   UNL     1     -43.367 105.094  11.535  0.00  0.00    +0.000 C 
ATOM     75  C   UNL     1     -42.842 106.262  11.000  0.00  0.00    +0.000 C 
ATOM     76  C   UNL     1     -41.335 106.583  11.094  0.00  0.00    +0.000 C 
ATOM     77  C   UNL     1     -43.328 106.529   9.735  0.00  0.00    +0.000 C 
ATOM     78  C   UNL     1     -50.886  95.673   3.599  0.00  0.00    +0.000 C 
ATOM     79  C   UNL     1     -50.750  94.476   3.036  0.00  0.00    +0.000 C 
ATOM     80  C   UNL     1     -51.690  96.791   3.367  0.00  0.00    +0.000 C 
ATOM     81  C   UNL     1     -42.401 102.583   1.223  0.00  0.00    +0.000 C 
ATOM     82  C   UNL     1     -41.174 102.691   0.380  0.00  0.00    +0.000 C 
ATOM     83  C   UNL     1     -42.873 103.668   2.001  0.00  0.00    +0.000 C 
ENDROOT
BRANCH  69  84
ATOM     84  C   UNL     1     -54.397  99.891  14.099  0.00  0.00    +0.000 C 
ATOM     85  C   UNL     1     -55.247 100.206  14.887  0.00  0.00    +0.000 C 
BRANCH  85  86
ATOM     86  C   UNL     1     -56.331 100.612  15.891  0.00  0.00    +0.000 C 
ATOM     87  C   UNL     1     -57.276 100.968  16.759  0.00  0.00    +0.000 C 
ENDBRANCH  85  86
ENDBRANCH  69  84
BRANCH  13  88
ATOM     88  C   UNL     1     -49.255 101.140  11.002  0.00  0.00    +0.000 C 
BRANCH  88  89
ATOM     89  O   UNL     1     -48.151 100.946  10.294  0.00  0.00    +0.000 OA
ATOM     90  H   UNL     1     -48.343 101.045   9.344  0.00  0.00    +0.000 HD
ENDBRANCH  88  89
ENDBRANCH  13  88
TORSDOF 4
ENDMDL
MODEL 8
REMARK VINA RESULT:      -8.4     20.276     24.997
REMARK  Name = Cyclosporin_A.pdbqt.pdb
REMARK  4 active torsions:
REMARK  status: ('A' for Active; 'I' for Inactive)
REMARK    1  A    between atoms: N_13  and  C_36
REMARK    2  A    between atoms: C_36  and  O_70
REMARK    3  A    between atoms: C_72  and  C_73
REMARK    4  A    between atoms: C_75  and  C_76
REMARK                            x       y       z     vdW  Elec       q    Type
REMARK                         _______ _______ _______ _____ _____    ______ ____
ROOT
ATOM      1  O   UNL     1     -14.237  89.109   1.617  0.00  0.00    +0.000 OA
ATOM      2  O   UNL     1     -16.954  87.051   5.450  0.00  0.00    +0.000 OA
ATOM      3  O   UNL     1     -21.306  88.851   4.595  0.00  0.00    +0.000 OA
ATOM      4  O   UNL     1     -15.425  93.585   0.015  0.00  0.00    +0.000 OA
ATOM      5  O   UNL     1     -19.215  84.520   2.985  0.00  0.00    +0.000 OA
ATOM      6  O   UNL     1     -23.738  86.819  -7.083  0.00  0.00    +0.000 OA
ATOM      7  O   UNL     1     -14.125  89.681  -3.748  0.00  0.00    +0.000 OA
ATOM      8  O   UNL     1     -21.585  91.213  -6.511  0.00  0.00    +0.000 OA
ATOM      9  O   UNL     1     -24.477  84.053  -3.173  0.00  0.00    +0.000 OA
ATOM     10  O   UNL     1     -17.495  91.288  -6.138  0.00  0.00    +0.000 OA
ATOM     11  O   UNL     1     -20.869  83.462  -0.885  0.00  0.00    +0.000 OA
ATOM     12  N   UNL     1     -16.633  88.234   3.951  0.00  0.00    +0.000 NA
ATOM     13  N   UNL     1     -16.282  90.371   1.729  0.00  0.00    +0.000 NA
ATOM     14  N   UNL     1     -19.642  87.887   5.083  0.00  0.00    +0.000 NA
ATOM     15  N   UNL     1     -21.297  86.057   3.077  0.00  0.00    +0.000 NA
ATOM     16  N   UNL     1     -16.133  91.545  -1.119  0.00  0.00    +0.000 NA
ATOM     17  N   UNL     1     -24.325  87.474  -4.899  0.00  0.00    +0.000 N 
ATOM     18  N   UNL     1     -21.795  89.228  -5.288  0.00  0.00    +0.000 N 
ATOM     19  N   UNL     1     -19.109  90.291  -5.598  0.00  0.00    +0.000 NA
ATOM     20  N   UNL     1     -16.326  89.377  -3.257  0.00  0.00    +0.000 NA
ATOM     21  N   UNL     1     -20.952  85.725   0.133  0.00  0.00    +0.000 NA
ATOM     22  N   UNL     1     -22.731  85.700  -2.910  0.00  0.00    +0.000 NA
ATOM     23  C   UNL     1     -15.741  88.153   2.921  0.00  0.00    +0.000 C 
ATOM     24  C   UNL     1     -18.702  88.408   4.290  0.00  0.00    +0.000 C 
ATOM     25  C   UNL     1     -15.746  91.588   1.355  0.00  0.00    +0.000 C 
ATOM     26  C   UNL     1     -14.595  87.380   2.965  0.00  0.00    +0.000 C 
ATOM     27  C   UNL     1     -18.981  89.831   4.592  0.00  0.00    +0.000 C 
ATOM     28  C   UNL     1     -15.541  89.246   2.104  0.00  0.00    +0.000 C 
ATOM     29  C   UNL     1     -17.687  87.542   4.518  0.00  0.00    +0.000 C 
ATOM     30  C   UNL     1     -20.899  86.440   4.258  0.00  0.00    +0.000 C 
ATOM     31  C   UNL     1     -20.664  87.783   4.229  0.00  0.00    +0.000 C 
ATOM     32  C   UNL     1     -16.057  92.293   0.075  0.00  0.00    +0.000 C 
ATOM     33  C   UNL     1     -14.648  86.928   4.320  0.00  0.00    +0.000 C 
ATOM     34  C   UNL     1     -13.635  88.079   2.313  0.00  0.00    +0.000 C 
ATOM     35  C   UNL     1     -15.899  87.361   4.733  0.00  0.00    +0.000 C 
ATOM     36  C   UNL     1     -20.245  89.107   5.492  0.00  0.00    +0.000 C 
ATOM     37  C   UNL     1     -15.041  91.259  -1.977  0.00  0.00    +0.000 C 
ATOM     38  C   UNL     1     -22.376  88.396  -6.210  0.00  0.00    +0.000 A 
ATOM     39  C   UNL     1     -20.127  85.565   2.681  0.00  0.00    +0.000 C 
ATOM     40  C   UNL     1     -24.572  86.198  -4.332  0.00  0.00    +0.000 C 
ATOM     41  C   UNL     1     -20.112  91.086  -5.153  0.00  0.00    +0.000 C 
ATOM     42  C   UNL     1     -22.252  85.125   3.729  0.00  0.00    +0.000 C 
ATOM     43  C   UNL     1     -21.989  88.123  -7.558  0.00  0.00    +0.000 A 
ATOM     44  C   UNL     1     -26.271  85.957  -4.915  0.00  0.00    +0.000 C 
ATOM     45  C   UNL     1     -20.287  85.423   1.205  0.00  0.00    +0.000 C 
ATOM     46  C   UNL     1     -20.406  91.996  -6.315  0.00  0.00    +0.000 C 
ATOM     47  C   UNL     1     -13.884  92.051  -1.709  0.00  0.00    +0.000 C 
ATOM     48  C   UNL     1     -23.479  87.583  -5.970  0.00  0.00    +0.000 A 
ATOM     49  C   UNL     1     -15.126  90.252  -2.882  0.00  0.00    +0.000 C 
ATOM     50  C   UNL     1     -21.223  90.375  -5.578  0.00  0.00    +0.000 C 
ATOM     51  C   UNL     1     -23.908  85.310  -3.520  0.00  0.00    +0.000 C 
ATOM     52  C   UNL     1     -17.288  90.149  -4.047  0.00  0.00    +0.000 C 
ATOM     53  C   UNL     1     -20.814  88.654  -8.334  0.00  0.00    +0.000 C 
ATOM     54  C   UNL     1     -22.835  87.160  -8.043  0.00  0.00    +0.000 A 
ATOM     55  C   UNL     1     -18.084  90.916  -4.938  0.00  0.00    +0.000 C 
ATOM     56  C   UNL     1     -22.015  84.966  -2.121  0.00  0.00    +0.000 C 
ATOM     57  C   UNL     1     -19.414  84.521   1.751  0.00  0.00    +0.000 C 
ATOM     58  C   UNL     1     -25.594  87.114  -5.201  0.00  0.00    +0.000 C 
ATOM     59  C   UNL     1     -13.439  92.881  -0.969  0.00  0.00    +0.000 C 
ATOM     60  C   UNL     1     -21.207  84.865  -0.842  0.00  0.00    +0.000 C 
ATOM     61  C   UNL     1     -18.725  91.074  -6.900  0.00  0.00    +0.000 C 
ATOM     62  C   UNL     1     -15.205  89.093  -3.893  0.00  0.00    +0.000 C 
ATOM     63  C   UNL     1     -21.570  83.709  -1.880  0.00  0.00    +0.000 C 
ATOM     64  H   UNL     1     -16.682  90.694  -0.989  0.00  0.00    +0.000 HD
ATOM     65  H   UNL     1     -21.608  88.823  -4.374  0.00  0.00    +0.000 HD
ATOM     66  H   UNL     1     -21.508  86.576   0.157  0.00  0.00    +0.000 HD
ATOM     67  H   UNL     1     -22.675  86.712  -2.837  0.00  0.00    +0.000 HD
ATOM     68  C   UNL     1     -14.646  92.063   1.874  0.00  0.00    +0.000 C 
ATOM     69  C   UNL     1     -13.646  93.001   1.494  0.00  0.00    +0.000 C 
ATOM     70  C   UNL     1     -13.993  93.553   0.170  0.00  0.00    +0.000 C 
ATOM     71  C   UNL     1     -18.617  90.972   5.760  0.00  0.00    +0.000 C 
ATOM     72  C   UNL     1     -18.394  92.270   5.561  0.00  0.00    +0.000 C 
ATOM     73  C   UNL     1     -19.742  90.204   6.074  0.00  0.00    +0.000 C 
ATOM     74  C   UNL     1     -21.882  85.645   5.007  0.00  0.00    +0.000 C 
ATOM     75  C   UNL     1     -22.228  84.301   4.982  0.00  0.00    +0.000 C 
ATOM     76  C   UNL     1     -23.492  83.782   5.699  0.00  0.00    +0.000 C 
ATOM     77  C   UNL     1     -22.112  83.749   3.720  0.00  0.00    +0.000 C 
ATOM     78  C   UNL     1     -19.940  93.342  -7.045  0.00  0.00    +0.000 C 
ATOM     79  C   UNL     1     -20.551  94.276  -7.769  0.00  0.00    +0.000 C 
ATOM     80  C   UNL     1     -18.990  92.353  -7.304  0.00  0.00    +0.000 C 
ATOM     81  C   UNL     1     -26.651  84.752  -4.482  0.00  0.00    +0.000 C 
ATOM     82  C   UNL     1     -28.009  84.198  -4.760  0.00  0.00    +0.000 C 
ATOM     83  C   UNL     1     -25.695  84.042  -3.715  0.00  0.00    +0.000 C 
ENDROOT
BRANCH  69  84
ATOM     84  C   UNL     1     -12.347  93.102   2.045  0.00  0.00    +0.000 C 
ATOM     85  C   UNL     1     -11.241  93.183   2.507  0.00  0.00    +0.000 C 
BRANCH  85  86
ATOM     86  C   UNL     1      -9.829  93.281   3.095  0.00  0.00    +0.000 C 
ATOM     87  C   UNL     1      -8.600  93.367   3.600  0.00  0.00    +0.000 C 
ENDBRANCH  85  86
ENDBRANCH  69  84
BRANCH  13  88
ATOM     88  C   UNL     1     -17.693  90.161   1.451  0.00  0.00    +0.000 C 
BRANCH  88  89
ATOM     89  O   UNL     1     -18.977  89.976   1.173  0.00  0.00    +0.000 OA
ATOM     90  H   UNL     1     -19.505  90.028   1.990  0.00  0.00    +0.000 HD
ENDBRANCH  88  89
ENDBRANCH  13  88
TORSDOF 4
ENDMDL
MODEL 9
REMARK VINA RESULT:      -8.2     24.559     30.001
REMARK  Name = Cyclosporin_A.pdbqt.pdb
REMARK  4 active torsions:
REMARK  status: ('A' for Active; 'I' for Inactive)
REMARK    1  A    between atoms: N_13  and  C_36
REMARK    2  A    between atoms: C_36  and  O_70
REMARK    3  A    between atoms: C_72  and  C_73
REMARK    4  A    between atoms: C_75  and  C_76
REMARK                            x       y       z     vdW  Elec       q    Type
REMARK                         _______ _______ _______ _____ _____    ______ ____
ROOT
ATOM      1  O   UNL     1     -43.181  92.055  22.616  0.00  0.00    +0.000 OA
ATOM      2  O   UNL     1     -47.749  93.549  20.823  0.00  0.00    +0.000 OA
ATOM      3  O   UNL     1     -47.598  91.871  16.342  0.00  0.00    +0.000 OA
ATOM      4  O   UNL     1     -39.368  91.906  19.542  0.00  0.00    +0.000 OA
ATOM      5  O   UNL     1     -49.333  89.673  20.571  0.00  0.00    +0.000 OA
ATOM      6  O   UNL     1     -44.221  80.271  17.026  0.00  0.00    +0.000 OA
ATOM      7  O   UNL     1     -39.992  87.739  23.195  0.00  0.00    +0.000 OA
ATOM      8  O   UNL     1     -40.283  83.184  16.503  0.00  0.00    +0.000 OA
ATOM      9  O   UNL     1     -48.614  82.302  17.257  0.00  0.00    +0.000 OA
ATOM     10  O   UNL     1     -38.840  85.048  19.867  0.00  0.00    +0.000 OA
ATOM     11  O   UNL     1     -48.838  85.372  20.278  0.00  0.00    +0.000 OA
ATOM     12  N   UNL     1     -45.955  92.829  20.703  0.00  0.00    +0.000 NA
ATOM     13  N   UNL     1     -43.047  91.859  20.222  0.00  0.00    +0.000 NA
ATOM     14  N   UNL     1     -47.951  92.547  18.174  0.00  0.00    +0.000 NA
ATOM     15  N   UNL     1     -48.991  89.547  18.008  0.00  0.00    +0.000 NA
ATOM     16  N   UNL     1     -40.647  89.923  20.158  0.00  0.00    +0.000 NA
ATOM     17  N   UNL     1     -45.040  82.155  15.876  0.00  0.00    +0.000 N 
ATOM     18  N   UNL     1     -42.515  83.413  17.169  0.00  0.00    +0.000 N 
ATOM     19  N   UNL     1     -40.504  84.539  18.937  0.00  0.00    +0.000 NA
ATOM     20  N   UNL     1     -41.321  87.228  21.420  0.00  0.00    +0.000 NA
ATOM     21  N   UNL     1     -47.632  87.046  18.897  0.00  0.00    +0.000 NA
ATOM     22  N   UNL     1     -46.801  83.784  17.848  0.00  0.00    +0.000 NA
ATOM     23  C   UNL     1     -45.156  92.253  21.648  0.00  0.00    +0.000 C 
ATOM     24  C   UNL     1     -46.786  92.414  18.815  0.00  0.00    +0.000 C 
ATOM     25  C   UNL     1     -41.711  92.190  20.104  0.00  0.00    +0.000 C 
ATOM     26  C   UNL     1     -45.335  92.430  23.008  0.00  0.00    +0.000 C 
ATOM     27  C   UNL     1     -45.945  93.094  17.804  0.00  0.00    +0.000 C 
ATOM     28  C   UNL     1     -43.822  92.036  21.373  0.00  0.00    +0.000 C 
ATOM     29  C   UNL     1     -47.181  92.664  20.086  0.00  0.00    +0.000 C 
ATOM     30  C   UNL     1     -49.137  90.843  17.975  0.00  0.00    +0.000 C 
ATOM     31  C   UNL     1     -47.993  91.402  17.487  0.00  0.00    +0.000 C 
ATOM     32  C   UNL     1     -40.641  91.245  19.664  0.00  0.00    +0.000 C 
ATOM     33  C   UNL     1     -46.387  93.397  22.999  0.00  0.00    +0.000 C 
ATOM     34  C   UNL     1     -44.097  92.490  23.554  0.00  0.00    +0.000 C 
ATOM     35  C   UNL     1     -46.741  93.444  21.659  0.00  0.00    +0.000 C 
ATOM     36  C   UNL     1     -47.444  93.123  16.978  0.00  0.00    +0.000 C 
ATOM     37  C   UNL     1     -40.016  89.492  21.352  0.00  0.00    +0.000 C 
ATOM     38  C   UNL     1     -42.917  82.104  17.239  0.00  0.00    +0.000 A 
ATOM     39  C   UNL     1     -48.723  89.462  19.307  0.00  0.00    +0.000 C 
ATOM     40  C   UNL     1     -46.408  82.074  16.241  0.00  0.00    +0.000 C 
ATOM     41  C   UNL     1     -40.498  84.840  17.616  0.00  0.00    +0.000 C 
ATOM     42  C   UNL     1     -50.408  89.402  17.585  0.00  0.00    +0.000 C 
ATOM     43  C   UNL     1     -42.300  80.999  17.902  0.00  0.00    +0.000 A 
ATOM     44  C   UNL     1     -46.954  80.857  15.014  0.00  0.00    +0.000 C 
ATOM     45  C   UNL     1     -48.150  88.094  19.459  0.00  0.00    +0.000 C 
ATOM     46  C   UNL     1     -39.322  84.079  17.067  0.00  0.00    +0.000 C 
ATOM     47  C   UNL     1     -39.094  90.443  21.884  0.00  0.00    +0.000 C 
ATOM     48  C   UNL     1     -44.091  81.598  16.690  0.00  0.00    +0.000 A 
ATOM     49  C   UNL     1     -40.371  88.317  21.930  0.00  0.00    +0.000 C 
ATOM     50  C   UNL     1     -41.262  83.803  17.105  0.00  0.00    +0.000 C 
ATOM     51  C   UNL     1     -47.249  82.684  17.142  0.00  0.00    +0.000 C 
ATOM     52  C   UNL     1     -40.695  86.484  20.324  0.00  0.00    +0.000 C 
ATOM     53  C   UNL     1     -41.047  80.971  18.735  0.00  0.00    +0.000 C 
ATOM     54  C   UNL     1     -43.127  79.915  17.753  0.00  0.00    +0.000 A 
ATOM     55  C   UNL     1     -39.959  85.714  19.386  0.00  0.00    +0.000 C 
ATOM     56  C   UNL     1     -47.492  84.450  18.716  0.00  0.00    +0.000 C 
ATOM     57  C   UNL     1     -48.787  88.549  20.582  0.00  0.00    +0.000 C 
ATOM     58  C   UNL     1     -45.654  81.294  15.033  0.00  0.00    +0.000 C 
ATOM     59  C   UNL     1     -38.653  91.546  21.726  0.00  0.00    +0.000 C 
ATOM     60  C   UNL     1     -47.904  85.802  19.265  0.00  0.00    +0.000 C 
ATOM     61  C   UNL     1     -39.094  83.864  19.048  0.00  0.00    +0.000 C 
ATOM     62  C   UNL     1     -40.789  86.998  22.606  0.00  0.00    +0.000 C 
ATOM     63  C   UNL     1     -48.415  84.355  19.704  0.00  0.00    +0.000 C 
ATOM     64  H   UNL     1     -41.581  89.515  20.113  0.00  0.00    +0.000 HD
ATOM     65  H   UNL     1     -43.217  84.111  17.402  0.00  0.00    +0.000 HD
ATOM     66  H   UNL     1     -47.200  87.174  17.986  0.00  0.00    +0.000 HD
ATOM     67  H   UNL     1     -46.034  84.242  17.364  0.00  0.00    +0.000 HD
ATOM     68  C   UNL     1     -41.183  93.215  20.714  0.00  0.00    +0.000 C 
ATOM     69  C   UNL     1     -39.882  93.611  21.132  0.00  0.00    +0.000 C 
ATOM     70  C   UNL     1     -38.920  92.558  20.747  0.00  0.00    +0.000 C 
ATOM     71  C   UNL     1     -45.511  94.645  17.355  0.00  0.00    +0.000 C 
ATOM     72  C   UNL     1     -44.321  95.040  16.905  0.00  0.00    +0.000 C 
ATOM     73  C   UNL     1     -46.696  94.211  16.754  0.00  0.00    +0.000 C 
ATOM     74  C   UNL     1     -50.507  90.821  17.445  0.00  0.00    +0.000 C 
ATOM     75  C   UNL     1     -51.667  90.173  17.848  0.00  0.00    +0.000 C 
ATOM     76  C   UNL     1     -52.916  90.123  16.942  0.00  0.00    +0.000 C 
ATOM     77  C   UNL     1     -51.413  88.938  18.412  0.00  0.00    +0.000 C 
ATOM     78  C   UNL     1     -37.734  84.128  16.875  0.00  0.00    +0.000 C 
ATOM     79  C   UNL     1     -36.881  83.630  15.983  0.00  0.00    +0.000 C 
ATOM     80  C   UNL     1     -38.004  83.894  18.224  0.00  0.00    +0.000 C 
ATOM     81  C   UNL     1     -48.250  80.639  15.250  0.00  0.00    +0.000 C 
ATOM     82  C   UNL     1     -49.060  79.693  14.428  0.00  0.00    +0.000 C 
ATOM     83  C   UNL     1     -48.818  81.384  16.312  0.00  0.00    +0.000 C 
ENDROOT
BRANCH  69  84
ATOM     84  C   UNL     1     -39.581  94.600  22.098  0.00  0.00    +0.000 C 
ATOM     85  C   UNL     1     -39.325  95.433  22.924  0.00  0.00    +0.000 C 
BRANCH  85  86
ATOM     86  C   UNL     1     -38.999  96.494  23.981  0.00  0.00    +0.000 C 
ATOM     87  C   UNL     1     -38.716  97.419  24.895  0.00  0.00    +0.000 C 
ENDBRANCH  85  86
ENDBRANCH  69  84
BRANCH  13  88
ATOM     88  C   UNL     1     -43.612  91.019  19.179  0.00  0.00    +0.000 C 
BRANCH  88  89
ATOM     89  O   UNL     1     -44.106  90.254  18.215  0.00  0.00    +0.000 OA
ATOM     90  H   UNL     1     -43.532  90.296  17.429  0.00  0.00    +0.000 HD
ENDBRANCH  88  89
ENDBRANCH  13  88
TORSDOF 4
ENDMDL
