MODEL 1
REMARK VINA RESULT:      -6.4      0.000      0.000
REMARK  Name = Danazol.pdbqt.pdb
REMARK  2 active torsions:
REMARK  status: ('A' for Active; 'I' for Inactive)
REMARK    1  A    between atoms: C_9  and  O_23
REMARK    2  A    between atoms: C_9  and  C_25
REMARK                            x       y       z     vdW  Elec       q    Type
REMARK                         _______ _______ _______ _____ _____    ______ ____
ROOT
ATOM      1  O   UNL     1     -38.458 100.878  15.849  0.00  0.00    +0.000 OA
ATOM      2  N   UNL     1     -38.607  99.568  15.346  0.00  0.00    +0.000 NA
ATOM      3  C   UNL     1     -31.070 102.708  15.791  0.00  0.00    +0.000 C 
ATOM      4  C   UNL     1     -30.065 101.715  15.003  0.00  0.00    +0.000 C 
ATOM      5  C   UNL     1     -32.500 102.834  15.451  0.00  0.00    +0.000 C 
ATOM      6  C   UNL     1     -33.257 101.986  14.465  0.00  0.00    +0.000 C 
ATOM      7  C   UNL     1     -34.723 102.249  14.044  0.00  0.00    +0.000 C 
ATOM      8  C   UNL     1     -30.939 100.872  14.173  0.00  0.00    +0.000 C 
ATOM      9  C   UNL     1     -29.259 100.951  16.199  0.00  0.00    +0.000 C 
ATOM     10  C   UNL     1     -32.417 100.991  13.896  0.00  0.00    +0.000 C 
ATOM     11  C   UNL     1     -30.606 102.878  17.127  0.00  0.00    +0.000 C 
ATOM     12  C   UNL     1     -33.343 103.730  16.147  0.00  0.00    +0.000 C 
ATOM     13  C   UNL     1     -29.527 101.856  17.336  0.00  0.00    +0.000 C 
ATOM     14  C   UNL     1     -35.605 103.159  15.115  0.00  0.00    +0.000 C 
ATOM     15  C   UNL     1     -29.166 102.640  14.105  0.00  0.00    +0.000 C 
ATOM     16  C   UNL     1     -34.826 103.918  16.023  0.00  0.00    +0.000 C 
ATOM     17  C   UNL     1     -35.479 100.948  13.971  0.00  0.00    +0.000 C 
ATOM     18  C   UNL     1     -34.742 102.999  12.681  0.00  0.00    +0.000 C 
ATOM     19  C   UNL     1     -36.728 102.632  15.551  0.00  0.00    +0.000 C 
ATOM     20  C   UNL     1     -36.698 100.460  14.525  0.00  0.00    +0.000 A 
ATOM     21  C   UNL     1     -37.324 101.368  15.336  0.00  0.00    +0.000 A 
ATOM     22  C   UNL     1     -37.538  99.351  14.550  0.00  0.00    +0.000 A 
ENDROOT
BRANCH   9  23
ATOM     23  O   UNL     1     -27.840 100.851  16.003  0.00  0.00    +0.000 OA
ATOM     24  H   UNL     1     -27.660 101.026  15.063  0.00  0.00    +0.000 HD
ENDBRANCH   9  23
BRANCH   9  25
ATOM     25  C   UNL     1     -29.818  99.599  16.447  0.00  0.00    +0.000 C 
ATOM     26  C   UNL     1     -30.293  98.520  16.641  0.00  0.00    +0.000 C 
ENDBRANCH   9  25
TORSDOF 2
ENDMDL
MODEL 2
REMARK VINA RESULT:      -6.1     13.529     16.779
REMARK  Name = Danazol.pdbqt.pdb
REMARK  2 active torsions:
REMARK  status: ('A' for Active; 'I' for Inactive)
REMARK    1  A    between atoms: C_9  and  O_23
REMARK    2  A    between atoms: C_9  and  C_25
REMARK                            x       y       z     vdW  Elec       q    Type
REMARK                         _______ _______ _______ _____ _____    ______ ____
ROOT
ATOM      1  O   UNL     1     -33.181  87.374  18.318  0.00  0.00    +0.000 OA
ATOM      2  N   UNL     1     -33.422  88.707  17.926  0.00  0.00    +0.000 NA
ATOM      3  C   UNL     1     -28.208  84.248  13.477  0.00  0.00    +0.000 C 
ATOM      4  C   UNL     1     -27.462  85.237  12.438  0.00  0.00    +0.000 C 
ATOM      5  C   UNL     1     -28.727  84.702  14.781  0.00  0.00    +0.000 C 
ATOM      6  C   UNL     1     -28.784  86.124  15.270  0.00  0.00    +0.000 C 
ATOM      7  C   UNL     1     -29.211  86.532  16.699  0.00  0.00    +0.000 C 
ATOM      8  C   UNL     1     -27.695  86.589  12.968  0.00  0.00    +0.000 C 
ATOM      9  C   UNL     1     -28.166  84.898  11.005  0.00  0.00    +0.000 C 
ATOM     10  C   UNL     1     -28.289  87.022  14.285  0.00  0.00    +0.000 C 
ATOM     11  C   UNL     1     -28.839  83.198  12.751  0.00  0.00    +0.000 C 
ATOM     12  C   UNL     1     -29.354  83.803  15.674  0.00  0.00    +0.000 C 
ATOM     13  C   UNL     1     -28.780  83.587  11.303  0.00  0.00    +0.000 C 
ATOM     14  C   UNL     1     -30.125  85.404  17.504  0.00  0.00    +0.000 C 
ATOM     15  C   UNL     1     -25.936  84.865  12.512  0.00  0.00    +0.000 C 
ATOM     16  C   UNL     1     -30.035  84.091  16.979  0.00  0.00    +0.000 C 
ATOM     17  C   UNL     1     -30.104  87.744  16.644  0.00  0.00    +0.000 C 
ATOM     18  C   UNL     1     -27.944  86.794  17.562  0.00  0.00    +0.000 C 
ATOM     19  C   UNL     1     -31.287  85.810  17.967  0.00  0.00    +0.000 C 
ATOM     20  C   UNL     1     -31.391  88.071  17.164  0.00  0.00    +0.000 A 
ATOM     21  C   UNL     1     -31.972  87.042  17.853  0.00  0.00    +0.000 A 
ATOM     22  C   UNL     1     -32.326  89.098  17.241  0.00  0.00    +0.000 A 
ENDROOT
BRANCH   9  23
ATOM     23  O   UNL     1     -27.256  84.752   9.904  0.00  0.00    +0.000 OA
ATOM     24  H   UNL     1     -27.226  83.808   9.670  0.00  0.00    +0.000 HD
ENDBRANCH   9  23
BRANCH   9  25
ATOM     25  C   UNL     1     -29.198  85.907  10.661  0.00  0.00    +0.000 C 
ATOM     26  C   UNL     1     -30.046  86.708  10.402  0.00  0.00    +0.000 C 
ENDBRANCH   9  25
TORSDOF 2
ENDMDL
MODEL 3
REMARK VINA RESULT:      -6.1     12.154     15.846
REMARK  Name = Danazol.pdbqt.pdb
REMARK  2 active torsions:
REMARK  status: ('A' for Active; 'I' for Inactive)
REMARK    1  A    between atoms: C_9  and  O_23
REMARK    2  A    between atoms: C_9  and  C_25
REMARK                            x       y       z     vdW  Elec       q    Type
REMARK                         _______ _______ _______ _____ _____    ______ ____
ROOT
ATOM      1  O   UNL     1     -36.957 107.239   5.523  0.00  0.00    +0.000 OA
ATOM      2  N   UNL     1     -37.208 108.436   4.819  0.00  0.00    +0.000 NA
ATOM      3  C   UNL     1     -41.034 101.637   2.371  0.00  0.00    +0.000 C 
ATOM      4  C   UNL     1     -41.751 101.947   0.955  0.00  0.00    +0.000 C 
ATOM      5  C   UNL     1     -39.817 102.339   2.821  0.00  0.00    +0.000 C 
ATOM      6  C   UNL     1     -39.164 103.512   2.142  0.00  0.00    +0.000 C 
ATOM      7  C   UNL     1     -37.813 104.124   2.580  0.00  0.00    +0.000 C 
ATOM      8  C   UNL     1     -41.104 103.172   0.462  0.00  0.00    +0.000 C 
ATOM      9  C   UNL     1     -43.332 102.077   1.342  0.00  0.00    +0.000 C 
ATOM     10  C   UNL     1     -39.894 103.904   0.986  0.00  0.00    +0.000 C 
ATOM     11  C   UNL     1     -42.011 101.173   3.297  0.00  0.00    +0.000 C 
ATOM     12  C   UNL     1     -39.204 102.025   4.056  0.00  0.00    +0.000 C 
ATOM     13  C   UNL     1     -43.348 101.416   2.663  0.00  0.00    +0.000 C 
ATOM     14  C   UNL     1     -37.376 103.801   4.149  0.00  0.00    +0.000 C 
ATOM     15  C   UNL     1     -41.412 100.724   0.026  0.00  0.00    +0.000 C 
ATOM     16  C   UNL     1     -38.043 102.694   4.729  0.00  0.00    +0.000 C 
ATOM     17  C   UNL     1     -37.888 105.628   2.532  0.00  0.00    +0.000 C 
ATOM     18  C   UNL     1     -36.678 103.578   1.668  0.00  0.00    +0.000 C 
ATOM     19  C   UNL     1     -37.114 104.838   4.913  0.00  0.00    +0.000 C 
ATOM     20  C   UNL     1     -37.609 106.680   3.452  0.00  0.00    +0.000 A 
ATOM     21  C   UNL     1     -37.201 106.230   4.678  0.00  0.00    +0.000 A 
ATOM     22  C   UNL     1     -37.590 108.065   3.578  0.00  0.00    +0.000 A 
ENDROOT
BRANCH   9  23
ATOM     23  O   UNL     1     -44.229 101.386   0.459  0.00  0.00    +0.000 OA
ATOM     24  H   UNL     1     -44.866 100.898   1.009  0.00  0.00    +0.000 HD
ENDBRANCH   9  23
BRANCH   9  25
ATOM     25  C   UNL     1     -43.744 103.499   1.448  0.00  0.00    +0.000 C 
ATOM     26  C   UNL     1     -44.096 104.636   1.550  0.00  0.00    +0.000 C 
ENDBRANCH   9  25
TORSDOF 2
ENDMDL
MODEL 4
REMARK VINA RESULT:      -5.7     13.911     16.321
REMARK  Name = Danazol.pdbqt.pdb
REMARK  2 active torsions:
REMARK  status: ('A' for Active; 'I' for Inactive)
REMARK    1  A    between atoms: C_9  and  O_23
REMARK    2  A    between atoms: C_9  and  C_25
REMARK                            x       y       z     vdW  Elec       q    Type
REMARK                         _______ _______ _______ _____ _____    ______ ____
ROOT
ATOM      1  O   UNL     1     -34.342  86.661  18.360  0.00  0.00    +0.000 OA
ATOM      2  N   UNL     1     -34.881  87.844  17.812  0.00  0.00    +0.000 NA
ATOM      3  C   UNL     1     -27.990  84.871  14.566  0.00  0.00    +0.000 C 
ATOM      4  C   UNL     1     -27.395  85.979  13.549  0.00  0.00    +0.000 C 
ATOM      5  C   UNL     1     -28.815  85.221  15.738  0.00  0.00    +0.000 C 
ATOM      6  C   UNL     1     -29.344  86.589  16.076  0.00  0.00    +0.000 C 
ATOM      7  C   UNL     1     -30.090  86.929  17.388  0.00  0.00    +0.000 C 
ATOM      8  C   UNL     1     -28.078  87.230  13.911  0.00  0.00    +0.000 C 
ATOM      9  C   UNL     1     -27.740  85.375  12.073  0.00  0.00    +0.000 C 
ATOM     10  C   UNL     1     -28.971  87.540  15.086  0.00  0.00    +0.000 C 
ATOM     11  C   UNL     1     -28.178  83.646  13.864  0.00  0.00    +0.000 C 
ATOM     12  C   UNL     1     -29.299  84.227  16.618  0.00  0.00    +0.000 C 
ATOM     13  C   UNL     1     -28.001  83.959  12.408  0.00  0.00    +0.000 C 
ATOM     14  C   UNL     1     -30.767  85.627  18.164  0.00  0.00    +0.000 C 
ATOM     15  C   UNL     1     -25.858  86.071  13.867  0.00  0.00    +0.000 C 
ATOM     16  C   UNL     1     -30.231  84.372  17.784  0.00  0.00    +0.000 C 
ATOM     17  C   UNL     1     -31.266  87.823  17.095  0.00  0.00    +0.000 C 
ATOM     18  C   UNL     1     -29.100  87.593  18.387  0.00  0.00    +0.000 C 
ATOM     19  C   UNL     1     -32.054  85.700  18.422  0.00  0.00    +0.000 C 
ATOM     20  C   UNL     1     -32.658  87.788  17.400  0.00  0.00    +0.000 A 
ATOM     21  C   UNL     1     -33.029  86.672  18.098  0.00  0.00    +0.000 A 
ATOM     22  C   UNL     1     -33.844  88.501  17.250  0.00  0.00    +0.000 A 
ENDROOT
BRANCH   9  23
ATOM     23  O   UNL     1     -26.663  85.443  11.126  0.00  0.00    +0.000 OA
ATOM     24  H   UNL     1     -26.801  84.735  10.472  0.00  0.00    +0.000 HD
ENDBRANCH   9  23
BRANCH   9  25
ATOM     25  C   UNL     1     -28.945  86.020  11.496  0.00  0.00    +0.000 C 
ATOM     26  C   UNL     1     -29.905  86.536  11.006  0.00  0.00    +0.000 C 
ENDBRANCH   9  25
TORSDOF 2
ENDMDL
MODEL 5
REMARK VINA RESULT:      -5.5      2.987      3.506
REMARK  Name = Danazol.pdbqt.pdb
REMARK  2 active torsions:
REMARK  status: ('A' for Active; 'I' for Inactive)
REMARK    1  A    between atoms: C_9  and  O_23
REMARK    2  A    between atoms: C_9  and  C_25
REMARK                            x       y       z     vdW  Elec       q    Type
REMARK                         _______ _______ _______ _____ _____    ______ ____
ROOT
ATOM      1  O   UNL     1     -37.902  98.090  20.147  0.00  0.00    +0.000 OA
ATOM      2  N   UNL     1     -37.596  96.729  20.356  0.00  0.00    +0.000 NA
ATOM      3  C   UNL     1     -32.360 101.242  15.988  0.00  0.00    +0.000 C 
ATOM      4  C   UNL     1     -31.277 100.246  15.317  0.00  0.00    +0.000 C 
ATOM      5  C   UNL     1     -33.736 100.823  16.318  0.00  0.00    +0.000 C 
ATOM      6  C   UNL     1     -34.284  99.424  16.232  0.00  0.00    +0.000 C 
ATOM      7  C   UNL     1     -35.771  99.062  16.458  0.00  0.00    +0.000 C 
ATOM      8  C   UNL     1     -31.886  98.910  15.406  0.00  0.00    +0.000 C 
ATOM      9  C   UNL     1     -29.930 100.480  16.209  0.00  0.00    +0.000 C 
ATOM     10  C   UNL     1     -33.282  98.508  15.810  0.00  0.00    +0.000 C 
ATOM     11  C   UNL     1     -31.676 102.222  16.763  0.00  0.00    +0.000 C 
ATOM     12  C   UNL     1     -34.663 101.729  16.882  0.00  0.00    +0.000 C 
ATOM     13  C   UNL     1     -30.249 101.770  16.857  0.00  0.00    +0.000 C 
ATOM     14  C   UNL     1     -36.637 100.177  17.331  0.00  0.00    +0.000 C 
ATOM     15  C   UNL     1     -31.147 100.701  13.818  0.00  0.00    +0.000 C 
ATOM     16  C   UNL     1     -36.052 101.467  17.382  0.00  0.00    +0.000 C 
ATOM     17  C   UNL     1     -35.876  97.804  17.280  0.00  0.00    +0.000 C 
ATOM     18  C   UNL     1     -36.480  98.908  15.082  0.00  0.00    +0.000 C 
ATOM     19  C   UNL     1     -37.256  99.734  18.403  0.00  0.00    +0.000 C 
ATOM     20  C   UNL     1     -36.563  97.435  18.472  0.00  0.00    +0.000 A 
ATOM     21  C   UNL     1     -37.277  98.463  19.024  0.00  0.00    +0.000 A 
ATOM     22  C   UNL     1     -36.797  96.365  19.330  0.00  0.00    +0.000 A 
ENDROOT
BRANCH   9  23
ATOM     23  O   UNL     1     -28.720 100.621  15.450  0.00  0.00    +0.000 OA
ATOM     24  H   UNL     1     -28.318 101.474  15.692  0.00  0.00    +0.000 HD
ENDBRANCH   9  23
BRANCH   9  25
ATOM     25  C   UNL     1     -29.757  99.403  17.215  0.00  0.00    +0.000 C 
ATOM     26  C   UNL     1     -29.591  98.540  18.025  0.00  0.00    +0.000 C 
ENDBRANCH   9  25
TORSDOF 2
ENDMDL
MODEL 6
REMARK VINA RESULT:      -5.4      3.804      6.012
REMARK  Name = Danazol.pdbqt.pdb
REMARK  2 active torsions:
REMARK  status: ('A' for Active; 'I' for Inactive)
REMARK    1  A    between atoms: C_9  and  O_23
REMARK    2  A    between atoms: C_9  and  C_25
REMARK                            x       y       z     vdW  Elec       q    Type
REMARK                         _______ _______ _______ _____ _____    ______ ____
ROOT
ATOM      1  O   UNL     1     -35.354 100.535  21.977  0.00  0.00    +0.000 OA
ATOM      2  N   UNL     1     -34.339  99.568  22.137  0.00  0.00    +0.000 NA
ATOM      3  C   UNL     1     -36.620 101.560  14.541  0.00  0.00    +0.000 C 
ATOM      4  C   UNL     1     -35.935 100.510  13.520  0.00  0.00    +0.000 C 
ATOM      5  C   UNL     1     -36.951 101.218  15.938  0.00  0.00    +0.000 C 
ATOM      6  C   UNL     1     -36.581  99.947  16.653  0.00  0.00    +0.000 C 
ATOM      7  C   UNL     1     -37.070  99.579  18.074  0.00  0.00    +0.000 C 
ATOM      8  C   UNL     1     -35.518  99.379  14.362  0.00  0.00    +0.000 C 
ATOM      9  C   UNL     1     -34.732 101.371  12.829  0.00  0.00    +0.000 C 
ATOM     10  C   UNL     1     -35.822  99.089  15.811  0.00  0.00    +0.000 C 
ATOM     11  C   UNL     1     -36.250 102.884  14.169  0.00  0.00    +0.000 C 
ATOM     12  C   UNL     1     -37.572 102.155  16.795  0.00  0.00    +0.000 C 
ATOM     13  C   UNL     1     -35.161 102.749  13.146  0.00  0.00    +0.000 C 
ATOM     14  C   UNL     1     -37.566 100.867  18.997  0.00  0.00    +0.000 C 
ATOM     15  C   UNL     1     -37.072 100.076  12.525  0.00  0.00    +0.000 C 
ATOM     16  C   UNL     1     -37.882 102.033  18.258  0.00  0.00    +0.000 C 
ATOM     17  C   UNL     1     -35.940  98.982  18.870  0.00  0.00    +0.000 C 
ATOM     18  C   UNL     1     -38.275  98.601  17.968  0.00  0.00    +0.000 C 
ATOM     19  C   UNL     1     -36.983 101.011  20.167  0.00  0.00    +0.000 C 
ATOM     20  C   UNL     1     -35.355  99.246  20.143  0.00  0.00    +0.000 A 
ATOM     21  C   UNL     1     -35.930 100.304  20.791  0.00  0.00    +0.000 A 
ATOM     22  C   UNL     1     -34.370  98.807  21.022  0.00  0.00    +0.000 A 
ENDROOT
BRANCH   9  23
ATOM     23  O   UNL     1     -34.626 101.226  11.405  0.00  0.00    +0.000 OA
ATOM     24  H   UNL     1     -35.376 101.701  11.004  0.00  0.00    +0.000 HD
ENDBRANCH   9  23
BRANCH   9  25
ATOM     25  C   UNL     1     -33.422 101.061  13.454  0.00  0.00    +0.000 C 
ATOM     26  C   UNL     1     -32.357 100.834  13.947  0.00  0.00    +0.000 C 
ENDBRANCH   9  25
TORSDOF 2
ENDMDL
MODEL 7
REMARK VINA RESULT:      -5.2     14.071     17.496
REMARK  Name = Danazol.pdbqt.pdb
REMARK  2 active torsions:
REMARK  status: ('A' for Active; 'I' for Inactive)
REMARK    1  A    between atoms: C_9  and  O_23
REMARK    2  A    between atoms: C_9  and  C_25
REMARK                            x       y       z     vdW  Elec       q    Type
REMARK                         _______ _______ _______ _____ _____    ______ ____
ROOT
ATOM      1  O   UNL     1     -38.741 105.200   3.292  0.00  0.00    +0.000 OA
ATOM      2  N   UNL     1     -38.980 106.306   2.449  0.00  0.00    +0.000 NA
ATOM      3  C   UNL     1     -45.008 100.885   3.517  0.00  0.00    +0.000 C 
ATOM      4  C   UNL     1     -46.179 101.220   2.453  0.00  0.00    +0.000 C 
ATOM      5  C   UNL     1     -43.588 101.200   3.270  0.00  0.00    +0.000 C 
ATOM      6  C   UNL     1     -43.041 101.989   2.111  0.00  0.00    +0.000 C 
ATOM      7  C   UNL     1     -41.532 102.174   1.825  0.00  0.00    +0.000 C 
ATOM      8  C   UNL     1     -45.541 102.085   1.448  0.00  0.00    +0.000 C 
ATOM      9  C   UNL     1     -47.341 101.915   3.363  0.00  0.00    +0.000 C 
ATOM     10  C   UNL     1     -44.087 102.440   1.261  0.00  0.00    +0.000 C 
ATOM     11  C   UNL     1     -45.554 100.899   4.832  0.00  0.00    +0.000 C 
ATOM     12  C   UNL     1     -42.588 100.871   4.214  0.00  0.00    +0.000 C 
ATOM     13  C   UNL     1     -46.931 101.481   4.715  0.00  0.00    +0.000 C 
ATOM     14  C   UNL     1     -40.539 101.940   3.135  0.00  0.00    +0.000 C 
ATOM     15  C   UNL     1     -46.591  99.841   1.821  0.00  0.00    +0.000 C 
ATOM     16  C   UNL     1     -41.126 101.204   4.194  0.00  0.00    +0.000 C 
ATOM     17  C   UNL     1     -41.256 103.598   1.417  0.00  0.00    +0.000 C 
ATOM     18  C   UNL     1     -41.086 101.167   0.727  0.00  0.00    +0.000 C 
ATOM     19  C   UNL     1     -39.725 102.927   3.441  0.00  0.00    +0.000 C 
ATOM     20  C   UNL     1     -40.354 104.613   1.850  0.00  0.00    +0.000 A 
ATOM     21  C   UNL     1     -39.569 104.224   2.901  0.00  0.00    +0.000 A 
ATOM     22  C   UNL     1     -39.949 105.919   1.591  0.00  0.00    +0.000 A 
ENDROOT
BRANCH   9  23
ATOM     23  O   UNL     1     -48.674 101.446   3.103  0.00  0.00    +0.000 OA
ATOM     24  H   UNL     1     -48.600 100.585   2.656  0.00  0.00    +0.000 HD
ENDBRANCH   9  23
BRANCH   9  25
ATOM     25  C   UNL     1     -47.308 103.394   3.241  0.00  0.00    +0.000 C 
ATOM     26  C   UNL     1     -47.253 104.584   3.144  0.00  0.00    +0.000 C 
ENDBRANCH   9  25
TORSDOF 2
ENDMDL
MODEL 8
REMARK VINA RESULT:      -5.2      3.383      4.340
REMARK  Name = Danazol.pdbqt.pdb
REMARK  2 active torsions:
REMARK  status: ('A' for Active; 'I' for Inactive)
REMARK    1  A    between atoms: C_9  and  O_23
REMARK    2  A    between atoms: C_9  and  C_25
REMARK                            x       y       z     vdW  Elec       q    Type
REMARK                         _______ _______ _______ _____ _____    ______ ____
ROOT
ATOM      1  O   UNL     1     -37.963  98.336  21.326  0.00  0.00    +0.000 OA
ATOM      2  N   UNL     1     -37.862  96.933  21.222  0.00  0.00    +0.000 NA
ATOM      3  C   UNL     1     -33.951 101.508  15.688  0.00  0.00    +0.000 C 
ATOM      4  C   UNL     1     -33.416 100.530  14.516  0.00  0.00    +0.000 C 
ATOM      5  C   UNL     1     -35.148 101.207  16.496  0.00  0.00    +0.000 C 
ATOM      6  C   UNL     1     -35.940  99.928  16.471  0.00  0.00    +0.000 C 
ATOM      7  C   UNL     1     -37.266  99.715  17.238  0.00  0.00    +0.000 C 
ATOM      8  C   UNL     1     -34.184  99.287  14.680  0.00  0.00    +0.000 C 
ATOM      9  C   UNL     1     -31.812 100.425  14.801  0.00  0.00    +0.000 C 
ATOM     10  C   UNL     1     -35.368  98.991  15.567  0.00  0.00    +0.000 C 
ATOM     11  C   UNL     1     -32.852 102.233  16.229  0.00  0.00    +0.000 C 
ATOM     12  C   UNL     1     -35.600 102.097  17.497  0.00  0.00    +0.000 C 
ATOM     13  C   UNL     1     -31.610 101.599  15.676  0.00  0.00    +0.000 C 
ATOM     14  C   UNL     1     -37.505 100.744  18.519  0.00  0.00    +0.000 C 
ATOM     15  C   UNL     1     -33.787 101.240  13.163  0.00  0.00    +0.000 C 
ATOM     16  C   UNL     1     -36.715 101.919  18.484  0.00  0.00    +0.000 C 
ATOM     17  C   UNL     1     -37.283  98.347  17.869  0.00  0.00    +0.000 C 
ATOM     18  C   UNL     1     -38.463  99.911  16.264  0.00  0.00    +0.000 C 
ATOM     19  C   UNL     1     -37.738 100.186  19.686  0.00  0.00    +0.000 C 
ATOM     20  C   UNL     1     -37.517  97.848  19.183  0.00  0.00    +0.000 A 
ATOM     21  C   UNL     1     -37.758  98.834  20.101  0.00  0.00    +0.000 A 
ATOM     22  C   UNL     1     -37.601  96.672  19.923  0.00  0.00    +0.000 A 
ENDROOT
BRANCH   9  23
ATOM     23  O   UNL     1     -30.982 100.557  13.637  0.00  0.00    +0.000 OA
ATOM     24  H   UNL     1     -30.159 100.998  13.911  0.00  0.00    +0.000 HD
ENDBRANCH   9  23
BRANCH   9  25
ATOM     25  C   UNL     1     -31.473  99.165  15.508  0.00  0.00    +0.000 C 
ATOM     26  C   UNL     1     -31.221  98.138  16.064  0.00  0.00    +0.000 C 
ENDBRANCH   9  25
TORSDOF 2
ENDMDL
MODEL 9
REMARK VINA RESULT:      -5.2     13.047     16.190
REMARK  Name = Danazol.pdbqt.pdb
REMARK  2 active torsions:
REMARK  status: ('A' for Active; 'I' for Inactive)
REMARK    1  A    between atoms: C_9  and  O_23
REMARK    2  A    between atoms: C_9  and  C_25
REMARK                            x       y       z     vdW  Elec       q    Type
REMARK                         _______ _______ _______ _____ _____    ______ ____
ROOT
ATOM      1  O   UNL     1     -22.211 102.903  10.600  0.00  0.00    +0.000 OA
ATOM      2  N   UNL     1     -22.646 104.209  10.906  0.00  0.00    +0.000 NA
ATOM      3  C   UNL     1     -22.093 102.063   3.036  0.00  0.00    +0.000 C 
ATOM      4  C   UNL     1     -22.281 103.395   2.138  0.00  0.00    +0.000 C 
ATOM      5  C   UNL     1     -21.543 102.093   4.404  0.00  0.00    +0.000 C 
ATOM      6  C   UNL     1     -21.228 103.324   5.210  0.00  0.00    +0.000 C 
ATOM      7  C   UNL     1     -20.526 103.301   6.588  0.00  0.00    +0.000 C 
ATOM      8  C   UNL     1     -22.064 104.513   3.068  0.00  0.00    +0.000 C 
ATOM      9  C   UNL     1     -23.792 103.246   1.537  0.00  0.00    +0.000 C 
ATOM     10  C   UNL     1     -21.560 104.504   4.490  0.00  0.00    +0.000 C 
ATOM     11  C   UNL     1     -23.061 101.095   2.644  0.00  0.00    +0.000 C 
ATOM     12  C   UNL     1     -21.371 100.905   5.151  0.00  0.00    +0.000 C 
ATOM     13  C   UNL     1     -24.031 101.803   1.745  0.00  0.00    +0.000 C 
ATOM     14  C   UNL     1     -20.622 101.855   7.397  0.00  0.00    +0.000 C 
ATOM     15  C   UNL     1     -21.146 103.344   1.052  0.00  0.00    +0.000 C 
ATOM     16  C   UNL     1     -20.937 100.743   6.578  0.00  0.00    +0.000 C 
ATOM     17  C   UNL     1     -21.190 104.279   7.522  0.00  0.00    +0.000 C 
ATOM     18  C   UNL     1     -19.015 103.622   6.403  0.00  0.00    +0.000 C 
ATOM     19  C   UNL     1     -21.121 101.892   8.613  0.00  0.00    +0.000 C 
ATOM     20  C   UNL     1     -21.739 104.202   8.835  0.00  0.00    +0.000 A 
ATOM     21  C   UNL     1     -21.679 102.946   9.373  0.00  0.00    +0.000 A 
ATOM     22  C   UNL     1     -22.343 104.966   9.830  0.00  0.00    +0.000 A 
ENDROOT
BRANCH   9  23
ATOM     23  O   UNL     1     -23.918 103.547   0.138  0.00  0.00    +0.000 OA
ATOM     24  H   UNL     1     -24.834 103.349  -0.124  0.00  0.00    +0.000 HD
ENDBRANCH   9  23
BRANCH   9  25
ATOM     25  C   UNL     1     -24.760 104.067   2.306  0.00  0.00    +0.000 C 
ATOM     26  C   UNL     1     -25.556 104.707   2.926  0.00  0.00    +0.000 C 
ENDBRANCH   9  25
TORSDOF 2
ENDMDL
