MODEL 1
REMARK VINA RESULT:      -7.0      0.000      0.000
REMARK  Name = Dasatinib.pdbqt.pdb
REMARK  5 active torsions:
REMARK  status: ('A' for Active; 'I' for Inactive)
REMARK    1  A    between atoms: N_1  and  C_3
REMARK    2  A    between atoms: N_13  and  C_16
REMARK    3  A    between atoms: C_17  and  O_18
REMARK    4  A    between atoms: C_22  and  C_25
REMARK    5  A    between atoms: N_27  and  C_29
REMARK                            x       y       z     vdW  Elec       q    Type
REMARK                         _______ _______ _______ _____ _____    ______ ____
ROOT
ATOM      1  N   UNL     1     -24.612  83.962  10.375  0.00  0.00    +0.000 N 
ATOM      2  H   UNL     1     -23.819  84.278  10.921  0.00  0.00    +0.000 HD
ATOM      3  C   UNL     1     -25.815  84.488  10.706  0.00  0.00    +0.000 A 
ATOM      4  S   UNL     1     -25.925  85.513  12.095  0.00  0.00    +0.000 S 
ATOM      5  C   UNL     1     -27.608  85.701  11.834  0.00  0.00    +0.000 A 
ATOM      6  C   UNL     1     -27.964  84.969  10.726  0.00  0.00    +0.000 A 
ATOM      7  N   UNL     1     -26.963  84.264  10.108  0.00  0.00    +0.000 NA
ENDROOT
BRANCH   1   8
ATOM      8  C   UNL     1     -24.254  83.539   9.077  0.00  0.00    +0.000 A 
ATOM      9  N   UNL     1     -24.452  82.280   8.668  0.00  0.00    +0.000 NA
ATOM     10  C   UNL     1     -24.027  81.961   7.441  0.00  0.00    +0.000 A 
ATOM     11  N   UNL     1     -23.436  82.799   6.581  0.00  0.00    +0.000 NA
ATOM     12  C   UNL     1     -24.264  80.556   6.969  0.00  0.00    +0.000 C 
ATOM     13  C   UNL     1     -23.253  84.066   6.992  0.00  0.00    +0.000 A 
ATOM     14  C   UNL     1     -23.645  84.472   8.258  0.00  0.00    +0.000 A 
ATOM     15  N   UNL     1     -22.594  85.001   6.150  0.00  0.00    +0.000 N 
ATOM     16  C   UNL     1     -23.027  86.423   6.203  0.00  0.00    +0.000 C 
ATOM     17  C   UNL     1     -23.402  87.355   5.019  0.00  0.00    +0.000 C 
ATOM     18  N   UNL     1     -23.455  87.146   3.545  0.00  0.00    +0.000 N 
ATOM     19  C   UNL     1     -23.013  85.724   3.555  0.00  0.00    +0.000 C 
ATOM     20  C   UNL     1     -22.625  84.737   4.687  0.00  0.00    +0.000 C 
BRANCH  18  21
ATOM     21  C   UNL     1     -22.360  87.920   2.974  0.00  0.00    +0.000 C 
ATOM     22  C   UNL     1     -21.208  88.733   2.372  0.00  0.00    +0.000 C 
BRANCH  22  23
ATOM     23  O   UNL     1     -20.209  89.435   1.849  0.00  0.00    +0.000 OA
ATOM     24  H   UNL     1     -19.627  88.859   1.325  0.00  0.00    +0.000 HD
ENDBRANCH  22  23
ENDBRANCH  18  21
ENDBRANCH   1   8
BRANCH   5  25
ATOM     25  C   UNL     1     -28.411  86.535  12.699  0.00  0.00    +0.000 C 
ATOM     26  O   UNL     1     -29.249  87.329  12.279  0.00  0.00    +0.000 OA
ATOM     27  N   UNL     1     -28.100  86.426  14.049  0.00  0.00    +0.000 N 
ATOM     28  H   UNL     1     -27.128  86.205  14.260  0.00  0.00    +0.000 HD
BRANCH  27  29
ATOM     29  C   UNL     1     -28.776  87.145  15.082  0.00  0.00    +0.000 A 
ATOM     30  C   UNL     1     -29.749  86.457  15.835  0.00  0.00    +0.000 A 
ATOM     31  C   UNL     1     -30.430  87.077  16.882  0.00  0.00    +0.000 A 
ATOM     32  C   UNL     1     -30.070  85.007  15.537  0.00  0.00    +0.000 C 
ATOM     33  C   UNL     1     -30.168  88.406  17.186  0.00  0.00    +0.000 A 
ATOM     34  C   UNL     1     -29.263  89.122  16.411  0.00  0.00    +0.000 A 
ATOM     35  C   UNL     1     -28.575  88.508  15.361  0.00  0.00    +0.000 A 
ATOM     36 CL   UNL     1     -27.698  89.577  14.324  0.00  0.00    +0.000 Cl
ENDBRANCH  27  29
ENDBRANCH   5  25
TORSDOF 5
ENDMDL
MODEL 2
REMARK VINA RESULT:      -6.4      8.055     11.097
REMARK  Name = Dasatinib.pdbqt.pdb
REMARK  5 active torsions:
REMARK  status: ('A' for Active; 'I' for Inactive)
REMARK    1  A    between atoms: N_1  and  C_3
REMARK    2  A    between atoms: N_13  and  C_16
REMARK    3  A    between atoms: C_17  and  O_18
REMARK    4  A    between atoms: C_22  and  C_25
REMARK    5  A    between atoms: N_27  and  C_29
REMARK                            x       y       z     vdW  Elec       q    Type
REMARK                         _______ _______ _______ _____ _____    ______ ____
ROOT
ATOM      1  N   UNL     1     -23.098  86.637  17.262  0.00  0.00    +0.000 N 
ATOM      2  H   UNL     1     -23.220  86.185  18.160  0.00  0.00    +0.000 HD
ATOM      3  C   UNL     1     -24.230  86.966  16.598  0.00  0.00    +0.000 A 
ATOM      4  S   UNL     1     -25.754  86.465  17.244  0.00  0.00    +0.000 S 
ATOM      5  C   UNL     1     -26.564  87.194  15.922  0.00  0.00    +0.000 A 
ATOM      6  C   UNL     1     -25.626  87.750  15.086  0.00  0.00    +0.000 A 
ATOM      7  N   UNL     1     -24.312  87.598  15.449  0.00  0.00    +0.000 NA
ENDROOT
BRANCH   1   8
ATOM      8  C   UNL     1     -21.877  87.339  17.162  0.00  0.00    +0.000 A 
ATOM      9  N   UNL     1     -21.010  87.103  16.171  0.00  0.00    +0.000 NA
ATOM     10  C   UNL     1     -19.856  87.779  16.193  0.00  0.00    +0.000 A 
ATOM     11  N   UNL     1     -19.504  88.684  17.114  0.00  0.00    +0.000 NA
ATOM     12  C   UNL     1     -18.886  87.533  15.074  0.00  0.00    +0.000 C 
ATOM     13  C   UNL     1     -20.386  88.929  18.098  0.00  0.00    +0.000 A 
ATOM     14  C   UNL     1     -21.596  88.254  18.159  0.00  0.00    +0.000 A 
ATOM     15  N   UNL     1     -20.064  89.846  19.134  0.00  0.00    +0.000 N 
ATOM     16  C   UNL     1     -21.162  90.660  19.720  0.00  0.00    +0.000 C 
ATOM     17  C   UNL     1     -21.203  92.197  19.937  0.00  0.00    +0.000 C 
ATOM     18  N   UNL     1     -20.229  93.286  19.646  0.00  0.00    +0.000 N 
ATOM     19  C   UNL     1     -19.164  92.418  19.072  0.00  0.00    +0.000 C 
ATOM     20  C   UNL     1     -19.053  90.891  18.826  0.00  0.00    +0.000 C 
BRANCH  18  21
ATOM     21  C   UNL     1     -19.735  93.759  20.932  0.00  0.00    +0.000 C 
ATOM     22  C   UNL     1     -19.217  94.257  22.288  0.00  0.00    +0.000 C 
BRANCH  22  23
ATOM     23  O   UNL     1     -18.771  94.689  23.461  0.00  0.00    +0.000 OA
ATOM     24  H   UNL     1     -17.928  95.161  23.351  0.00  0.00    +0.000 HD
ENDBRANCH  22  23
ENDBRANCH  18  21
ENDBRANCH   1   8
BRANCH   5  25
ATOM     25  C   UNL     1     -28.006  87.173  15.824  0.00  0.00    +0.000 C 
ATOM     26  O   UNL     1     -28.607  86.788  14.824  0.00  0.00    +0.000 OA
ATOM     27  N   UNL     1     -28.662  87.705  16.927  0.00  0.00    +0.000 N 
ATOM     28  H   UNL     1     -28.164  88.443  17.422  0.00  0.00    +0.000 HD
BRANCH  27  29
ATOM     29  C   UNL     1     -30.084  87.771  17.052  0.00  0.00    +0.000 A 
ATOM     30  C   UNL     1     -30.692  89.043  16.995  0.00  0.00    +0.000 A 
ATOM     31  C   UNL     1     -32.075  89.192  17.076  0.00  0.00    +0.000 A 
ATOM     32  C   UNL     1     -29.850  90.291  16.825  0.00  0.00    +0.000 C 
ATOM     33  C   UNL     1     -32.883  88.073  17.236  0.00  0.00    +0.000 A 
ATOM     34  C   UNL     1     -32.299  86.818  17.363  0.00  0.00    +0.000 A 
ATOM     35  C   UNL     1     -30.913  86.660  17.283  0.00  0.00    +0.000 A 
ATOM     36 CL   UNL     1     -30.317  85.100  17.728  0.00  0.00    +0.000 Cl
ENDBRANCH  27  29
ENDBRANCH   5  25
TORSDOF 5
ENDMDL
MODEL 3
REMARK VINA RESULT:      -6.0      6.327      7.730
REMARK  Name = Dasatinib.pdbqt.pdb
REMARK  5 active torsions:
REMARK  status: ('A' for Active; 'I' for Inactive)
REMARK    1  A    between atoms: N_1  and  C_3
REMARK    2  A    between atoms: N_13  and  C_16
REMARK    3  A    between atoms: C_17  and  O_18
REMARK    4  A    between atoms: C_22  and  C_25
REMARK    5  A    between atoms: N_27  and  C_29
REMARK                            x       y       z     vdW  Elec       q    Type
REMARK                         _______ _______ _______ _____ _____    ______ ____
ROOT
ATOM      1  N   UNL     1     -29.492  82.101   8.669  0.00  0.00    +0.000 N 
ATOM      2  H   UNL     1     -29.575  82.955   8.131  0.00  0.00    +0.000 HD
ATOM      3  C   UNL     1     -29.229  82.247   9.988  0.00  0.00    +0.000 A 
ATOM      4  S   UNL     1     -28.912  83.831  10.607  0.00  0.00    +0.000 S 
ATOM      5  C   UNL     1     -28.682  83.181  12.176  0.00  0.00    +0.000 A 
ATOM      6  C   UNL     1     -28.851  81.818  12.115  0.00  0.00    +0.000 A 
ATOM      7  N   UNL     1     -29.130  81.288  10.881  0.00  0.00    +0.000 NA
ENDROOT
BRANCH   1   8
ATOM      8  C   UNL     1     -30.219  81.027   8.111  0.00  0.00    +0.000 A 
ATOM      9  N   UNL     1     -31.498  80.801   8.434  0.00  0.00    +0.000 NA
ATOM     10  C   UNL     1     -32.083  79.725   7.897  0.00  0.00    +0.000 A 
ATOM     11  N   UNL     1     -31.504  78.866   7.051  0.00  0.00    +0.000 NA
ATOM     12  C   UNL     1     -33.523  79.476   8.240  0.00  0.00    +0.000 C 
ATOM     13  C   UNL     1     -30.224  79.107   6.718  0.00  0.00    +0.000 A 
ATOM     14  C   UNL     1     -29.538  80.188   7.248  0.00  0.00    +0.000 A 
ATOM     15  N   UNL     1     -29.530  78.214   5.858  0.00  0.00    +0.000 N 
ATOM     16  C   UNL     1     -28.514  78.779   4.929  0.00  0.00    +0.000 C 
ATOM     17  C   UNL     1     -28.378  78.541   3.401  0.00  0.00    +0.000 C 
ATOM     18  N   UNL     1     -29.165  77.732   2.429  0.00  0.00    +0.000 N 
ATOM     19  C   UNL     1     -30.152  77.196   3.407  0.00  0.00    +0.000 C 
ATOM     20  C   UNL     1     -30.348  77.387   4.934  0.00  0.00    +0.000 C 
BRANCH  18  21
ATOM     21  C   UNL     1     -28.319  76.615   2.033  0.00  0.00    +0.000 C 
ATOM     22  C   UNL     1     -27.427  75.438   1.618  0.00  0.00    +0.000 C 
BRANCH  22  23
ATOM     23  O   UNL     1     -26.654  74.419   1.261  0.00  0.00    +0.000 OA
ATOM     24  H   UNL     1     -25.850  74.741   0.820  0.00  0.00    +0.000 HD
ENDBRANCH  22  23
ENDBRANCH  18  21
ENDBRANCH   1   8
BRANCH   5  25
ATOM     25  C   UNL     1     -28.380  84.035  13.303  0.00  0.00    +0.000 C 
ATOM     26  O   UNL     1     -27.723  83.662  14.272  0.00  0.00    +0.000 OA
ATOM     27  N   UNL     1     -28.967  85.293  13.241  0.00  0.00    +0.000 N 
ATOM     28  H   UNL     1     -29.859  85.339  12.750  0.00  0.00    +0.000 HD
BRANCH  27  29
ATOM     29  C   UNL     1     -28.792  86.302  14.237  0.00  0.00    +0.000 A 
ATOM     30  C   UNL     1     -27.762  87.247  14.044  0.00  0.00    +0.000 A 
ATOM     31  C   UNL     1     -27.547  88.282  14.951  0.00  0.00    +0.000 A 
ATOM     32  C   UNL     1     -26.867  87.172  12.824  0.00  0.00    +0.000 C 
ATOM     33  C   UNL     1     -28.343  88.385  16.085  0.00  0.00    +0.000 A 
ATOM     34  C   UNL     1     -29.318  87.425  16.329  0.00  0.00    +0.000 A 
ATOM     35  C   UNL     1     -29.540  86.383  15.423  0.00  0.00    +0.000 A 
ATOM     36 CL   UNL     1     -30.583  85.124  15.984  0.00  0.00    +0.000 Cl
ENDBRANCH  27  29
ENDBRANCH   5  25
TORSDOF 5
ENDMDL
MODEL 4
REMARK VINA RESULT:      -5.9     22.527     24.765
REMARK  Name = Dasatinib.pdbqt.pdb
REMARK  5 active torsions:
REMARK  status: ('A' for Active; 'I' for Inactive)
REMARK    1  A    between atoms: N_1  and  C_3
REMARK    2  A    between atoms: N_13  and  C_16
REMARK    3  A    between atoms: C_17  and  O_18
REMARK    4  A    between atoms: C_22  and  C_25
REMARK    5  A    between atoms: N_27  and  C_29
REMARK                            x       y       z     vdW  Elec       q    Type
REMARK                         _______ _______ _______ _____ _____    ______ ____
ROOT
ATOM      1  N   UNL     1     -36.689 105.941   5.612  0.00  0.00    +0.000 N 
ATOM      2  H   UNL     1     -37.436 106.589   5.832  0.00  0.00    +0.000 HD
ATOM      3  C   UNL     1     -37.017 104.899   4.813  0.00  0.00    +0.000 A 
ATOM      4  S   UNL     1     -38.673 104.675   4.367  0.00  0.00    +0.000 S 
ATOM      5  C   UNL     1     -38.251 103.277   3.471  0.00  0.00    +0.000 A 
ATOM      6  C   UNL     1     -36.896 103.076   3.583  0.00  0.00    +0.000 A 
ATOM      7  N   UNL     1     -36.205 103.970   4.360  0.00  0.00    +0.000 NA
ENDROOT
BRANCH   1   8
ATOM      8  C   UNL     1     -35.410 106.536   5.669  0.00  0.00    +0.000 A 
ATOM      9  N   UNL     1     -34.651 106.676   4.576  0.00  0.00    +0.000 NA
ATOM     10  C   UNL     1     -33.431 107.199   4.741  0.00  0.00    +0.000 A 
ATOM     11  N   UNL     1     -32.914 107.611   5.904  0.00  0.00    +0.000 NA
ATOM     12  C   UNL     1     -32.582 107.377   3.516  0.00  0.00    +0.000 C 
ATOM     13  C   UNL     1     -33.687 107.482   6.996  0.00  0.00    +0.000 A 
ATOM     14  C   UNL     1     -34.955 106.929   6.914  0.00  0.00    +0.000 A 
ATOM     15  N   UNL     1     -33.189 107.858   8.272  0.00  0.00    +0.000 N 
ATOM     16  C   UNL     1     -34.143 108.427   9.261  0.00  0.00    +0.000 C 
ATOM     17  C   UNL     1     -33.999 109.731  10.090  0.00  0.00    +0.000 C 
ATOM     18  N   UNL     1     -32.936 110.773  10.161  0.00  0.00    +0.000 N 
ATOM     19  C   UNL     1     -32.019 110.153   9.164  0.00  0.00    +0.000 C 
ATOM     20  C   UNL     1     -32.095 108.864   8.304  0.00  0.00    +0.000 C 
BRANCH  18  21
ATOM     21  C   UNL     1     -32.297 110.630  11.462  0.00  0.00    +0.000 C 
ATOM     22  C   UNL     1     -31.624 110.479  12.832  0.00  0.00    +0.000 C 
BRANCH  22  23
ATOM     23  O   UNL     1     -31.040 110.345  14.017  0.00  0.00    +0.000 OA
ATOM     24  H   UNL     1     -31.705 110.177  14.706  0.00  0.00    +0.000 HD
ENDBRANCH  22  23
ENDBRANCH  18  21
ENDBRANCH   1   8
BRANCH   5  25
ATOM     25  C   UNL     1     -39.249 102.525   2.743  0.00  0.00    +0.000 C 
ATOM     26  O   UNL     1     -38.969 101.650   1.927  0.00  0.00    +0.000 OA
ATOM     27  N   UNL     1     -40.556 102.930   2.980  0.00  0.00    +0.000 N 
ATOM     28  H   UNL     1     -40.677 103.917   3.203  0.00  0.00    +0.000 HD
BRANCH  27  29
ATOM     29  C   UNL     1     -41.700 102.319   2.381  0.00  0.00    +0.000 A 
ATOM     30  C   UNL     1     -42.345 101.287   3.094  0.00  0.00    +0.000 A 
ATOM     31  C   UNL     1     -43.486 100.662   2.595  0.00  0.00    +0.000 A 
ATOM     32  C   UNL     1     -41.822 100.840   4.444  0.00  0.00    +0.000 C 
ATOM     33  C   UNL     1     -43.997 101.039   1.360  0.00  0.00    +0.000 A 
ATOM     34  C   UNL     1     -43.337 102.006   0.610  0.00  0.00    +0.000 A 
ATOM     35  C   UNL     1     -42.192 102.638   1.105  0.00  0.00    +0.000 A 
ATOM     36 CL   UNL     1     -41.330 103.607  -0.038  0.00  0.00    +0.000 Cl
ENDBRANCH  27  29
ENDBRANCH   5  25
TORSDOF 5
ENDMDL
MODEL 5
REMARK VINA RESULT:      -5.9     18.627     24.381
REMARK  Name = Dasatinib.pdbqt.pdb
REMARK  5 active torsions:
REMARK  status: ('A' for Active; 'I' for Inactive)
REMARK    1  A    between atoms: N_1  and  C_3
REMARK    2  A    between atoms: N_13  and  C_16
REMARK    3  A    between atoms: C_17  and  O_18
REMARK    4  A    between atoms: C_22  and  C_25
REMARK    5  A    between atoms: N_27  and  C_29
REMARK                            x       y       z     vdW  Elec       q    Type
REMARK                         _______ _______ _______ _____ _____    ______ ____
ROOT
ATOM      1  N   UNL     1     -41.051 102.626  14.726  0.00  0.00    +0.000 N 
ATOM      2  H   UNL     1     -41.166 102.486  15.723  0.00  0.00    +0.000 HD
ATOM      3  C   UNL     1     -39.967 102.046  14.161  0.00  0.00    +0.000 A 
ATOM      4  S   UNL     1     -38.811 101.262  15.181  0.00  0.00    +0.000 S 
ATOM      5  C   UNL     1     -37.859 100.866  13.812  0.00  0.00    +0.000 A 
ATOM      6  C   UNL     1     -38.477 101.363  12.689  0.00  0.00    +0.000 A 
ATOM      7  N   UNL     1     -39.647 102.051  12.886  0.00  0.00    +0.000 NA
ENDROOT
BRANCH   1   8
ATOM      8  C   UNL     1     -42.274 102.860  14.059  0.00  0.00    +0.000 A 
ATOM      9  N   UNL     1     -42.323 103.506  12.888  0.00  0.00    +0.000 NA
ATOM     10  C   UNL     1     -43.532 103.730  12.363  0.00  0.00    +0.000 A 
ATOM     11  N   UNL     1     -44.696 103.346  12.901  0.00  0.00    +0.000 NA
ATOM     12  C   UNL     1     -43.594 104.437  11.040  0.00  0.00    +0.000 C 
ATOM     13  C   UNL     1     -44.639 102.684  14.069  0.00  0.00    +0.000 A 
ATOM     14  C   UNL     1     -43.426 102.431  14.691  0.00  0.00    +0.000 A 
ATOM     15  N   UNL     1     -45.836 102.282  14.721  0.00  0.00    +0.000 N 
ATOM     16  C   UNL     1     -45.824 101.010  15.493  0.00  0.00    +0.000 C 
ATOM     17  C   UNL     1     -46.829  99.830  15.408  0.00  0.00    +0.000 C 
ATOM     18  N   UNL     1     -48.046  99.594  14.582  0.00  0.00    +0.000 N 
ATOM     19  C   UNL     1     -48.006 100.887  13.842  0.00  0.00    +0.000 C 
ATOM     20  C   UNL     1     -47.043 102.103  13.873  0.00  0.00    +0.000 C 
BRANCH  18  21
ATOM     21  C   UNL     1     -49.185  99.664  15.486  0.00  0.00    +0.000 C 
ATOM     22  C   UNL     1     -50.386  99.739  16.437  0.00  0.00    +0.000 C 
BRANCH  22  23
ATOM     23  O   UNL     1     -51.427  99.805  17.259  0.00  0.00    +0.000 OA
ATOM     24  H   UNL     1     -52.178  99.306  16.897  0.00  0.00    +0.000 HD
ENDBRANCH  22  23
ENDBRANCH  18  21
ENDBRANCH   1   8
BRANCH   5  25
ATOM     25  C   UNL     1     -36.633 100.113  13.946  0.00  0.00    +0.000 C 
ATOM     26  O   UNL     1     -36.406  99.080  13.320  0.00  0.00    +0.000 OA
ATOM     27  N   UNL     1     -35.759 100.608  14.906  0.00  0.00    +0.000 N 
ATOM     28  H   UNL     1     -36.196 101.077  15.698  0.00  0.00    +0.000 HD
BRANCH  27  29
ATOM     29  C   UNL     1     -34.484 100.031  15.195  0.00  0.00    +0.000 A 
ATOM     30  C   UNL     1     -33.369 100.499  14.470  0.00  0.00    +0.000 A 
ATOM     31  C   UNL     1     -32.086 100.012  14.714  0.00  0.00    +0.000 A 
ATOM     32  C   UNL     1     -33.534 101.568  13.410  0.00  0.00    +0.000 C 
ATOM     33  C   UNL     1     -31.892  99.029  15.676  0.00  0.00    +0.000 A 
ATOM     34  C   UNL     1     -32.986  98.504  16.353  0.00  0.00    +0.000 A 
ATOM     35  C   UNL     1     -34.276  98.988  16.114  0.00  0.00    +0.000 A 
ATOM     36 CL   UNL     1     -35.556  98.065  16.818  0.00  0.00    +0.000 Cl
ENDBRANCH  27  29
ENDBRANCH   5  25
TORSDOF 5
ENDMDL
MODEL 6
REMARK VINA RESULT:      -5.8     26.605     30.341
REMARK  Name = Dasatinib.pdbqt.pdb
REMARK  5 active torsions:
REMARK  status: ('A' for Active; 'I' for Inactive)
REMARK    1  A    between atoms: N_1  and  C_3
REMARK    2  A    between atoms: N_13  and  C_16
REMARK    3  A    between atoms: C_17  and  O_18
REMARK    4  A    between atoms: C_22  and  C_25
REMARK    5  A    between atoms: N_27  and  C_29
REMARK                            x       y       z     vdW  Elec       q    Type
REMARK                         _______ _______ _______ _____ _____    ______ ____
ROOT
ATOM      1  N   UNL     1     -32.893  99.893 -13.574  0.00  0.00    +0.000 N 
ATOM      2  H   UNL     1     -32.222 100.610 -13.327  0.00  0.00    +0.000 HD
ATOM      3  C   UNL     1     -32.389  98.658 -13.806  0.00  0.00    +0.000 A 
ATOM      4  S   UNL     1     -30.674  98.441 -13.811  0.00  0.00    +0.000 S 
ATOM      5  C   UNL     1     -30.876  96.777 -14.164  0.00  0.00    +0.000 A 
ATOM      6  C   UNL     1     -32.220  96.510 -14.263  0.00  0.00    +0.000 A 
ATOM      7  N   UNL     1     -33.072  97.571 -14.090  0.00  0.00    +0.000 NA
ENDROOT
BRANCH   1   8
ATOM      8  C   UNL     1     -34.186 100.148 -13.069  0.00  0.00    +0.000 A 
ATOM      9  N   UNL     1     -34.586  99.668 -11.885  0.00  0.00    +0.000 NA
ATOM     10  C   UNL     1     -35.848  99.917 -11.519  0.00  0.00    +0.000 A 
ATOM     11  N   UNL     1     -36.738 100.620 -12.228  0.00  0.00    +0.000 NA
ATOM     12  C   UNL     1     -36.297  99.398 -10.184  0.00  0.00    +0.000 C 
ATOM     13  C   UNL     1     -36.326 101.113 -13.409  0.00  0.00    +0.000 A 
ATOM     14  C   UNL     1     -35.040 100.882 -13.872  0.00  0.00    +0.000 A 
ATOM     15  N   UNL     1     -37.229 101.833 -14.236  0.00  0.00    +0.000 N 
ATOM     16  C   UNL     1     -36.691 102.949 -15.060  0.00  0.00    +0.000 C 
ATOM     17  C   UNL     1     -37.226 104.402 -15.170  0.00  0.00    +0.000 C 
ATOM     18  N   UNL     1     -38.369 105.111 -14.529  0.00  0.00    +0.000 N 
ATOM     19  C   UNL     1     -38.863 103.956 -13.729  0.00  0.00    +0.000 C 
ATOM     20  C   UNL     1     -38.385 102.489 -13.570  0.00  0.00    +0.000 C 
BRANCH  18  21
ATOM     21  C   UNL     1     -39.354 105.347 -15.576  0.00  0.00    +0.000 C 
ATOM     22  C   UNL     1     -40.391 105.597 -16.679  0.00  0.00    +0.000 C 
BRANCH  22  23
ATOM     23  O   UNL     1     -41.286 105.815 -17.634  0.00  0.00    +0.000 OA
ATOM     24  H   UNL     1     -41.657 104.974 -17.949  0.00  0.00    +0.000 HD
ENDBRANCH  22  23
ENDBRANCH  18  21
ENDBRANCH   1   8
BRANCH   5  25
ATOM     25  C   UNL     1     -29.737  95.896 -14.296  0.00  0.00    +0.000 C 
ATOM     26  O   UNL     1     -29.606  94.864 -13.643  0.00  0.00    +0.000 OA
ATOM     27  N   UNL     1     -28.756  96.355 -15.166  0.00  0.00    +0.000 N 
ATOM     28  H   UNL     1     -28.668  97.369 -15.234  0.00  0.00    +0.000 HD
BRANCH  27  29
ATOM     29  C   UNL     1     -27.554  95.641 -15.459  0.00  0.00    +0.000 A 
ATOM     30  C   UNL     1     -26.335  96.189 -15.009  0.00  0.00    +0.000 A 
ATOM     31  C   UNL     1     -25.122  95.538 -15.225  0.00  0.00    +0.000 A 
ATOM     32  C   UNL     1     -26.314  97.502 -14.254  0.00  0.00    +0.000 C 
ATOM     33  C   UNL     1     -25.097  94.333 -15.916  0.00  0.00    +0.000 A 
ATOM     34  C   UNL     1     -26.279  93.810 -16.428  0.00  0.00    +0.000 A 
ATOM     35  C   UNL     1     -27.500  94.457 -16.214  0.00  0.00    +0.000 A 
ATOM     36 CL   UNL     1     -28.832  93.847 -17.132  0.00  0.00    +0.000 Cl
ENDBRANCH  27  29
ENDBRANCH   5  25
TORSDOF 5
ENDMDL
MODEL 7
REMARK VINA RESULT:      -5.8     18.403     23.932
REMARK  Name = Dasatinib.pdbqt.pdb
REMARK  5 active torsions:
REMARK  status: ('A' for Active; 'I' for Inactive)
REMARK    1  A    between atoms: N_1  and  C_3
REMARK    2  A    between atoms: N_13  and  C_16
REMARK    3  A    between atoms: C_17  and  O_18
REMARK    4  A    between atoms: C_22  and  C_25
REMARK    5  A    between atoms: N_27  and  C_29
REMARK                            x       y       z     vdW  Elec       q    Type
REMARK                         _______ _______ _______ _____ _____    ______ ____
ROOT
ATOM      1  N   UNL     1     -40.363 103.641  13.464  0.00  0.00    +0.000 N 
ATOM      2  H   UNL     1     -40.226 104.563  13.859  0.00  0.00    +0.000 HD
ATOM      3  C   UNL     1     -39.254 102.876  13.331  0.00  0.00    +0.000 A 
ATOM      4  S   UNL     1     -37.712 103.570  13.693  0.00  0.00    +0.000 S 
ATOM      5  C   UNL     1     -36.943 102.094  13.284  0.00  0.00    +0.000 A 
ATOM      6  C   UNL     1     -37.904 101.192  12.894  0.00  0.00    +0.000 A 
ATOM      7  N   UNL     1     -39.201 101.638  12.893  0.00  0.00    +0.000 NA
ENDROOT
BRANCH   1   8
ATOM      8  C   UNL     1     -41.663 103.135  13.682  0.00  0.00    +0.000 A 
ATOM      9  N   UNL     1     -42.546 103.011  12.685  0.00  0.00    +0.000 NA
ATOM     10  C   UNL     1     -43.771 102.576  13.001  0.00  0.00    +0.000 A 
ATOM     11  N   UNL     1     -44.181 102.238  14.229  0.00  0.00    +0.000 NA
ATOM     12  C   UNL     1     -44.760 102.416  11.884  0.00  0.00    +0.000 C 
ATOM     13  C   UNL     1     -43.285 102.350  15.225  0.00  0.00    +0.000 A 
ATOM     14  C   UNL     1     -42.001 102.814  14.984  0.00  0.00    +0.000 A 
ATOM     15  N   UNL     1     -43.662 102.050  16.561  0.00  0.00    +0.000 N 
ATOM     16  C   UNL     1     -42.641 101.450  17.462  0.00  0.00    +0.000 C 
ATOM     17  C   UNL     1     -42.775 100.186  18.353  0.00  0.00    +0.000 C 
ATOM     18  N   UNL     1     -43.888  99.221  18.580  0.00  0.00    +0.000 N 
ATOM     19  C   UNL     1     -44.868  99.869  17.665  0.00  0.00    +0.000 C 
ATOM     20  C   UNL     1     -44.807 101.121  16.752  0.00  0.00    +0.000 C 
BRANCH  18  21
ATOM     21  C   UNL     1     -44.368  99.448  19.937  0.00  0.00    +0.000 C 
ATOM     22  C   UNL     1     -44.872  99.687  21.366  0.00  0.00    +0.000 C 
BRANCH  22  23
ATOM     23  O   UNL     1     -45.306  99.892  22.603  0.00  0.00    +0.000 OA
ATOM     24  H   UNL     1     -44.822  99.329  23.231  0.00  0.00    +0.000 HD
ENDBRANCH  22  23
ENDBRANCH  18  21
ENDBRANCH   1   8
BRANCH   5  25
ATOM     25  C   UNL     1     -35.509 101.943  13.389  0.00  0.00    +0.000 C 
ATOM     26  O   UNL     1     -34.763 101.905  12.414  0.00  0.00    +0.000 OA
ATOM     27  N   UNL     1     -35.047 101.760  14.687  0.00  0.00    +0.000 N 
ATOM     28  H   UNL     1     -35.689 101.286  15.320  0.00  0.00    +0.000 HD
BRANCH  27  29
ATOM     29  C   UNL     1     -33.667 101.605  15.025  0.00  0.00    +0.000 A 
ATOM     30  C   UNL     1     -33.162 100.294  15.149  0.00  0.00    +0.000 A 
ATOM     31  C   UNL     1     -31.821 100.056  15.444  0.00  0.00    +0.000 A 
ATOM     32  C   UNL     1     -34.068  99.098  14.942  0.00  0.00    +0.000 C 
ATOM     33  C   UNL     1     -30.957 101.126  15.644  0.00  0.00    +0.000 A 
ATOM     34  C   UNL     1     -31.450 102.425  15.595  0.00  0.00    +0.000 A 
ATOM     35  C   UNL     1     -32.794 102.671  15.299  0.00  0.00    +0.000 A 
ATOM     36 CL   UNL     1     -33.319 104.300  15.541  0.00  0.00    +0.000 Cl
ENDBRANCH  27  29
ENDBRANCH   5  25
TORSDOF 5
ENDMDL
MODEL 8
REMARK VINA RESULT:      -5.8     17.989     23.881
REMARK  Name = Dasatinib.pdbqt.pdb
REMARK  5 active torsions:
REMARK  status: ('A' for Active; 'I' for Inactive)
REMARK    1  A    between atoms: N_1  and  C_3
REMARK    2  A    between atoms: N_13  and  C_16
REMARK    3  A    between atoms: C_17  and  O_18
REMARK    4  A    between atoms: C_22  and  C_25
REMARK    5  A    between atoms: N_27  and  C_29
REMARK                            x       y       z     vdW  Elec       q    Type
REMARK                         _______ _______ _______ _____ _____    ______ ____
ROOT
ATOM      1  N   UNL     1     -40.127 102.927  14.140  0.00  0.00    +0.000 N 
ATOM      2  H   UNL     1     -39.878 103.651  14.803  0.00  0.00    +0.000 HD
ATOM      3  C   UNL     1     -39.218 101.940  13.961  0.00  0.00    +0.000 A 
ATOM      4  S   UNL     1     -37.679 102.071  14.740  0.00  0.00    +0.000 S 
ATOM      5  C   UNL     1     -37.190 100.584  14.041  0.00  0.00    +0.000 A 
ATOM      6  C   UNL     1     -38.218 100.106  13.265  0.00  0.00    +0.000 A 
ATOM      7  N   UNL     1     -39.348 100.880  13.195  0.00  0.00    +0.000 NA
ENDROOT
BRANCH   1   8
ATOM      8  C   UNL     1     -41.523 102.764  14.001  0.00  0.00    +0.000 A 
ATOM      9  N   UNL     1     -42.136 102.926  12.823  0.00  0.00    +0.000 NA
ATOM     10  C   UNL     1     -43.468 102.807  12.805  0.00  0.00    +0.000 A 
ATOM     11  N   UNL     1     -44.237 102.521  13.862  0.00  0.00    +0.000 NA
ATOM     12  C   UNL     1     -44.160 102.969  11.483  0.00  0.00    +0.000 C 
ATOM     13  C   UNL     1     -43.614 102.344  15.040  0.00  0.00    +0.000 A 
ATOM     14  C   UNL     1     -42.238 102.472  15.149  0.00  0.00    +0.000 A 
ATOM     15  N   UNL     1     -44.369 102.080  16.214  0.00  0.00    +0.000 N 
ATOM     16  C   UNL     1     -43.775 101.189  17.247  0.00  0.00    +0.000 C 
ATOM     17  C   UNL     1     -44.422  99.957  17.935  0.00  0.00    +0.000 C 
ATOM     18  N   UNL     1     -45.752  99.302  17.794  0.00  0.00    +0.000 N 
ATOM     19  C   UNL     1     -46.294 100.229  16.761  0.00  0.00    +0.000 C 
ATOM     20  C   UNL     1     -45.712 101.470  16.035  0.00  0.00    +0.000 C 
BRANCH  18  21
ATOM     21  C   UNL     1     -46.484  99.572  19.024  0.00  0.00    +0.000 C 
ATOM     22  C   UNL     1     -47.254  99.859  20.319  0.00  0.00    +0.000 C 
BRANCH  22  23
ATOM     23  O   UNL     1     -47.920 100.109  21.440  0.00  0.00    +0.000 OA
ATOM     24  H   UNL     1     -47.334 100.515  22.100  0.00  0.00    +0.000 HD
ENDBRANCH  22  23
ENDBRANCH  18  21
ENDBRANCH   1   8
BRANCH   5  25
ATOM     25  C   UNL     1     -35.887 100.021  14.315  0.00  0.00    +0.000 C 
ATOM     26  O   UNL     1     -35.486  98.976  13.809  0.00  0.00    +0.000 OA
ATOM     27  N   UNL     1     -35.152 100.717  15.267  0.00  0.00    +0.000 N 
ATOM     28  H   UNL     1     -35.698 101.192  15.984  0.00  0.00    +0.000 HD
BRANCH  27  29
ATOM     29  C   UNL     1     -33.835 100.348  15.680  0.00  0.00    +0.000 A 
ATOM     30  C   UNL     1     -32.749 100.805  14.904  0.00  0.00    +0.000 A 
ATOM     31  C   UNL     1     -31.431 100.518  15.257  0.00  0.00    +0.000 A 
ATOM     32  C   UNL     1     -32.986 101.645  13.666  0.00  0.00    +0.000 C 
ATOM     33  C   UNL     1     -31.170  99.748  16.384  0.00  0.00    +0.000 A 
ATOM     34  C   UNL     1     -32.227  99.231  17.123  0.00  0.00    +0.000 A 
ATOM     35  C   UNL     1     -33.551  99.515  16.775  0.00  0.00    +0.000 A 
ATOM     36 CL   UNL     1     -34.751  98.591  17.608  0.00  0.00    +0.000 Cl
ENDBRANCH  27  29
ENDBRANCH   5  25
TORSDOF 5
ENDMDL
MODEL 9
REMARK VINA RESULT:      -5.8     18.868     23.078
REMARK  Name = Dasatinib.pdbqt.pdb
REMARK  5 active torsions:
REMARK  status: ('A' for Active; 'I' for Inactive)
REMARK    1  A    between atoms: N_1  and  C_3
REMARK    2  A    between atoms: N_13  and  C_16
REMARK    3  A    between atoms: C_17  and  O_18
REMARK    4  A    between atoms: C_22  and  C_25
REMARK    5  A    between atoms: N_27  and  C_29
REMARK                            x       y       z     vdW  Elec       q    Type
REMARK                         _______ _______ _______ _____ _____    ______ ____
ROOT
ATOM      1  N   UNL     1     -26.498 107.154  -0.394  0.00  0.00    +0.000 N 
ATOM      2  H   UNL     1     -27.029 107.737   0.241  0.00  0.00    +0.000 HD
ATOM      3  C   UNL     1     -25.865 106.091   0.156  0.00  0.00    +0.000 A 
ATOM      4  S   UNL     1     -25.885 105.905   1.876  0.00  0.00    +0.000 S 
ATOM      5  C   UNL     1     -24.941 104.482   1.741  0.00  0.00    +0.000 A 
ATOM      6  C   UNL     1     -24.671 104.258   0.412  0.00  0.00    +0.000 A 
ATOM      7  N   UNL     1     -25.166 105.177  -0.478  0.00  0.00    +0.000 NA
ENDROOT
BRANCH   1   8
ATOM      8  C   UNL     1     -26.984 107.198  -1.719  0.00  0.00    +0.000 A 
ATOM      9  N   UNL     1     -26.157 107.215  -2.770  0.00  0.00    +0.000 NA
ATOM     10  C   UNL     1     -26.711 107.315  -3.984  0.00  0.00    +0.000 A 
ATOM     11  N   UNL     1     -28.024 107.382  -4.235  0.00  0.00    +0.000 NA
ATOM     12  C   UNL     1     -25.790 107.316  -5.169  0.00  0.00    +0.000 C 
ATOM     13  C   UNL     1     -28.851 107.349  -3.175  0.00  0.00    +0.000 A 
ATOM     14  C   UNL     1     -28.355 107.268  -1.883  0.00  0.00    +0.000 A 
ATOM     15  N   UNL     1     -30.254 107.458  -3.361  0.00  0.00    +0.000 N 
ATOM     16  C   UNL     1     -31.147 106.712  -2.435  0.00  0.00    +0.000 C 
ATOM     17  C   UNL     1     -32.328 105.770  -2.795  0.00  0.00    +0.000 C 
ATOM     18  N   UNL     1     -32.911 105.328  -4.093  0.00  0.00    +0.000 N 
ATOM     19  C   UNL     1     -31.988 106.102  -4.969  0.00  0.00    +0.000 C 
ATOM     20  C   UNL     1     -30.797 107.055  -4.685  0.00  0.00    +0.000 C 
BRANCH  18  21
ATOM     21  C   UNL     1     -34.218 105.960  -4.200  0.00  0.00    +0.000 C 
ATOM     22  C   UNL     1     -35.595 106.628  -4.315  0.00  0.00    +0.000 C 
BRANCH  22  23
ATOM     23  O   UNL     1     -36.785 107.208  -4.415  0.00  0.00    +0.000 OA
ATOM     24  H   UNL     1     -36.956 107.768  -3.639  0.00  0.00    +0.000 HD
ENDBRANCH  22  23
ENDBRANCH  18  21
ENDBRANCH   1   8
BRANCH   5  25
ATOM     25  C   UNL     1     -24.566 103.718   2.910  0.00  0.00    +0.000 C 
ATOM     26  O   UNL     1     -24.812 104.082   4.058  0.00  0.00    +0.000 OA
ATOM     27  N   UNL     1     -23.828 102.574   2.634  0.00  0.00    +0.000 N 
ATOM     28  H   UNL     1     -23.236 102.622   1.806  0.00  0.00    +0.000 HD
BRANCH  27  29
ATOM     29  C   UNL     1     -23.366 101.665   3.634  0.00  0.00    +0.000 A 
ATOM     30  C   UNL     1     -21.974 101.556   3.835  0.00  0.00    +0.000 A 
ATOM     31  C   UNL     1     -21.443 100.717   4.813  0.00  0.00    +0.000 A 
ATOM     32  C   UNL     1     -21.011 102.372   2.998  0.00  0.00    +0.000 C 
ATOM     33  C   UNL     1     -22.292  99.949   5.600  0.00  0.00    +0.000 A 
ATOM     34  C   UNL     1     -23.663  99.989   5.372  0.00  0.00    +0.000 A 
ATOM     35  C   UNL     1     -24.203 100.829   4.394  0.00  0.00    +0.000 A 
ATOM     36 CL   UNL     1     -25.875 100.574   4.038  0.00  0.00    +0.000 Cl
ENDBRANCH  27  29
ENDBRANCH   5  25
TORSDOF 5
ENDMDL
