MODEL 1
REMARK VINA RESULT:      -4.9      0.000      0.000
REMARK  Name = Decitabine.pdbqt.pdb
REMARK  4 active torsions:
REMARK  status: ('A' for Active; 'I' for Inactive)
REMARK    1  A    between atoms: N_2  and  C1*_8
REMARK    2  A    between atoms: C4*_10  and  C5*_13
REMARK    3  A    between atoms: C3*_11  and  O3*_16
REMARK    4  A    between atoms: C5*_13  and  O5*_14
REMARK                            x       y       z     vdW  Elec       q    Type
REMARK                         _______ _______ _______ _____ _____    ______ ____
ROOT
ATOM      1  O   UNL     1     -34.871  99.718  17.484  0.00  0.00    +0.000 OA
ATOM      2  N   UNL     1     -33.569  99.076  15.681  0.00  0.00    +0.000 N 
ATOM      3  N   UNL     1     -33.087  98.335  17.853  0.00  0.00    +0.000 NA
ATOM      4  N   UNL     1     -31.723  97.681  16.014  0.00  0.00    +0.000 NA
ATOM      5  C   UNL     1     -33.919  99.094  17.028  0.00  0.00    +0.000 A 
ATOM      6  C   UNL     1     -32.492  98.337  15.431  0.00  0.00    +0.000 A 
ATOM      7  C   UNL     1     -32.075  97.674  17.353  0.00  0.00    +0.000 A 
ATOM      8  N   UNL     1     -31.300  96.946  18.197  0.00  0.00    +0.000 N 
ATOM      9  H   UNL     1     -30.350  96.808  17.878  0.00  0.00    +0.000 HD
ATOM     10  H   UNL     1     -31.387  97.229  19.166  0.00  0.00    +0.000 HD
ENDROOT
BRANCH   2  11
ATOM     11  C1* UNL     1     -34.210  99.725  14.674  0.00  0.00    +0.000 A 
ATOM     12  O4* UNL     1     -35.538  99.445  14.335  0.00  0.00    +0.000 OA
ATOM     13  C4* UNL     1     -35.874 100.293  13.272  0.00  0.00    +0.000 A 
ATOM     14  C3* UNL     1     -34.735 101.110  12.941  0.00  0.00    +0.000 A 
ATOM     15  C2* UNL     1     -33.715 100.747  13.838  0.00  0.00    +0.000 A 
BRANCH  14  16
ATOM     16  O3* UNL     1     -34.895 102.366  12.428  0.00  0.00    +0.000 OA
ATOM     17  H3* UNL     1     -34.210 102.970  12.763  0.00  0.00    +0.000 HD
ENDBRANCH  14  16
BRANCH  13  18
ATOM     18  C5* UNL     1     -37.189 100.408  12.782  0.00  0.00    +0.000 C 
BRANCH  18  19
ATOM     19  O5* UNL     1     -38.430 100.517  12.315  0.00  0.00    +0.000 OA
ATOM     20  H5* UNL     1     -38.519 100.026  11.480  0.00  0.00    +0.000 HD
ENDBRANCH  18  19
ENDBRANCH  13  18
ENDBRANCH   2  11
TORSDOF 4
ENDMDL
MODEL 2
REMARK VINA RESULT:      -4.9      3.221      5.454
REMARK  Name = Decitabine.pdbqt.pdb
REMARK  4 active torsions:
REMARK  status: ('A' for Active; 'I' for Inactive)
REMARK    1  A    between atoms: N_2  and  C1*_8
REMARK    2  A    between atoms: C4*_10  and  C5*_13
REMARK    3  A    between atoms: C3*_11  and  O3*_16
REMARK    4  A    between atoms: C5*_13  and  O5*_14
REMARK                            x       y       z     vdW  Elec       q    Type
REMARK                         _______ _______ _______ _____ _____    ______ ____
ROOT
ATOM      1  O   UNL     1     -36.075 102.028  15.831  0.00  0.00    +0.000 OA
ATOM      2  N   UNL     1     -35.654 100.308  14.341  0.00  0.00    +0.000 N 
ATOM      3  N   UNL     1     -37.831 101.102  14.697  0.00  0.00    +0.000 NA
ATOM      4  N   UNL     1     -37.422  99.317  13.175  0.00  0.00    +0.000 NA
ATOM      5  C   UNL     1     -36.476 101.205  15.015  0.00  0.00    +0.000 A 
ATOM      6  C   UNL     1     -36.322  99.507  13.515  0.00  0.00    +0.000 A 
ATOM      7  C   UNL     1     -38.246 100.220  13.824  0.00  0.00    +0.000 A 
ATOM      8  N   UNL     1     -39.573 100.164  13.545  0.00  0.00    +0.000 N 
ATOM      9  H   UNL     1     -39.894  99.261  13.221  0.00  0.00    +0.000 HD
ATOM     10  H   UNL     1     -40.152 100.590  14.259  0.00  0.00    +0.000 HD
ENDROOT
BRANCH   2  11
ATOM     11  C1* UNL     1     -34.305 100.200  14.466  0.00  0.00    +0.000 A 
ATOM     12  O4* UNL     1     -33.709  99.220  15.266  0.00  0.00    +0.000 OA
ATOM     13  C4* UNL     1     -32.324  99.394  15.158  0.00  0.00    +0.000 A 
ATOM     14  C3* UNL     1     -32.054 100.505  14.281  0.00  0.00    +0.000 A 
ATOM     15  C2* UNL     1     -33.305 100.981  13.853  0.00  0.00    +0.000 A 
BRANCH  14  16
ATOM     16  O3* UNL     1     -30.917 100.545  13.525  0.00  0.00    +0.000 OA
ATOM     17  H3* UNL     1     -30.182 100.094  13.975  0.00  0.00    +0.000 HD
ENDBRANCH  14  16
BRANCH  13  18
ATOM     18  C5* UNL     1     -31.400  98.477  15.695  0.00  0.00    +0.000 C 
BRANCH  18  19
ATOM     19  O5* UNL     1     -30.530  97.607  16.201  0.00  0.00    +0.000 OA
ATOM     20  H5* UNL     1     -30.996  96.820  16.532  0.00  0.00    +0.000 HD
ENDBRANCH  18  19
ENDBRANCH  13  18
ENDBRANCH   2  11
TORSDOF 4
ENDMDL
MODEL 3
REMARK VINA RESULT:      -4.8      2.843      3.255
REMARK  Name = Decitabine.pdbqt.pdb
REMARK  4 active torsions:
REMARK  status: ('A' for Active; 'I' for Inactive)
REMARK    1  A    between atoms: N_2  and  C1*_8
REMARK    2  A    between atoms: C4*_10  and  C5*_13
REMARK    3  A    between atoms: C3*_11  and  O3*_16
REMARK    4  A    between atoms: C5*_13  and  O5*_14
REMARK                            x       y       z     vdW  Elec       q    Type
REMARK                         _______ _______ _______ _____ _____    ______ ____
ROOT
ATOM      1  O   UNL     1     -33.553 102.428  16.386  0.00  0.00    +0.000 OA
ATOM      2  N   UNL     1     -33.310 100.971  14.603  0.00  0.00    +0.000 N 
ATOM      3  N   UNL     1     -31.447 101.960  15.628  0.00  0.00    +0.000 NA
ATOM      4  N   UNL     1     -31.177 100.481  13.781  0.00  0.00    +0.000 NA
ATOM      5  C   UNL     1     -32.836 101.825  15.594  0.00  0.00    +0.000 A 
ATOM      6  C   UNL     1     -32.341 100.444  13.861  0.00  0.00    +0.000 A 
ATOM      7  C   UNL     1     -30.693 101.311  14.778  0.00  0.00    +0.000 A 
ATOM      8  N   UNL     1     -29.348 101.472  14.856  0.00  0.00    +0.000 N 
ATOM      9  H   UNL     1     -28.857 101.314  13.985  0.00  0.00    +0.000 HD
ATOM     10  H   UNL     1     -29.072 102.310  15.353  0.00  0.00    +0.000 HD
ENDROOT
BRANCH   2  11
ATOM     11  C1* UNL     1     -34.611 100.666  14.358  0.00  0.00    +0.000 A 
ATOM     12  O4* UNL     1     -35.496 101.588  13.788  0.00  0.00    +0.000 OA
ATOM     13  C4* UNL     1     -36.735 100.945  13.672  0.00  0.00    +0.000 A 
ATOM     14  C3* UNL     1     -36.620  99.603  14.183  0.00  0.00    +0.000 A 
ATOM     15  C2* UNL     1     -35.284  99.450  14.591  0.00  0.00    +0.000 A 
BRANCH  14  16
ATOM     16  O3* UNL     1     -37.392  98.591  13.685  0.00  0.00    +0.000 OA
ATOM     17  H3* UNL     1     -37.565  98.719  12.736  0.00  0.00    +0.000 HD
ENDBRANCH  14  16
BRANCH  13  18
ATOM     18  C5* UNL     1     -37.823 101.514  12.982  0.00  0.00    +0.000 C 
BRANCH  18  19
ATOM     19  O5* UNL     1     -38.852 102.053  12.335  0.00  0.00    +0.000 OA
ATOM     20  H5* UNL     1     -39.465 101.358  12.040  0.00  0.00    +0.000 HD
ENDBRANCH  18  19
ENDBRANCH  13  18
ENDBRANCH   2  11
TORSDOF 4
ENDMDL
MODEL 4
REMARK VINA RESULT:      -4.7      2.724      2.981
REMARK  Name = Decitabine.pdbqt.pdb
REMARK  4 active torsions:
REMARK  status: ('A' for Active; 'I' for Inactive)
REMARK    1  A    between atoms: N_2  and  C1*_8
REMARK    2  A    between atoms: C4*_10  and  C5*_13
REMARK    3  A    between atoms: C3*_11  and  O3*_16
REMARK    4  A    between atoms: C5*_13  and  O5*_14
REMARK                            x       y       z     vdW  Elec       q    Type
REMARK                         _______ _______ _______ _____ _____    ______ ____
ROOT
ATOM      1  O   UNL     1     -32.320 103.033  16.133  0.00  0.00    +0.000 OA
ATOM      2  N   UNL     1     -32.041 101.087  14.912  0.00  0.00    +0.000 N 
ATOM      3  N   UNL     1     -30.338 101.906  16.300  0.00  0.00    +0.000 NA
ATOM      4  N   UNL     1     -30.023  99.913  15.035  0.00  0.00    +0.000 NA
ATOM      5  C   UNL     1     -31.630 102.076  15.800  0.00  0.00    +0.000 A 
ATOM      6  C   UNL     1     -31.113 100.158  14.699  0.00  0.00    +0.000 A 
ATOM      7  C   UNL     1     -29.612 100.880  15.937  0.00  0.00    +0.000 A 
ATOM      8  N   UNL     1     -28.364 100.756  16.456  0.00  0.00    +0.000 N 
ATOM      9  H   UNL     1     -27.719 100.237  15.875  0.00  0.00    +0.000 HD
ATOM     10  H   UNL     1     -27.997 101.624  16.828  0.00  0.00    +0.000 HD
ENDROOT
BRANCH   2  11
ATOM     11  C1* UNL     1     -33.246 101.015  14.287  0.00  0.00    +0.000 A 
ATOM     12  O4* UNL     1     -34.111  99.930  14.464  0.00  0.00    +0.000 OA
ATOM     13  C4* UNL     1     -35.248 100.187  13.687  0.00  0.00    +0.000 A 
ATOM     14  C3* UNL     1     -35.085 101.450  13.013  0.00  0.00    +0.000 A 
ATOM     15  C2* UNL     1     -33.835 101.951  13.414  0.00  0.00    +0.000 A 
BRANCH  14  16
ATOM     16  O3* UNL     1     -36.164 102.230  12.708  0.00  0.00    +0.000 OA
ATOM     17  H3* UNL     1     -36.569 102.596  13.513  0.00  0.00    +0.000 HD
ENDBRANCH  14  16
BRANCH  13  18
ATOM     18  C5* UNL     1     -36.407  99.389  13.753  0.00  0.00    +0.000 C 
BRANCH  18  19
ATOM     19  O5* UNL     1     -37.502  98.637  13.810  0.00  0.00    +0.000 OA
ATOM     20  H5* UNL     1     -37.803  98.550  14.731  0.00  0.00    +0.000 HD
ENDBRANCH  18  19
ENDBRANCH  13  18
ENDBRANCH   2  11
TORSDOF 4
ENDMDL
MODEL 5
REMARK VINA RESULT:      -4.6      3.341      5.854
REMARK  Name = Decitabine.pdbqt.pdb
REMARK  4 active torsions:
REMARK  status: ('A' for Active; 'I' for Inactive)
REMARK    1  A    between atoms: N_2  and  C1*_8
REMARK    2  A    between atoms: C4*_10  and  C5*_13
REMARK    3  A    between atoms: C3*_11  and  O3*_16
REMARK    4  A    between atoms: C5*_13  and  O5*_14
REMARK                            x       y       z     vdW  Elec       q    Type
REMARK                         _______ _______ _______ _____ _____    ______ ____
ROOT
ATOM      1  O   UNL     1     -34.400 102.605  12.702  0.00  0.00    +0.000 OA
ATOM      2  N   UNL     1     -34.278 100.609  13.868  0.00  0.00    +0.000 N 
ATOM      3  N   UNL     1     -36.287 101.329  12.899  0.00  0.00    +0.000 NA
ATOM      4  N   UNL     1     -36.188  99.283  14.112  0.00  0.00    +0.000 NA
ATOM      5  C   UNL     1     -34.935 101.587  13.128  0.00  0.00    +0.000 A 
ATOM      6  C   UNL     1     -35.072  99.604  14.227  0.00  0.00    +0.000 A 
ATOM      7  C   UNL     1     -36.846 100.239  13.358  0.00  0.00    +0.000 A 
ATOM      8  N   UNL     1     -38.163 100.032  13.102  0.00  0.00    +0.000 N 
ATOM      9  H   UNL     1     -38.633  99.447  13.780  0.00  0.00    +0.000 HD
ATOM     10  H   UNL     1     -38.661 100.879  12.853  0.00  0.00    +0.000 HD
ENDROOT
BRANCH   2  11
ATOM     11  C1* UNL     1     -32.967 100.615  14.228  0.00  0.00    +0.000 A 
ATOM     12  O4* UNL     1     -32.104 101.656  13.869  0.00  0.00    +0.000 OA
ATOM     13  C4* UNL     1     -30.848 101.345  14.405  0.00  0.00    +0.000 A 
ATOM     14  C3* UNL     1     -30.930 100.087  15.103  0.00  0.00    +0.000 A 
ATOM     15  C2* UNL     1     -32.264  99.660  14.989  0.00  0.00    +0.000 A 
BRANCH  14  16
ATOM     16  O3* UNL     1     -30.129  99.825  16.178  0.00  0.00    +0.000 OA
ATOM     17  H3* UNL     1     -30.170  98.884  16.423  0.00  0.00    +0.000 HD
ENDBRANCH  14  16
BRANCH  13  18
ATOM     18  C5* UNL     1     -29.770 102.252  14.389  0.00  0.00    +0.000 C 
BRANCH  18  19
ATOM     19  O5* UNL     1     -28.750 103.105  14.374  0.00  0.00    +0.000 OA
ATOM     20  H5* UNL     1     -28.922 103.845  14.981  0.00  0.00    +0.000 HD
ENDBRANCH  18  19
ENDBRANCH  13  18
ENDBRANCH   2  11
TORSDOF 4
ENDMDL
MODEL 6
REMARK VINA RESULT:      -4.5      3.107      5.277
REMARK  Name = Decitabine.pdbqt.pdb
REMARK  4 active torsions:
REMARK  status: ('A' for Active; 'I' for Inactive)
REMARK    1  A    between atoms: N_2  and  C1*_8
REMARK    2  A    between atoms: C4*_10  and  C5*_13
REMARK    3  A    between atoms: C3*_11  and  O3*_16
REMARK    4  A    between atoms: C5*_13  and  O5*_14
REMARK                            x       y       z     vdW  Elec       q    Type
REMARK                         _______ _______ _______ _____ _____    ______ ____
ROOT
ATOM      1  O   UNL     1     -35.314  98.791  17.300  0.00  0.00    +0.000 OA
ATOM      2  N   UNL     1     -34.843  99.224  15.075  0.00  0.00    +0.000 N 
ATOM      3  N   UNL     1     -37.053  99.066  15.841  0.00  0.00    +0.000 NA
ATOM      4  N   UNL     1     -36.589  99.490  13.545  0.00  0.00    +0.000 NA
ATOM      5  C   UNL     1     -35.694  99.013  16.155  0.00  0.00    +0.000 A 
ATOM      6  C   UNL     1     -35.490  99.432  13.933  0.00  0.00    +0.000 A 
ATOM      7  C   UNL     1     -37.446  99.304  14.617  0.00  0.00    +0.000 A 
ATOM      8  N   UNL     1     -38.778  99.351  14.364  0.00  0.00    +0.000 N 
ATOM      9  H   UNL     1     -39.032  99.123  13.411  0.00  0.00    +0.000 HD
ATOM     10  H   UNL     1     -39.337  98.893  15.074  0.00  0.00    +0.000 HD
ENDROOT
BRANCH   2  11
ATOM     11  C1* UNL     1     -33.484  99.226  15.109  0.00  0.00    +0.000 A 
ATOM     12  O4* UNL     1     -32.729 100.284  14.592  0.00  0.00    +0.000 OA
ATOM     13  C4* UNL     1     -31.382  99.961  14.798  0.00  0.00    +0.000 A 
ATOM     14  C3* UNL     1     -31.297  98.679  15.449  0.00  0.00    +0.000 A 
ATOM     15  C2* UNL     1     -32.621  98.248  15.644  0.00  0.00    +0.000 A 
BRANCH  14  16
ATOM     16  O3* UNL     1     -30.262  98.382  16.289  0.00  0.00    +0.000 OA
ATOM     17  H3* UNL     1     -29.498  98.037  15.794  0.00  0.00    +0.000 HD
ENDBRANCH  14  16
BRANCH  13  18
ATOM     18  C5* UNL     1     -30.338 100.875  14.557  0.00  0.00    +0.000 C 
BRANCH  18  19
ATOM     19  O5* UNL     1     -29.354 101.740  14.325  0.00  0.00    +0.000 OA
ATOM     20  H5* UNL     1     -28.596 101.286  13.919  0.00  0.00    +0.000 HD
ENDBRANCH  18  19
ENDBRANCH  13  18
ENDBRANCH   2  11
TORSDOF 4
ENDMDL
MODEL 7
REMARK VINA RESULT:      -4.3     13.550     15.861
REMARK  Name = Decitabine.pdbqt.pdb
REMARK  4 active torsions:
REMARK  status: ('A' for Active; 'I' for Inactive)
REMARK    1  A    between atoms: N_2  and  C1*_8
REMARK    2  A    between atoms: C4*_10  and  C5*_13
REMARK    3  A    between atoms: C3*_11  and  O3*_16
REMARK    4  A    between atoms: C5*_13  and  O5*_14
REMARK                            x       y       z     vdW  Elec       q    Type
REMARK                         _______ _______ _______ _____ _____    ______ ____
ROOT
ATOM      1  O   UNL     1     -41.978 104.504   1.693  0.00  0.00    +0.000 OA
ATOM      2  N   UNL     1     -41.490 102.243   1.785  0.00  0.00    +0.000 N 
ATOM      3  N   UNL     1     -43.548 103.010   0.964  0.00  0.00    +0.000 NA
ATOM      4  N   UNL     1     -43.073 100.679   1.070  0.00  0.00    +0.000 NA
ATOM      5  C   UNL     1     -42.301 103.337   1.499  0.00  0.00    +0.000 A 
ATOM      6  C   UNL     1     -42.064 101.078   1.498  0.00  0.00    +0.000 A 
ATOM      7  C   UNL     1     -43.880 101.761   0.761  0.00  0.00    +0.000 A 
ATOM      8  N   UNL     1     -45.102 101.496   0.233  0.00  0.00    +0.000 N 
ATOM      9  H   UNL     1     -45.472 100.585   0.471  0.00  0.00    +0.000 HD
ATOM     10  H   UNL     1     -45.758 102.261   0.336  0.00  0.00    +0.000 HD
ENDROOT
BRANCH   2  11
ATOM     11  C1* UNL     1     -40.236 102.285   2.308  0.00  0.00    +0.000 A 
ATOM     12  O4* UNL     1     -39.163 102.861   1.620  0.00  0.00    +0.000 OA
ATOM     13  C4* UNL     1     -38.038 102.737   2.445  0.00  0.00    +0.000 A 
ATOM     14  C3* UNL     1     -38.417 102.070   3.664  0.00  0.00    +0.000 A 
ATOM     15  C2* UNL     1     -39.794 101.811   3.559  0.00  0.00    +0.000 A 
BRANCH  14  16
ATOM     16  O3* UNL     1     -37.771 102.330   4.839  0.00  0.00    +0.000 OA
ATOM     17  H3* UNL     1     -38.264 101.967   5.596  0.00  0.00    +0.000 HD
ENDBRANCH  14  16
BRANCH  13  18
ATOM     18  C5* UNL     1     -36.809 103.359   2.149  0.00  0.00    +0.000 C 
BRANCH  18  19
ATOM     19  O5* UNL     1     -35.650 103.946   1.865  0.00  0.00    +0.000 OA
ATOM     20  H5* UNL     1     -35.510 104.712   2.447  0.00  0.00    +0.000 HD
ENDBRANCH  18  19
ENDBRANCH  13  18
ENDBRANCH   2  11
TORSDOF 4
ENDMDL
MODEL 8
REMARK VINA RESULT:      -4.2     21.706     23.278
REMARK  Name = Decitabine.pdbqt.pdb
REMARK  4 active torsions:
REMARK  status: ('A' for Active; 'I' for Inactive)
REMARK    1  A    between atoms: N_2  and  C1*_8
REMARK    2  A    between atoms: C4*_10  and  C5*_13
REMARK    3  A    between atoms: C3*_11  and  O3*_16
REMARK    4  A    between atoms: C5*_13  and  O5*_14
REMARK                            x       y       z     vdW  Elec       q    Type
REMARK                         _______ _______ _______ _____ _____    ______ ____
ROOT
ATOM      1  O   UNL     1     -43.349  83.037   2.645  0.00  0.00    +0.000 OA
ATOM      2  N   UNL     1     -45.591  82.956   3.213  0.00  0.00    +0.000 N 
ATOM      3  N   UNL     1     -44.874  82.505   1.027  0.00  0.00    +0.000 NA
ATOM      4  N   UNL     1     -47.187  82.437   1.586  0.00  0.00    +0.000 NA
ATOM      5  C   UNL     1     -44.520  82.848   2.332  0.00  0.00    +0.000 A 
ATOM      6  C   UNL     1     -46.766  82.716   2.637  0.00  0.00    +0.000 A 
ATOM      7  C   UNL     1     -46.127  82.305   0.706  0.00  0.00    +0.000 A 
ATOM      8  N   UNL     1     -46.419  81.968  -0.576  0.00  0.00    +0.000 N 
ATOM      9  H   UNL     1     -47.351  82.223  -0.873  0.00  0.00    +0.000 HD
ATOM     10  H   UNL     1     -45.683  82.205  -1.230  0.00  0.00    +0.000 HD
ENDROOT
BRANCH   2  11
ATOM     11  C1* UNL     1     -45.521  83.274   4.532  0.00  0.00    +0.000 A 
ATOM     12  O4* UNL     1     -46.195  84.378   5.067  0.00  0.00    +0.000 OA
ATOM     13  C4* UNL     1     -45.910  84.402   6.438  0.00  0.00    +0.000 A 
ATOM     14  C3* UNL     1     -45.040  83.300   6.760  0.00  0.00    +0.000 A 
ATOM     15  C2* UNL     1     -44.824  82.605   5.557  0.00  0.00    +0.000 A 
BRANCH  14  16
ATOM     16  O3* UNL     1     -45.076  82.710   7.992  0.00  0.00    +0.000 OA
ATOM     17  H3* UNL     1     -44.408  82.006   8.062  0.00  0.00    +0.000 HD
ENDBRANCH  14  16
BRANCH  13  18
ATOM     18  C5* UNL     1     -46.557  85.278   7.332  0.00  0.00    +0.000 C 
BRANCH  18  19
ATOM     19  O5* UNL     1     -47.169  86.108   8.171  0.00  0.00    +0.000 OA
ATOM     20  H5* UNL     1     -47.652  85.605   8.849  0.00  0.00    +0.000 HD
ENDBRANCH  18  19
ENDBRANCH  13  18
ENDBRANCH   2  11
TORSDOF 4
ENDMDL
MODEL 9
REMARK VINA RESULT:      -4.2     21.562     22.654
REMARK  Name = Decitabine.pdbqt.pdb
REMARK  4 active torsions:
REMARK  status: ('A' for Active; 'I' for Inactive)
REMARK    1  A    between atoms: N_2  and  C1*_8
REMARK    2  A    between atoms: C4*_10  and  C5*_13
REMARK    3  A    between atoms: C3*_11  and  O3*_16
REMARK    4  A    between atoms: C5*_13  and  O5*_14
REMARK                            x       y       z     vdW  Elec       q    Type
REMARK                         _______ _______ _______ _____ _____    ______ ____
ROOT
ATOM      1  O   UNL     1     -36.766  77.285   8.131  0.00  0.00    +0.000 OA
ATOM      2  N   UNL     1     -35.835  78.884   6.739  0.00  0.00    +0.000 N 
ATOM      3  N   UNL     1     -38.056  78.182   6.470  0.00  0.00    +0.000 NA
ATOM      4  N   UNL     1     -37.111  79.812   5.014  0.00  0.00    +0.000 NA
ATOM      5  C   UNL     1     -36.865  78.063   7.188  0.00  0.00    +0.000 A 
ATOM      6  C   UNL     1     -36.180  79.631   5.694  0.00  0.00    +0.000 A 
ATOM      7  C   UNL     1     -38.149  79.016   5.466  0.00  0.00    +0.000 A 
ATOM      8  N   UNL     1     -39.331  79.099   4.804  0.00  0.00    +0.000 N 
ATOM      9  H   UNL     1     -39.252  79.405   3.843  0.00  0.00    +0.000 HD
ATOM     10  H   UNL     1     -39.927  78.292   4.945  0.00  0.00    +0.000 HD
ENDROOT
BRANCH   2  11
ATOM     11  C1* UNL     1     -34.582  78.962   7.260  0.00  0.00    +0.000 A 
ATOM     12  O4* UNL     1     -34.325  79.587   8.485  0.00  0.00    +0.000 OA
ATOM     13  C4* UNL     1     -32.948  79.478   8.715  0.00  0.00    +0.000 A 
ATOM     14  C3* UNL     1     -32.338  78.779   7.613  0.00  0.00    +0.000 A 
ATOM     15  C2* UNL     1     -33.380  78.457   6.727  0.00  0.00    +0.000 A 
BRANCH  14  16
ATOM     16  O3* UNL     1     -31.221  78.015   7.796  0.00  0.00    +0.000 OA
ATOM     17  H3* UNL     1     -30.575  78.471   8.363  0.00  0.00    +0.000 HD
ENDBRANCH  14  16
BRANCH  13  18
ATOM     18  C5* UNL     1     -32.353  79.846   9.938  0.00  0.00    +0.000 C 
BRANCH  18  19
ATOM     19  O5* UNL     1     -31.792  80.199  11.091  0.00  0.00    +0.000 OA
ATOM     20  H5* UNL     1     -30.848  79.962  11.092  0.00  0.00    +0.000 HD
ENDBRANCH  18  19
ENDBRANCH  13  18
ENDBRANCH   2  11
TORSDOF 4
ENDMDL
