MODEL 1
REMARK VINA RESULT:      -5.0      0.000      0.000
REMARK  Name = Deferoxamine.pdbqt.pdb
REMARK  19 active torsions:
REMARK  status: ('A' for Active; 'I' for Inactive)
REMARK    1  A    between atoms: C_1  and  C_2
REMARK    2  A    between atoms: C_3  and  C_4
REMARK    3  A    between atoms: C_4  and  N_5
REMARK    4  A    between atoms: C_6  and  C_9
REMARK    5  A    between atoms: C_10  and  C_11
REMARK    6  A    between atoms: N_13  and  O_14
REMARK    7  A    between atoms: N_13  and  C_16
REMARK    8  A    between atoms: C_17  and  C_18
REMARK    9  A    between atoms: C_19  and  C_20
REMARK   10  A    between atoms: C_20  and  N_21
REMARK   11  A    between atoms: C_24  and  N_25
REMARK   12  A    between atoms: N_25  and  O_28
REMARK   13  A    between atoms: C_26  and  C_30
REMARK   14  A    between atoms: C_31  and  C_32
REMARK   15  A    between atoms: N_34  and  C_36
REMARK   16  A    between atoms: C_37  and  C_38
REMARK   17  A    between atoms: C_38  and  C_39
REMARK   18  A    between atoms: C_40  and  N_41
REMARK   19  A    between atoms: N_41  and  O_45
REMARK                            x       y       z     vdW  Elec       q    Type
REMARK                         _______ _______ _______ _____ _____    ______ ____
ROOT
ATOM      1  C   UNL     1     -35.269  83.491  -1.214  0.00  0.00    +0.000 C 
ATOM      2  C   UNL     1     -34.344  83.885  -1.872  0.00  0.00    +0.000 C 
ENDROOT
BRANCH   2   3
ATOM      3  N   UNL     1     -33.307  84.328  -2.613  0.00  0.00    +0.000 N 
ATOM      4  C   UNL     1     -33.136  84.380  -3.985  0.00  0.00    +0.000 C 
ATOM      5  O   UNL     1     -33.877  83.848  -4.805  0.00  0.00    +0.000 OA
BRANCH   4   6
ATOM      6  C   UNL     1     -31.975  85.087  -4.486  0.00  0.00    +0.000 C 
ATOM      7  C   UNL     1     -31.012  85.665  -4.913  0.00  0.00    +0.000 C 
BRANCH   7   8
ATOM      8  C   UNL     1     -29.849  86.339  -5.436  0.00  0.00    +0.000 C 
ATOM      9  O   UNL     1     -29.711  86.430  -6.647  0.00  0.00    +0.000 OA
ATOM     10  N   UNL     1     -28.981  86.831  -4.487  0.00  0.00    +0.000 N 
ATOM     11  H   UNL     1     -29.241  86.678  -3.521  0.00  0.00    +0.000 HD
BRANCH  10  12
ATOM     12  C   UNL     1     -27.821  87.500  -4.662  0.00  0.00    +0.000 C 
ATOM     13  C   UNL     1     -26.788  88.092  -4.812  0.00  0.00    +0.000 C 
BRANCH  13  14
ATOM     14  C   UNL     1     -25.464  88.840  -5.000  0.00  0.00    +0.000 C 
BRANCH  14  15
ATOM     15  C   UNL     1     -24.137  89.581  -5.183  0.00  0.00    +0.000 C 
ATOM     16  C   UNL     1     -23.096  90.161  -5.329  0.00  0.00    +0.000 C 
BRANCH  16  17
ATOM     17  N   UNL     1     -21.928  90.809  -5.500  0.00  0.00    +0.000 N 
ATOM     18  C   UNL     1     -21.636  92.152  -5.559  0.00  0.00    +0.000 C 
ATOM     19  O   UNL     1     -22.372  93.118  -5.465  0.00  0.00    +0.000 OA
ATOM     20  C   UNL     1     -20.207  92.587  -5.767  0.00  0.00    +0.000 C 
BRANCH  17  21
ATOM     21  O   UNL     1     -20.881  89.861  -5.638  0.00  0.00    +0.000 OA
ATOM     22  H   UNL     1     -20.303  90.266  -6.317  0.00  0.00    +0.000 HD
ENDBRANCH  17  21
ENDBRANCH  16  17
ENDBRANCH  14  15
ENDBRANCH  13  14
ENDBRANCH  10  12
ENDBRANCH   7   8
ENDBRANCH   4   6
BRANCH   3  23
ATOM     23  O   UNL     1     -32.490  85.166  -1.821  0.00  0.00    +0.000 OA
ATOM     24  H   UNL     1     -31.731  85.314  -2.416  0.00  0.00    +0.000 HD
ENDBRANCH   3  23
ENDBRANCH   2   3
BRANCH   1  25
ATOM     25  C   UNL     1     -36.448  82.977  -0.384  0.00  0.00    +0.000 C 
ATOM     26  C   UNL     1     -37.363  82.568   0.275  0.00  0.00    +0.000 C 
BRANCH  26  27
ATOM     27  C   UNL     1     -38.523  82.042   1.127  0.00  0.00    +0.000 C 
BRANCH  27  28
ATOM     28  N   UNL     1     -39.551  81.568   1.864  0.00  0.00    +0.000 N 
ATOM     29  C   UNL     1     -40.899  81.797   1.718  0.00  0.00    +0.000 C 
ATOM     30  O   UNL     1     -41.416  82.498   0.860  0.00  0.00    +0.000 OA
ATOM     31  H   UNL     1     -39.275  80.956   2.621  0.00  0.00    +0.000 HD
BRANCH  29  32
ATOM     32  C   UNL     1     -41.744  81.132   2.679  0.00  0.00    +0.000 C 
ATOM     33  C   UNL     1     -42.433  80.560   3.480  0.00  0.00    +0.000 C 
BRANCH  33  34
ATOM     34  C   UNL     1     -43.244  79.862   4.457  0.00  0.00    +0.000 C 
ATOM     35  O   UNL     1     -43.228  78.635   4.437  0.00  0.00    +0.000 OA
ATOM     36  N   UNL     1     -44.009  80.631   5.318  0.00  0.00    +0.000 N 
BRANCH  36  37
ATOM     37  C   UNL     1     -44.735  80.281   6.399  0.00  0.00    +0.000 C 
ATOM     38  C   UNL     1     -45.381  79.967   7.360  0.00  0.00    +0.000 C 
BRANCH  38  39
ATOM     39  C   UNL     1     -46.210  79.561   8.583  0.00  0.00    +0.000 C 
ATOM     40  C   UNL     1     -46.864  79.245   9.538  0.00  0.00    +0.000 C 
BRANCH  40  41
ATOM     41  C   UNL     1     -47.701  78.842  10.755  0.00  0.00    +0.000 C 
BRANCH  41  42
ATOM     42  N   UNL     1     -48.497  78.459  11.910  0.00  0.00    +0.000 NA
ATOM     43  H   UNL     1     -49.424  78.879  11.859  0.00  0.00    +0.000 HD
ATOM     44  H   UNL     1     -48.644  77.451  11.922  0.00  0.00    +0.000 HD
ENDBRANCH  41  42
ENDBRANCH  40  41
ENDBRANCH  38  39
ENDBRANCH  36  37
BRANCH  36  45
ATOM     45  O   UNL     1     -43.756  82.021   5.350  0.00  0.00    +0.000 OA
ATOM     46  H   UNL     1     -43.554  82.203   4.414  0.00  0.00    +0.000 HD
ENDBRANCH  36  45
ENDBRANCH  33  34
ENDBRANCH  29  32
ENDBRANCH  27  28
ENDBRANCH  26  27
ENDBRANCH   1  25
TORSDOF 19
ENDMDL
MODEL 2
REMARK VINA RESULT:      -4.9      3.536     21.588
REMARK  Name = Deferoxamine.pdbqt.pdb
REMARK  19 active torsions:
REMARK  status: ('A' for Active; 'I' for Inactive)
REMARK    1  A    between atoms: C_1  and  C_2
REMARK    2  A    between atoms: C_3  and  C_4
REMARK    3  A    between atoms: C_4  and  N_5
REMARK    4  A    between atoms: C_6  and  C_9
REMARK    5  A    between atoms: C_10  and  C_11
REMARK    6  A    between atoms: N_13  and  O_14
REMARK    7  A    between atoms: N_13  and  C_16
REMARK    8  A    between atoms: C_17  and  C_18
REMARK    9  A    between atoms: C_19  and  C_20
REMARK   10  A    between atoms: C_20  and  N_21
REMARK   11  A    between atoms: C_24  and  N_25
REMARK   12  A    between atoms: N_25  and  O_28
REMARK   13  A    between atoms: C_26  and  C_30
REMARK   14  A    between atoms: C_31  and  C_32
REMARK   15  A    between atoms: N_34  and  C_36
REMARK   16  A    between atoms: C_37  and  C_38
REMARK   17  A    between atoms: C_38  and  C_39
REMARK   18  A    between atoms: C_40  and  N_41
REMARK   19  A    between atoms: N_41  and  O_45
REMARK                            x       y       z     vdW  Elec       q    Type
REMARK                         _______ _______ _______ _____ _____    ______ ____
ROOT
ATOM      1  C   UNL     1     -36.903  83.546  -1.096  0.00  0.00    +0.000 C 
ATOM      2  C   UNL     1     -37.911  83.136  -0.585  0.00  0.00    +0.000 C 
ENDROOT
BRANCH   2   3
ATOM      3  N   UNL     1     -39.041  82.675  -0.011  0.00  0.00    +0.000 N 
ATOM      4  C   UNL     1     -39.239  82.018   1.191  0.00  0.00    +0.000 C 
ATOM      5  O   UNL     1     -38.344  81.571   1.901  0.00  0.00    +0.000 OA
BRANCH   4   6
ATOM      6  C   UNL     1     -40.607  81.814   1.622  0.00  0.00    +0.000 C 
ATOM      7  C   UNL     1     -41.742  81.658   1.984  0.00  0.00    +0.000 C 
BRANCH   7   8
ATOM      8  C   UNL     1     -43.100  81.486   2.436  0.00  0.00    +0.000 C 
ATOM      9  O   UNL     1     -43.702  80.466   2.132  0.00  0.00    +0.000 OA
ATOM     10  N   UNL     1     -43.603  82.522   3.190  0.00  0.00    +0.000 N 
ATOM     11  H   UNL     1     -42.974  83.298   3.359  0.00  0.00    +0.000 HD
BRANCH  10  12
ATOM     12  C   UNL     1     -44.825  82.653   3.749  0.00  0.00    +0.000 C 
ATOM     13  C   UNL     1     -45.913  82.773   4.241  0.00  0.00    +0.000 C 
BRANCH  13  14
ATOM     14  C   UNL     1     -47.305  82.931   4.861  0.00  0.00    +0.000 C 
BRANCH  14  15
ATOM     15  C   UNL     1     -48.700  83.089   5.473  0.00  0.00    +0.000 C 
ATOM     16  C   UNL     1     -49.792  83.212   5.955  0.00  0.00    +0.000 C 
BRANCH  16  17
ATOM     17  N   UNL     1     -51.016  83.348   6.503  0.00  0.00    +0.000 N 
ATOM     18  C   UNL     1     -52.174  82.629   6.324  0.00  0.00    +0.000 C 
ATOM     19  O   UNL     1     -52.396  81.663   5.616  0.00  0.00    +0.000 OA
ATOM     20  C   UNL     1     -53.413  83.028   7.087  0.00  0.00    +0.000 C 
BRANCH  17  21
ATOM     21  O   UNL     1     -51.008  84.449   7.398  0.00  0.00    +0.000 OA
ATOM     22  H   UNL     1     -50.414  85.091   6.956  0.00  0.00    +0.000 HD
ENDBRANCH  17  21
ENDBRANCH  16  17
ENDBRANCH  14  15
ENDBRANCH  13  14
ENDBRANCH  10  12
ENDBRANCH   7   8
ENDBRANCH   4   6
BRANCH   3  23
ATOM     23  O   UNL     1     -40.158  83.312  -0.597  0.00  0.00    +0.000 OA
ATOM     24  H   UNL     1     -40.852  82.637  -0.474  0.00  0.00    +0.000 HD
ENDBRANCH   3  23
ENDBRANCH   2   3
BRANCH   1  25
ATOM     25  C   UNL     1     -35.614  84.053  -1.747  0.00  0.00    +0.000 C 
ATOM     26  C   UNL     1     -34.608  84.445  -2.269  0.00  0.00    +0.000 C 
BRANCH  26  27
ATOM     27  C   UNL     1     -33.326  84.939  -2.949  0.00  0.00    +0.000 C 
BRANCH  27  28
ATOM     28  N   UNL     1     -32.204  85.372  -3.564  0.00  0.00    +0.000 N 
ATOM     29  C   UNL     1     -32.031  85.776  -4.866  0.00  0.00    +0.000 C 
ATOM     30  O   UNL     1     -32.901  85.811  -5.725  0.00  0.00    +0.000 OA
ATOM     31  H   UNL     1     -31.387  85.405  -2.967  0.00  0.00    +0.000 HD
BRANCH  29  32
ATOM     32  C   UNL     1     -30.692  86.188  -5.211  0.00  0.00    +0.000 C 
ATOM     33  C   UNL     1     -29.581  86.522  -5.520  0.00  0.00    +0.000 C 
BRANCH  33  34
ATOM     34  C   UNL     1     -28.248  86.928  -5.914  0.00  0.00    +0.000 C 
ATOM     35  O   UNL     1     -27.849  86.578  -7.021  0.00  0.00    +0.000 OA
ATOM     36  N   UNL     1     -27.504  87.652  -4.997  0.00  0.00    +0.000 N 
BRANCH  36  37
ATOM     37  C   UNL     1     -26.316  88.278  -5.126  0.00  0.00    +0.000 C 
ATOM     38  C   UNL     1     -25.259  88.835  -5.237  0.00  0.00    +0.000 C 
BRANCH  38  39
ATOM     39  C   UNL     1     -23.910  89.549  -5.373  0.00  0.00    +0.000 C 
ATOM     40  C   UNL     1     -22.851  90.104  -5.477  0.00  0.00    +0.000 C 
BRANCH  40  41
ATOM     41  C   UNL     1     -21.499  90.810  -5.606  0.00  0.00    +0.000 C 
BRANCH  41  42
ATOM     42  N   UNL     1     -20.214  91.479  -5.729  0.00  0.00    +0.000 NA
ATOM     43  H   UNL     1     -19.773  91.571  -4.816  0.00  0.00    +0.000 HD
ATOM     44  H   UNL     1     -19.576  90.923  -6.296  0.00  0.00    +0.000 HD
ENDBRANCH  41  42
ENDBRANCH  40  41
ENDBRANCH  38  39
ENDBRANCH  36  37
BRANCH  36  45
ATOM     45  O   UNL     1     -28.178  88.151  -3.860  0.00  0.00    +0.000 OA
ATOM     46  H   UNL     1     -27.654  88.948  -3.659  0.00  0.00    +0.000 HD
ENDBRANCH  36  45
ENDBRANCH  33  34
ENDBRANCH  29  32
ENDBRANCH  27  28
ENDBRANCH  26  27
ENDBRANCH   1  25
TORSDOF 19
ENDMDL
MODEL 3
REMARK VINA RESULT:      -4.6     20.356     25.663
REMARK  Name = Deferoxamine.pdbqt.pdb
REMARK  19 active torsions:
REMARK  status: ('A' for Active; 'I' for Inactive)
REMARK    1  A    between atoms: C_1  and  C_2
REMARK    2  A    between atoms: C_3  and  C_4
REMARK    3  A    between atoms: C_4  and  N_5
REMARK    4  A    between atoms: C_6  and  C_9
REMARK    5  A    between atoms: C_10  and  C_11
REMARK    6  A    between atoms: N_13  and  O_14
REMARK    7  A    between atoms: N_13  and  C_16
REMARK    8  A    between atoms: C_17  and  C_18
REMARK    9  A    between atoms: C_19  and  C_20
REMARK   10  A    between atoms: C_20  and  N_21
REMARK   11  A    between atoms: C_24  and  N_25
REMARK   12  A    between atoms: N_25  and  O_28
REMARK   13  A    between atoms: C_26  and  C_30
REMARK   14  A    between atoms: C_31  and  C_32
REMARK   15  A    between atoms: N_34  and  C_36
REMARK   16  A    between atoms: C_37  and  C_38
REMARK   17  A    between atoms: C_38  and  C_39
REMARK   18  A    between atoms: C_40  and  N_41
REMARK   19  A    between atoms: N_41  and  O_45
REMARK                            x       y       z     vdW  Elec       q    Type
REMARK                         _______ _______ _______ _____ _____    ______ ____
ROOT
ATOM      1  C   UNL     1     -24.425  85.847  14.312  0.00  0.00    +0.000 C 
ATOM      2  C   UNL     1     -25.131  85.213  13.575  0.00  0.00    +0.000 C 
ENDROOT
BRANCH   2   3
ATOM      3  N   UNL     1     -25.925  84.501  12.750  0.00  0.00    +0.000 N 
ATOM      4  C   UNL     1     -26.524  83.264  12.919  0.00  0.00    +0.000 C 
ATOM      5  O   UNL     1     -26.285  82.489  13.838  0.00  0.00    +0.000 OA
BRANCH   4   6
ATOM      6  C   UNL     1     -27.479  82.843  11.914  0.00  0.00    +0.000 C 
ATOM      7  C   UNL     1     -28.273  82.507  11.077  0.00  0.00    +0.000 C 
BRANCH   7   8
ATOM      8  C   UNL     1     -29.239  82.124  10.078  0.00  0.00    +0.000 C 
ATOM      9  O   UNL     1     -29.098  82.524   8.931  0.00  0.00    +0.000 OA
ATOM     10  N   UNL     1     -30.259  81.316  10.528  0.00  0.00    +0.000 N 
ATOM     11  H   UNL     1     -30.232  81.067  11.509  0.00  0.00    +0.000 HD
BRANCH  10  12
ATOM     12  C   UNL     1     -31.301  80.799   9.842  0.00  0.00    +0.000 C 
ATOM     13  C   UNL     1     -32.228  80.336   9.237  0.00  0.00    +0.000 C 
BRANCH  13  14
ATOM     14  C   UNL     1     -33.415  79.741   8.473  0.00  0.00    +0.000 C 
BRANCH  14  15
ATOM     15  C   UNL     1     -34.604  79.156   7.706  0.00  0.00    +0.000 C 
ATOM     16  C   UNL     1     -35.535  78.695   7.103  0.00  0.00    +0.000 C 
BRANCH  16  17
ATOM     17  N   UNL     1     -36.575  78.171   6.426  0.00  0.00    +0.000 N 
ATOM     18  C   UNL     1     -37.714  78.754   5.922  0.00  0.00    +0.000 C 
ATOM     19  O   UNL     1     -38.081  79.915   5.955  0.00  0.00    +0.000 OA
ATOM     20  C   UNL     1     -38.722  77.896   5.199  0.00  0.00    +0.000 C 
BRANCH  17  21
ATOM     21  O   UNL     1     -36.370  76.777   6.257  0.00  0.00    +0.000 OA
ATOM     22  H   UNL     1     -36.215  76.464   7.171  0.00  0.00    +0.000 HD
ENDBRANCH  17  21
ENDBRANCH  16  17
ENDBRANCH  14  15
ENDBRANCH  13  14
ENDBRANCH  10  12
ENDBRANCH   7   8
ENDBRANCH   4   6
BRANCH   3  23
ATOM     23  O   UNL     1     -26.463  85.357  11.763  0.00  0.00    +0.000 OA
ATOM     24  H   UNL     1     -25.881  85.168  11.004  0.00  0.00    +0.000 HD
ENDBRANCH   3  23
ENDBRANCH   2   3
BRANCH   1  25
ATOM     25  C   UNL     1     -23.519  86.642  15.257  0.00  0.00    +0.000 C 
ATOM     26  C   UNL     1     -22.806  87.253  16.004  0.00  0.00    +0.000 C 
BRANCH  26  27
ATOM     27  C   UNL     1     -21.894  88.021  16.966  0.00  0.00    +0.000 C 
BRANCH  27  28
ATOM     28  N   UNL     1     -21.104  88.700  17.826  0.00  0.00    +0.000 N 
ATOM     29  C   UNL     1     -20.594  89.972  17.713  0.00  0.00    +0.000 C 
ATOM     30  O   UNL     1     -20.776  90.735  16.776  0.00  0.00    +0.000 OA
ATOM     31  H   UNL     1     -20.870  88.190  18.668  0.00  0.00    +0.000 HD
BRANCH  29  32
ATOM     32  C   UNL     1     -19.778  90.408  18.821  0.00  0.00    +0.000 C 
ATOM     33  C   UNL     1     -19.086  90.785  19.727  0.00  0.00    +0.000 C 
BRANCH  33  34
ATOM     34  C   UNL     1     -18.249  91.259  20.810  0.00  0.00    +0.000 C 
ATOM     35  O   UNL     1     -17.192  90.670  21.012  0.00  0.00    +0.000 OA
ATOM     36  N   UNL     1     -18.721  92.320  21.564  0.00  0.00    +0.000 N 
BRANCH  36  37
ATOM     37  C   UNL     1     -18.118  93.056  22.520  0.00  0.00    +0.000 C 
ATOM     38  C   UNL     1     -17.581  93.713  23.369  0.00  0.00    +0.000 C 
BRANCH  38  39
ATOM     39  C   UNL     1     -16.888  94.550  24.449  0.00  0.00    +0.000 C 
ATOM     40  C   UNL     1     -16.341  95.206  25.291  0.00  0.00    +0.000 C 
BRANCH  40  41
ATOM     41  C   UNL     1     -15.640  96.044  26.364  0.00  0.00    +0.000 C 
BRANCH  41  42
ATOM     42  N   UNL     1     -14.974  96.839  27.383  0.00  0.00    +0.000 NA
ATOM     43  H   UNL     1     -14.817  96.283  28.222  0.00  0.00    +0.000 HD
ATOM     44  H   UNL     1     -14.052  97.130  27.061  0.00  0.00    +0.000 HD
ENDBRANCH  41  42
ENDBRANCH  40  41
ENDBRANCH  38  39
ENDBRANCH  36  37
BRANCH  36  45
ATOM     45  O   UNL     1     -19.849  93.017  21.074  0.00  0.00    +0.000 OA
ATOM     46  H   UNL     1     -20.368  93.141  21.890  0.00  0.00    +0.000 HD
ENDBRANCH  36  45
ENDBRANCH  33  34
ENDBRANCH  29  32
ENDBRANCH  27  28
ENDBRANCH  26  27
ENDBRANCH   1  25
TORSDOF 19
ENDMDL
MODEL 4
REMARK VINA RESULT:      -4.6     21.548     22.798
REMARK  Name = Deferoxamine.pdbqt.pdb
REMARK  19 active torsions:
REMARK  status: ('A' for Active; 'I' for Inactive)
REMARK    1  A    between atoms: C_1  and  C_2
REMARK    2  A    between atoms: C_3  and  C_4
REMARK    3  A    between atoms: C_4  and  N_5
REMARK    4  A    between atoms: C_6  and  C_9
REMARK    5  A    between atoms: C_10  and  C_11
REMARK    6  A    between atoms: N_13  and  O_14
REMARK    7  A    between atoms: N_13  and  C_16
REMARK    8  A    between atoms: C_17  and  C_18
REMARK    9  A    between atoms: C_19  and  C_20
REMARK   10  A    between atoms: C_20  and  N_21
REMARK   11  A    between atoms: C_24  and  N_25
REMARK   12  A    between atoms: N_25  and  O_28
REMARK   13  A    between atoms: C_26  and  C_30
REMARK   14  A    between atoms: C_31  and  C_32
REMARK   15  A    between atoms: N_34  and  C_36
REMARK   16  A    between atoms: C_37  and  C_38
REMARK   17  A    between atoms: C_38  and  C_39
REMARK   18  A    between atoms: C_40  and  N_41
REMARK   19  A    between atoms: N_41  and  O_45
REMARK                            x       y       z     vdW  Elec       q    Type
REMARK                         _______ _______ _______ _____ _____    ______ ____
ROOT
ATOM      1  C   UNL     1     -23.545  86.616  15.331  0.00  0.00    +0.000 C 
ATOM      2  C   UNL     1     -22.692  87.262  15.876  0.00  0.00    +0.000 C 
ENDROOT
BRANCH   2   3
ATOM      3  N   UNL     1     -21.735  87.990  16.488  0.00  0.00    +0.000 N 
ATOM      4  C   UNL     1     -20.686  88.724  15.964  0.00  0.00    +0.000 C 
ATOM      5  O   UNL     1     -20.331  88.701  14.790  0.00  0.00    +0.000 OA
BRANCH   4   6
ATOM      6  C   UNL     1     -19.930  89.555  16.879  0.00  0.00    +0.000 C 
ATOM      7  C   UNL     1     -19.299  90.252  17.627  0.00  0.00    +0.000 C 
BRANCH   7   8
ATOM      8  C   UNL     1     -18.524  91.090  18.509  0.00  0.00    +0.000 C 
ATOM      9  O   UNL     1     -17.466  91.553  18.109  0.00  0.00    +0.000 OA
ATOM     10  N   UNL     1     -19.072  91.293  19.755  0.00  0.00    +0.000 N 
ATOM     11  H   UNL     1     -19.961  90.843  19.932  0.00  0.00    +0.000 HD
BRANCH  10  12
ATOM     12  C   UNL     1     -18.591  92.019  20.788  0.00  0.00    +0.000 C 
ATOM     13  C   UNL     1     -18.162  92.669  21.701  0.00  0.00    +0.000 C 
BRANCH  13  14
ATOM     14  C   UNL     1     -17.615  93.506  22.862  0.00  0.00    +0.000 C 
BRANCH  14  15
ATOM     15  C   UNL     1     -17.076  94.343  24.025  0.00  0.00    +0.000 C 
ATOM     16  C   UNL     1     -16.651  94.997  24.938  0.00  0.00    +0.000 C 
BRANCH  16  17
ATOM     17  N   UNL     1     -16.169  95.728  25.961  0.00  0.00    +0.000 N 
ATOM     18  C   UNL     1     -14.927  96.278  26.176  0.00  0.00    +0.000 C 
ATOM     19  O   UNL     1     -13.925  96.248  25.483  0.00  0.00    +0.000 OA
ATOM     20  C   UNL     1     -14.676  97.057  27.443  0.00  0.00    +0.000 C 
BRANCH  17  21
ATOM     21  O   UNL     1     -17.188  95.904  26.932  0.00  0.00    +0.000 OA
ATOM     22  H   UNL     1     -16.879  96.684  27.439  0.00  0.00    +0.000 HD
ENDBRANCH  17  21
ENDBRANCH  16  17
ENDBRANCH  14  15
ENDBRANCH  13  14
ENDBRANCH  10  12
ENDBRANCH   7   8
ENDBRANCH   4   6
BRANCH   3  23
ATOM     23  O   UNL     1     -22.147  88.290  17.807  0.00  0.00    +0.000 OA
ATOM     24  H   UNL     1     -23.063  87.955  17.805  0.00  0.00    +0.000 HD
ENDBRANCH   3  23
ENDBRANCH   2   3
BRANCH   1  25
ATOM     25  C   UNL     1     -24.634  85.803  14.625  0.00  0.00    +0.000 C 
ATOM     26  C   UNL     1     -25.491  85.161  14.084  0.00  0.00    +0.000 C 
BRANCH  26  27
ATOM     27  C   UNL     1     -26.590  84.337  13.406  0.00  0.00    +0.000 C 
BRANCH  27  28
ATOM     28  N   UNL     1     -27.547  83.596  12.806  0.00  0.00    +0.000 N 
ATOM     29  C   UNL     1     -27.657  83.228  11.486  0.00  0.00    +0.000 C 
ATOM     30  O   UNL     1     -26.875  83.522  10.594  0.00  0.00    +0.000 OA
ATOM     31  H   UNL     1     -28.274  83.269  13.430  0.00  0.00    +0.000 HD
BRANCH  29  32
ATOM     32  C   UNL     1     -28.811  82.423  11.165  0.00  0.00    +0.000 C 
ATOM     33  C   UNL     1     -29.766  81.756  10.875  0.00  0.00    +0.000 C 
BRANCH  33  34
ATOM     34  C   UNL     1     -30.908  80.944  10.506  0.00  0.00    +0.000 C 
ATOM     35  O   UNL     1     -31.548  80.417  11.410  0.00  0.00    +0.000 OA
ATOM     36  N   UNL     1     -31.172  80.790   9.155  0.00  0.00    +0.000 N 
BRANCH  36  37
ATOM     37  C   UNL     1     -32.222  80.227   8.522  0.00  0.00    +0.000 C 
ATOM     38  C   UNL     1     -33.157  79.725   7.963  0.00  0.00    +0.000 C 
BRANCH  38  39
ATOM     39  C   UNL     1     -34.349  79.077   7.251  0.00  0.00    +0.000 C 
ATOM     40  C   UNL     1     -35.285  78.570   6.698  0.00  0.00    +0.000 C 
BRANCH  40  41
ATOM     41  C   UNL     1     -36.482  77.923   5.996  0.00  0.00    +0.000 C 
BRANCH  41  42
ATOM     42  N   UNL     1     -37.619  77.309   5.330  0.00  0.00    +0.000 NA
ATOM     43  H   UNL     1     -38.059  77.971   4.693  0.00  0.00    +0.000 HD
ATOM     44  H   UNL     1     -37.313  76.526   4.754  0.00  0.00    +0.000 HD
ENDBRANCH  41  42
ENDBRANCH  40  41
ENDBRANCH  38  39
ENDBRANCH  36  37
BRANCH  36  45
ATOM     45  O   UNL     1     -30.474  81.627   8.255  0.00  0.00    +0.000 OA
ATOM     46  H   UNL     1     -29.995  80.972   7.715  0.00  0.00    +0.000 HD
ENDBRANCH  36  45
ENDBRANCH  33  34
ENDBRANCH  29  32
ENDBRANCH  27  28
ENDBRANCH  26  27
ENDBRANCH   1  25
TORSDOF 19
ENDMDL
MODEL 5
REMARK VINA RESULT:      -4.4     17.991     18.725
REMARK  Name = Deferoxamine.pdbqt.pdb
REMARK  19 active torsions:
REMARK  status: ('A' for Active; 'I' for Inactive)
REMARK    1  A    between atoms: C_1  and  C_2
REMARK    2  A    between atoms: C_3  and  C_4
REMARK    3  A    between atoms: C_4  and  N_5
REMARK    4  A    between atoms: C_6  and  C_9
REMARK    5  A    between atoms: C_10  and  C_11
REMARK    6  A    between atoms: N_13  and  O_14
REMARK    7  A    between atoms: N_13  and  C_16
REMARK    8  A    between atoms: C_17  and  C_18
REMARK    9  A    between atoms: C_19  and  C_20
REMARK   10  A    between atoms: C_20  and  N_21
REMARK   11  A    between atoms: C_24  and  N_25
REMARK   12  A    between atoms: N_25  and  O_28
REMARK   13  A    between atoms: C_26  and  C_30
REMARK   14  A    between atoms: C_31  and  C_32
REMARK   15  A    between atoms: N_34  and  C_36
REMARK   16  A    between atoms: C_37  and  C_38
REMARK   17  A    between atoms: C_38  and  C_39
REMARK   18  A    between atoms: C_40  and  N_41
REMARK   19  A    between atoms: N_41  and  O_45
REMARK                            x       y       z     vdW  Elec       q    Type
REMARK                         _______ _______ _______ _____ _____    ______ ____
ROOT
ATOM      1  C   UNL     1     -40.478 102.771   1.652  0.00  0.00    +0.000 C 
ATOM      2  C   UNL     1     -39.451 103.391   1.586  0.00  0.00    +0.000 C 
ENDROOT
BRANCH   2   3
ATOM      3  N   UNL     1     -38.298 104.086   1.512  0.00  0.00    +0.000 N 
ATOM      4  C   UNL     1     -37.179 104.069   2.328  0.00  0.00    +0.000 C 
ATOM      5  O   UNL     1     -37.113 103.504   3.415  0.00  0.00    +0.000 OA
BRANCH   4   6
ATOM      6  C   UNL     1     -36.014 104.801   1.878  0.00  0.00    +0.000 C 
ATOM      7  C   UNL     1     -35.043 105.398   1.497  0.00  0.00    +0.000 C 
BRANCH   7   8
ATOM      8  C   UNL     1     -33.865 106.094   1.041  0.00  0.00    +0.000 C 
ATOM      9  O   UNL     1     -33.552 107.146   1.579  0.00  0.00    +0.000 OA
ATOM     10  N   UNL     1     -33.186 105.484   0.010  0.00  0.00    +0.000 N 
ATOM     11  H   UNL     1     -33.572 104.610  -0.323  0.00  0.00    +0.000 HD
BRANCH  10  12
ATOM     12  C   UNL     1     -32.063 105.885  -0.624  0.00  0.00    +0.000 C 
ATOM     13  C   UNL     1     -31.068 106.244  -1.192  0.00  0.00    +0.000 C 
BRANCH  13  14
ATOM     14  C   UNL     1     -29.804 106.707  -1.922  0.00  0.00    +0.000 C 
BRANCH  14  15
ATOM     15  C   UNL     1     -28.536 107.169  -2.644  0.00  0.00    +0.000 C 
ATOM     16  C   UNL     1     -27.540 107.532  -3.208  0.00  0.00    +0.000 C 
BRANCH  16  17
ATOM     17  N   UNL     1     -26.418 107.936  -3.836  0.00  0.00    +0.000 N 
ATOM     18  C   UNL     1     -25.642 107.321  -4.789  0.00  0.00    +0.000 C 
ATOM     19  O   UNL     1     -25.771 106.235  -5.325  0.00  0.00    +0.000 OA
ATOM     20  C   UNL     1     -24.418 108.031  -5.312  0.00  0.00    +0.000 C 
BRANCH  17  21
ATOM     21  O   UNL     1     -26.054 109.223  -3.362  0.00  0.00    +0.000 OA
ATOM     22  H   UNL     1     -26.525 109.826  -3.975  0.00  0.00    +0.000 HD
ENDBRANCH  17  21
ENDBRANCH  16  17
ENDBRANCH  14  15
ENDBRANCH  13  14
ENDBRANCH  10  12
ENDBRANCH   7   8
ENDBRANCH   4   6
BRANCH   3  23
ATOM     23  O   UNL     1     -38.143 104.598   0.204  0.00  0.00    +0.000 OA
ATOM     24  H   UNL     1     -37.386 104.076  -0.120  0.00  0.00    +0.000 HD
ENDBRANCH   3  23
ENDBRANCH   2   3
BRANCH   1  25
ATOM     25  C   UNL     1     -41.780 101.970   1.745  0.00  0.00    +0.000 C 
ATOM     26  C   UNL     1     -42.792 101.331   1.814  0.00  0.00    +0.000 C 
BRANCH  26  27
ATOM     27  C   UNL     1     -44.079 100.502   1.899  0.00  0.00    +0.000 C 
BRANCH  27  28
ATOM     28  N   UNL     1     -45.203  99.758   1.981  0.00  0.00    +0.000 N 
ATOM     29  C   UNL     1     -46.483 100.076   1.592  0.00  0.00    +0.000 C 
ATOM     30  O   UNL     1     -46.834 101.132   1.085  0.00  0.00    +0.000 OA
ATOM     31  H   UNL     1     -45.066  98.838   2.381  0.00  0.00    +0.000 HD
BRANCH  29  32
ATOM     32  C   UNL     1     -47.468  99.047   1.817  0.00  0.00    +0.000 C 
ATOM     33  C   UNL     1     -48.277  98.183   2.024  0.00  0.00    +0.000 C 
BRANCH  33  34
ATOM     34  C   UNL     1     -49.248  97.143   2.295  0.00  0.00    +0.000 C 
ATOM     35  O   UNL     1     -49.732  96.551   1.335  0.00  0.00    +0.000 OA
ATOM     36  N   UNL     1     -49.589  96.918   3.618  0.00  0.00    +0.000 N 
BRANCH  36  37
ATOM     37  C   UNL     1     -50.335  95.946   4.182  0.00  0.00    +0.000 C 
ATOM     38  C   UNL     1     -50.997  95.079   4.683  0.00  0.00    +0.000 C 
BRANCH  38  39
ATOM     39  C   UNL     1     -51.837  93.968   5.321  0.00  0.00    +0.000 C 
ATOM     40  C   UNL     1     -52.499  93.098   5.816  0.00  0.00    +0.000 C 
BRANCH  40  41
ATOM     41  C   UNL     1     -53.345  91.988   6.444  0.00  0.00    +0.000 C 
BRANCH  41  42
ATOM     42  N   UNL     1     -54.149  90.933   7.040  0.00  0.00    +0.000 NA
ATOM     43  H   UNL     1     -54.036  90.064   6.521  0.00  0.00    +0.000 HD
ATOM     44  H   UNL     1     -53.833  90.738   7.989  0.00  0.00    +0.000 HD
ENDBRANCH  41  42
ENDBRANCH  40  41
ENDBRANCH  38  39
ENDBRANCH  36  37
BRANCH  36  45
ATOM     45  O   UNL     1     -48.792  97.533   4.611  0.00  0.00    +0.000 OA
ATOM     46  H   UNL     1     -49.262  98.378   4.739  0.00  0.00    +0.000 HD
ENDBRANCH  36  45
ENDBRANCH  33  34
ENDBRANCH  29  32
ENDBRANCH  27  28
ENDBRANCH  26  27
ENDBRANCH   1  25
TORSDOF 19
ENDMDL
MODEL 6
REMARK VINA RESULT:      -4.3     20.393     28.076
REMARK  Name = Deferoxamine.pdbqt.pdb
REMARK  19 active torsions:
REMARK  status: ('A' for Active; 'I' for Inactive)
REMARK    1  A    between atoms: C_1  and  C_2
REMARK    2  A    between atoms: C_3  and  C_4
REMARK    3  A    between atoms: C_4  and  N_5
REMARK    4  A    between atoms: C_6  and  C_9
REMARK    5  A    between atoms: C_10  and  C_11
REMARK    6  A    between atoms: N_13  and  O_14
REMARK    7  A    between atoms: N_13  and  C_16
REMARK    8  A    between atoms: C_17  and  C_18
REMARK    9  A    between atoms: C_19  and  C_20
REMARK   10  A    between atoms: C_20  and  N_21
REMARK   11  A    between atoms: C_24  and  N_25
REMARK   12  A    between atoms: N_25  and  O_28
REMARK   13  A    between atoms: C_26  and  C_30
REMARK   14  A    between atoms: C_31  and  C_32
REMARK   15  A    between atoms: N_34  and  C_36
REMARK   16  A    between atoms: C_37  and  C_38
REMARK   17  A    between atoms: C_38  and  C_39
REMARK   18  A    between atoms: C_40  and  N_41
REMARK   19  A    between atoms: N_41  and  O_45
REMARK                            x       y       z     vdW  Elec       q    Type
REMARK                         _______ _______ _______ _____ _____    ______ ____
ROOT
ATOM      1  C   UNL     1     -43.087 102.392   4.703  0.00  0.00    +0.000 C 
ATOM      2  C   UNL     1     -44.130 101.824   4.523  0.00  0.00    +0.000 C 
ENDROOT
BRANCH   2   3
ATOM      3  N   UNL     1     -45.302 101.186   4.319  0.00  0.00    +0.000 N 
ATOM      4  C   UNL     1     -46.036 100.996   3.161  0.00  0.00    +0.000 C 
ATOM      5  O   UNL     1     -45.813 101.550   2.091  0.00  0.00    +0.000 OA
BRANCH   4   6
ATOM      6  C   UNL     1     -47.172 100.101   3.232  0.00  0.00    +0.000 C 
ATOM      7  C   UNL     1     -48.122  99.367   3.299  0.00  0.00    +0.000 C 
BRANCH   7   8
ATOM      8  C   UNL     1     -49.264  98.493   3.403  0.00  0.00    +0.000 C 
ATOM      9  O   UNL     1     -50.383  98.957   3.231  0.00  0.00    +0.000 OA
ATOM     10  N   UNL     1     -48.973  97.179   3.693  0.00  0.00    +0.000 N 
ATOM     11  H   UNL     1     -47.993  96.953   3.800  0.00  0.00    +0.000 HD
BRANCH  10  12
ATOM     12  C   UNL     1     -49.816  96.136   3.851  0.00  0.00    +0.000 C 
ATOM     13  C   UNL     1     -50.567  95.211   3.997  0.00  0.00    +0.000 C 
BRANCH  13  14
ATOM     14  C   UNL     1     -51.531  94.036   4.189  0.00  0.00    +0.000 C 
BRANCH  14  15
ATOM     15  C   UNL     1     -52.496  92.862   4.373  0.00  0.00    +0.000 C 
ATOM     16  C   UNL     1     -53.254  91.943   4.521  0.00  0.00    +0.000 C 
BRANCH  16  17
ATOM     17  N   UNL     1     -54.106  90.914   4.692  0.00  0.00    +0.000 N 
ATOM     18  C   UNL     1     -54.095  89.634   4.189  0.00  0.00    +0.000 C 
ATOM     19  O   UNL     1     -53.295  89.090   3.450  0.00  0.00    +0.000 OA
ATOM     20  C   UNL     1     -55.209  88.687   4.561  0.00  0.00    +0.000 C 
BRANCH  17  21
ATOM     21  O   UNL     1     -55.164  91.319   5.548  0.00  0.00    +0.000 OA
ATOM     22  H   UNL     1     -55.864  91.593   4.920  0.00  0.00    +0.000 HD
ENDBRANCH  17  21
ENDBRANCH  16  17
ENDBRANCH  14  15
ENDBRANCH  13  14
ENDBRANCH  10  12
ENDBRANCH   7   8
ENDBRANCH   4   6
BRANCH   3  23
ATOM     23  O   UNL     1     -45.556 100.316   5.403  0.00  0.00    +0.000 OA
ATOM     24  H   UNL     1     -46.029  99.587   4.960  0.00  0.00    +0.000 HD
ENDBRANCH   3  23
ENDBRANCH   2   3
BRANCH   1  25
ATOM     25  C   UNL     1     -41.764 103.129   4.926  0.00  0.00    +0.000 C 
ATOM     26  C   UNL     1     -40.721 103.698   5.092  0.00  0.00    +0.000 C 
BRANCH  26  27
ATOM     27  C   UNL     1     -39.383 104.416   5.293  0.00  0.00    +0.000 C 
BRANCH  27  28
ATOM     28  N   UNL     1     -38.194 105.033   5.472  0.00  0.00    +0.000 N 
ATOM     29  C   UNL     1     -37.091 105.042   4.651  0.00  0.00    +0.000 C 
ATOM     30  O   UNL     1     -36.995 104.469   3.576  0.00  0.00    +0.000 OA
ATOM     31  H   UNL     1     -38.125 105.564   6.331  0.00  0.00    +0.000 HD
BRANCH  29  32
ATOM     32  C   UNL     1     -35.970 105.809   5.136  0.00  0.00    +0.000 C 
ATOM     33  C   UNL     1     -35.044 106.445   5.562  0.00  0.00    +0.000 C 
BRANCH  33  34
ATOM     34  C   UNL     1     -33.929 107.200   6.095  0.00  0.00    +0.000 C 
ATOM     35  O   UNL     1     -33.084 107.605   5.302  0.00  0.00    +0.000 OA
ATOM     36  N   UNL     1     -33.877 107.379   7.467  0.00  0.00    +0.000 N 
BRANCH  36  37
ATOM     37  C   UNL     1     -33.060 108.140   8.225  0.00  0.00    +0.000 C 
ATOM     38  C   UNL     1     -32.332 108.817   8.896  0.00  0.00    +0.000 C 
BRANCH  38  39
ATOM     39  C   UNL     1     -31.397 109.680   9.750  0.00  0.00    +0.000 C 
ATOM     40  C   UNL     1     -30.660 110.354  10.415  0.00  0.00    +0.000 C 
BRANCH  40  41
ATOM     41  C   UNL     1     -29.717 111.214  11.261  0.00  0.00    +0.000 C 
BRANCH  41  42
ATOM     42  N   UNL     1     -28.821 112.030  12.064  0.00  0.00    +0.000 NA
ATOM     43  H   UNL     1     -28.365 112.733  11.485  0.00  0.00    +0.000 HD
ATOM     44  H   UNL     1     -29.346 112.545  12.770  0.00  0.00    +0.000 HD
ENDBRANCH  41  42
ENDBRANCH  40  41
ENDBRANCH  38  39
ENDBRANCH  36  37
BRANCH  36  45
ATOM     45  O   UNL     1     -35.027 107.036   8.213  0.00  0.00    +0.000 OA
ATOM     46  H   UNL     1     -34.636 106.804   9.076  0.00  0.00    +0.000 HD
ENDBRANCH  36  45
ENDBRANCH  33  34
ENDBRANCH  29  32
ENDBRANCH  27  28
ENDBRANCH  26  27
ENDBRANCH   1  25
TORSDOF 19
ENDMDL
MODEL 7
REMARK VINA RESULT:      -4.3     18.937     28.049
REMARK  Name = Deferoxamine.pdbqt.pdb
REMARK  19 active torsions:
REMARK  status: ('A' for Active; 'I' for Inactive)
REMARK    1  A    between atoms: C_1  and  C_2
REMARK    2  A    between atoms: C_3  and  C_4
REMARK    3  A    between atoms: C_4  and  N_5
REMARK    4  A    between atoms: C_6  and  C_9
REMARK    5  A    between atoms: C_10  and  C_11
REMARK    6  A    between atoms: N_13  and  O_14
REMARK    7  A    between atoms: N_13  and  C_16
REMARK    8  A    between atoms: C_17  and  C_18
REMARK    9  A    between atoms: C_19  and  C_20
REMARK   10  A    between atoms: C_20  and  N_21
REMARK   11  A    between atoms: C_24  and  N_25
REMARK   12  A    between atoms: N_25  and  O_28
REMARK   13  A    between atoms: C_26  and  C_30
REMARK   14  A    between atoms: C_31  and  C_32
REMARK   15  A    between atoms: N_34  and  C_36
REMARK   16  A    between atoms: C_37  and  C_38
REMARK   17  A    between atoms: C_38  and  C_39
REMARK   18  A    between atoms: C_40  and  N_41
REMARK   19  A    between atoms: N_41  and  O_45
REMARK                            x       y       z     vdW  Elec       q    Type
REMARK                         _______ _______ _______ _____ _____    ______ ____
ROOT
ATOM      1  C   UNL     1     -41.192 102.182   1.928  0.00  0.00    +0.000 C 
ATOM      2  C   UNL     1     -42.282 101.678   1.916  0.00  0.00    +0.000 C 
ENDROOT
BRANCH   2   3
ATOM      3  N   UNL     1     -43.506 101.111   1.900  0.00  0.00    +0.000 N 
ATOM      4  C   UNL     1     -44.764 101.681   1.806  0.00  0.00    +0.000 C 
ATOM      5  O   UNL     1     -44.997 102.882   1.892  0.00  0.00    +0.000 OA
BRANCH   4   6
ATOM      6  C   UNL     1     -45.890 100.787   1.627  0.00  0.00    +0.000 C 
ATOM      7  C   UNL     1     -46.832 100.057   1.481  0.00  0.00    +0.000 C 
BRANCH   7   8
ATOM      8  C   UNL     1     -47.976  99.192   1.323  0.00  0.00    +0.000 C 
ATOM      9  O   UNL     1     -48.861  99.517   0.545  0.00  0.00    +0.000 OA
ATOM     10  N   UNL     1     -47.956  98.048   2.088  0.00  0.00    +0.000 N 
ATOM     11  H   UNL     1     -47.145  97.921   2.681  0.00  0.00    +0.000 HD
BRANCH  10  12
ATOM     12  C   UNL     1     -48.870  97.056   2.159  0.00  0.00    +0.000 C 
ATOM     13  C   UNL     1     -49.682  96.175   2.217  0.00  0.00    +0.000 C 
BRANCH  13  14
ATOM     14  C   UNL     1     -50.718  95.048   2.281  0.00  0.00    +0.000 C 
BRANCH  14  15
ATOM     15  C   UNL     1     -51.747  93.917   2.349  0.00  0.00    +0.000 C 
ATOM     16  C   UNL     1     -52.555  93.029   2.399  0.00  0.00    +0.000 C 
BRANCH  16  17
ATOM     17  N   UNL     1     -53.458  92.031   2.449  0.00  0.00    +0.000 N 
ATOM     18  C   UNL     1     -53.550  90.933   3.272  0.00  0.00    +0.000 C 
ATOM     19  O   UNL     1     -52.828  90.575   4.186  0.00  0.00    +0.000 OA
ATOM     20  C   UNL     1     -54.693  89.967   3.085  0.00  0.00    +0.000 C 
BRANCH  17  21
ATOM     21  O   UNL     1     -54.437  92.234   1.442  0.00  0.00    +0.000 OA
ATOM     22  H   UNL     1     -54.803  91.335   1.305  0.00  0.00    +0.000 HD
ENDBRANCH  17  21
ENDBRANCH  16  17
ENDBRANCH  14  15
ENDBRANCH  13  14
ENDBRANCH  10  12
ENDBRANCH   7   8
ENDBRANCH   4   6
BRANCH   3  23
ATOM     23  O   UNL     1     -43.384  99.742   1.569  0.00  0.00    +0.000 OA
ATOM     24  H   UNL     1     -44.277  99.412   1.778  0.00  0.00    +0.000 HD
ENDBRANCH   3  23
ENDBRANCH   2   3
BRANCH   1  25
ATOM     25  C   UNL     1     -39.806 102.833   1.930  0.00  0.00    +0.000 C 
ATOM     26  C   UNL     1     -38.724 103.352   1.941  0.00  0.00    +0.000 C 
BRANCH  26  27
ATOM     27  C   UNL     1     -37.348 104.025   1.963  0.00  0.00    +0.000 C 
BRANCH  27  28
ATOM     28  N   UNL     1     -36.131 104.610   1.966  0.00  0.00    +0.000 N 
ATOM     29  C   UNL     1     -35.259 104.790   3.014  0.00  0.00    +0.000 C 
ATOM     30  O   UNL     1     -35.447 104.436   4.169  0.00  0.00    +0.000 OA
ATOM     31  H   UNL     1     -35.830 104.953   1.063  0.00  0.00    +0.000 HD
BRANCH  29  32
ATOM     32  C   UNL     1     -34.024 105.458   2.681  0.00  0.00    +0.000 C 
ATOM     33  C   UNL     1     -33.000 106.028   2.421  0.00  0.00    +0.000 C 
BRANCH  33  34
ATOM     34  C   UNL     1     -31.761 106.721   2.131  0.00  0.00    +0.000 C 
ATOM     35  O   UNL     1     -31.241 106.523   1.037  0.00  0.00    +0.000 OA
ATOM     36  N   UNL     1     -31.234 107.529   3.124  0.00  0.00    +0.000 N 
BRANCH  36  37
ATOM     37  C   UNL     1     -30.197 108.392   3.098  0.00  0.00    +0.000 C 
ATOM     38  C   UNL     1     -29.275 109.159   3.079  0.00  0.00    +0.000 C 
BRANCH  38  39
ATOM     39  C   UNL     1     -28.099 110.142   3.060  0.00  0.00    +0.000 C 
ATOM     40  C   UNL     1     -27.175 110.907   3.048  0.00  0.00    +0.000 C 
BRANCH  40  41
ATOM     41  C   UNL     1     -25.994 111.881   3.035  0.00  0.00    +0.000 C 
BRANCH  41  42
ATOM     42  N   UNL     1     -24.872 112.806   3.021  0.00  0.00    +0.000 NA
ATOM     43  H   UNL     1     -24.886 113.369   2.173  0.00  0.00    +0.000 HD
ATOM     44  H   UNL     1     -24.944 113.463   3.797  0.00  0.00    +0.000 HD
ENDBRANCH  41  42
ENDBRANCH  40  41
ENDBRANCH  38  39
ENDBRANCH  36  37
BRANCH  36  45
ATOM     45  O   UNL     1     -32.056 107.815   4.237  0.00  0.00    +0.000 OA
ATOM     46  H   UNL     1     -31.425 108.255   4.836  0.00  0.00    +0.000 HD
ENDBRANCH  36  45
ENDBRANCH  33  34
ENDBRANCH  29  32
ENDBRANCH  27  28
ENDBRANCH  26  27
ENDBRANCH   1  25
TORSDOF 19
ENDMDL
MODEL 8
REMARK VINA RESULT:      -4.3     23.510     25.083
REMARK  Name = Deferoxamine.pdbqt.pdb
REMARK  19 active torsions:
REMARK  status: ('A' for Active; 'I' for Inactive)
REMARK    1  A    between atoms: C_1  and  C_2
REMARK    2  A    between atoms: C_3  and  C_4
REMARK    3  A    between atoms: C_4  and  N_5
REMARK    4  A    between atoms: C_6  and  C_9
REMARK    5  A    between atoms: C_10  and  C_11
REMARK    6  A    between atoms: N_13  and  O_14
REMARK    7  A    between atoms: N_13  and  C_16
REMARK    8  A    between atoms: C_17  and  C_18
REMARK    9  A    between atoms: C_19  and  C_20
REMARK   10  A    between atoms: C_20  and  N_21
REMARK   11  A    between atoms: C_24  and  N_25
REMARK   12  A    between atoms: N_25  and  O_28
REMARK   13  A    between atoms: C_26  and  C_30
REMARK   14  A    between atoms: C_31  and  C_32
REMARK   15  A    between atoms: N_34  and  C_36
REMARK   16  A    between atoms: C_37  and  C_38
REMARK   17  A    between atoms: C_38  and  C_39
REMARK   18  A    between atoms: C_40  and  N_41
REMARK   19  A    between atoms: N_41  and  O_45
REMARK                            x       y       z     vdW  Elec       q    Type
REMARK                         _______ _______ _______ _____ _____    ______ ____
ROOT
ATOM      1  C   UNL     1     -21.802  88.097  16.379  0.00  0.00    +0.000 C 
ATOM      2  C   UNL     1     -21.079  88.837  16.990  0.00  0.00    +0.000 C 
ENDROOT
BRANCH   2   3
ATOM      3  N   UNL     1     -20.267  89.667  17.677  0.00  0.00    +0.000 N 
ATOM      4  C   UNL     1     -20.322  91.038  17.857  0.00  0.00    +0.000 C 
ATOM      5  O   UNL     1     -21.071  91.796  17.249  0.00  0.00    +0.000 OA
BRANCH   4   6
ATOM      6  C   UNL     1     -19.402  91.623  18.811  0.00  0.00    +0.000 C 
ATOM      7  C   UNL     1     -18.650  92.111  19.610  0.00  0.00    +0.000 C 
BRANCH   7   8
ATOM      8  C   UNL     1     -17.763  92.712  20.576  0.00  0.00    +0.000 C 
ATOM      9  O   UNL     1     -16.576  92.817  20.306  0.00  0.00    +0.000 OA
ATOM     10  N   UNL     1     -18.362  93.122  21.746  0.00  0.00    +0.000 N 
ATOM     11  H   UNL     1     -19.361  92.969  21.814  0.00  0.00    +0.000 HD
BRANCH  10  12
ATOM     12  C   UNL     1     -17.805  93.712  22.826  0.00  0.00    +0.000 C 
ATOM     13  C   UNL     1     -17.307  94.238  23.782  0.00  0.00    +0.000 C 
BRANCH  13  14
ATOM     14  C   UNL     1     -16.666  94.917  24.997  0.00  0.00    +0.000 C 
BRANCH  14  15
ATOM     15  C   UNL     1     -16.018  95.593  26.208  0.00  0.00    +0.000 C 
ATOM     16  C   UNL     1     -15.509  96.120  27.160  0.00  0.00    +0.000 C 
BRANCH  16  17
ATOM     17  N   UNL     1     -14.936  96.705  28.229  0.00  0.00    +0.000 N 
ATOM     18  C   UNL     1     -15.485  97.341  29.317  0.00  0.00    +0.000 C 
ATOM     19  O   UNL     1     -16.653  97.538  29.603  0.00  0.00    +0.000 OA
ATOM     20  C   UNL     1     -14.573  97.912  30.374  0.00  0.00    +0.000 C 
BRANCH  17  21
ATOM     21  O   UNL     1     -13.525  96.600  28.120  0.00  0.00    +0.000 OA
ATOM     22  H   UNL     1     -13.277  97.424  27.652  0.00  0.00    +0.000 HD
ENDBRANCH  17  21
ENDBRANCH  16  17
ENDBRANCH  14  15
ENDBRANCH  13  14
ENDBRANCH  10  12
ENDBRANCH   7   8
ENDBRANCH   4   6
BRANCH   3  23
ATOM     23  O   UNL     1     -19.505  88.918  18.602  0.00  0.00    +0.000 OA
ATOM     24  H   UNL     1     -18.746  88.647  18.053  0.00  0.00    +0.000 HD
ENDBRANCH   3  23
ENDBRANCH   2   3
BRANCH   1  25
ATOM     25  C   UNL     1     -22.736  87.162  15.607  0.00  0.00    +0.000 C 
ATOM     26  C   UNL     1     -23.477  86.440  15.000  0.00  0.00    +0.000 C 
BRANCH  26  27
ATOM     27  C   UNL     1     -24.431  85.528  14.221  0.00  0.00    +0.000 C 
BRANCH  27  28
ATOM     28  N   UNL     1     -25.284  84.738  13.533  0.00  0.00    +0.000 N 
ATOM     29  C   UNL     1     -25.521  84.691  12.179  0.00  0.00    +0.000 C 
ATOM     30  O   UNL     1     -24.976  85.387  11.334  0.00  0.00    +0.000 OA
ATOM     31  H   UNL     1     -25.810  84.092  14.108  0.00  0.00    +0.000 HD
BRANCH  29  32
ATOM     32  C   UNL     1     -26.503  83.722  11.759  0.00  0.00    +0.000 C 
ATOM     33  C   UNL     1     -27.310  82.898  11.422  0.00  0.00    +0.000 C 
BRANCH  33  34
ATOM     34  C   UNL     1     -28.279  81.894  11.035  0.00  0.00    +0.000 C 
ATOM     35  O   UNL     1     -28.287  80.839  11.663  0.00  0.00    +0.000 OA
ATOM     36  N   UNL     1     -29.102  82.182   9.960  0.00  0.00    +0.000 N 
BRANCH  36  37
ATOM     37  C   UNL     1     -30.172  81.523   9.469  0.00  0.00    +0.000 C 
ATOM     38  C   UNL     1     -31.123  80.934   9.034  0.00  0.00    +0.000 C 
BRANCH  38  39
ATOM     39  C   UNL     1     -32.333  80.175   8.480  0.00  0.00    +0.000 C 
ATOM     40  C   UNL     1     -33.279  79.577   8.047  0.00  0.00    +0.000 C 
BRANCH  40  41
ATOM     41  C   UNL     1     -34.484  78.810   7.496  0.00  0.00    +0.000 C 
BRANCH  41  42
ATOM     42  N   UNL     1     -35.627  78.081   6.973  0.00  0.00    +0.000 NA
ATOM     43  H   UNL     1     -36.492  78.444   7.370  0.00  0.00    +0.000 HD
ATOM     44  H   UNL     1     -35.703  78.214   5.965  0.00  0.00    +0.000 HD
ENDBRANCH  41  42
ENDBRANCH  40  41
ENDBRANCH  38  39
ENDBRANCH  36  37
BRANCH  36  45
ATOM     45  O   UNL     1     -29.111  83.513   9.484  0.00  0.00    +0.000 OA
ATOM     46  H   UNL     1     -28.175  83.638   9.243  0.00  0.00    +0.000 HD
ENDBRANCH  36  45
ENDBRANCH  33  34
ENDBRANCH  29  32
ENDBRANCH  27  28
ENDBRANCH  26  27
ENDBRANCH   1  25
TORSDOF 19
ENDMDL
MODEL 9
REMARK VINA RESULT:      -4.3     22.864     27.686
REMARK  Name = Deferoxamine.pdbqt.pdb
REMARK  19 active torsions:
REMARK  status: ('A' for Active; 'I' for Inactive)
REMARK    1  A    between atoms: C_1  and  C_2
REMARK    2  A    between atoms: C_3  and  C_4
REMARK    3  A    between atoms: C_4  and  N_5
REMARK    4  A    between atoms: C_6  and  C_9
REMARK    5  A    between atoms: C_10  and  C_11
REMARK    6  A    between atoms: N_13  and  O_14
REMARK    7  A    between atoms: N_13  and  C_16
REMARK    8  A    between atoms: C_17  and  C_18
REMARK    9  A    between atoms: C_19  and  C_20
REMARK   10  A    between atoms: C_20  and  N_21
REMARK   11  A    between atoms: C_24  and  N_25
REMARK   12  A    between atoms: N_25  and  O_28
REMARK   13  A    between atoms: C_26  and  C_30
REMARK   14  A    between atoms: C_31  and  C_32
REMARK   15  A    between atoms: N_34  and  C_36
REMARK   16  A    between atoms: C_37  and  C_38
REMARK   17  A    between atoms: C_38  and  C_39
REMARK   18  A    between atoms: C_40  and  N_41
REMARK   19  A    between atoms: N_41  and  O_45
REMARK                            x       y       z     vdW  Elec       q    Type
REMARK                         _______ _______ _______ _____ _____    ______ ____
ROOT
ATOM      1  C   UNL     1     -23.621 102.607   1.014  0.00  0.00    +0.000 C 
ATOM      2  C   UNL     1     -23.465 102.369   2.181  0.00  0.00    +0.000 C 
ENDROOT
BRANCH   2   3
ATOM      3  N   UNL     1     -23.289 102.103   3.492  0.00  0.00    +0.000 N 
ATOM      4  C   UNL     1     -24.089 101.417   4.389  0.00  0.00    +0.000 C 
ATOM      5  O   UNL     1     -25.240 101.056   4.168  0.00  0.00    +0.000 OA
BRANCH   4   6
ATOM      6  C   UNL     1     -23.535 101.137   5.698  0.00  0.00    +0.000 C 
ATOM      7  C   UNL     1     -23.067 100.916   6.782  0.00  0.00    +0.000 C 
BRANCH   7   8
ATOM      8  C   UNL     1     -22.484 100.658   8.076  0.00  0.00    +0.000 C 
ATOM      9  O   UNL     1     -23.203 100.670   9.064  0.00  0.00    +0.000 OA
ATOM     10  N   UNL     1     -21.129 100.414   8.069  0.00  0.00    +0.000 N 
ATOM     11  H   UNL     1     -20.675 100.434   7.165  0.00  0.00    +0.000 HD
BRANCH  10  12
ATOM     12  C   UNL     1     -20.308 100.143   9.108  0.00  0.00    +0.000 C 
ATOM     13  C   UNL     1     -19.583  99.898  10.032  0.00  0.00    +0.000 C 
BRANCH  13  14
ATOM     14  C   UNL     1     -18.661  99.577  11.212  0.00  0.00    +0.000 C 
BRANCH  14  15
ATOM     15  C   UNL     1     -17.744  99.262  12.398  0.00  0.00    +0.000 C 
ATOM     16  C   UNL     1     -17.025  99.012  13.326  0.00  0.00    +0.000 C 
BRANCH  16  17
ATOM     17  N   UNL     1     -16.215  98.728  14.364  0.00  0.00    +0.000 N 
ATOM     18  C   UNL     1     -16.247  97.708  15.286  0.00  0.00    +0.000 C 
ATOM     19  O   UNL     1     -17.029  96.781  15.402  0.00  0.00    +0.000 OA
ATOM     20  C   UNL     1     -15.187  97.650  16.357  0.00  0.00    +0.000 C 
BRANCH  17  21
ATOM     21  O   UNL     1     -15.187  99.703  14.438  0.00  0.00    +0.000 OA
ATOM     22  H   UNL     1     -14.504  99.353  13.829  0.00  0.00    +0.000 HD
ENDBRANCH  17  21
ENDBRANCH  16  17
ENDBRANCH  14  15
ENDBRANCH  13  14
ENDBRANCH  10  12
ENDBRANCH   7   8
ENDBRANCH   4   6
BRANCH   3  23
ATOM     23  O   UNL     1     -21.924 102.257   3.822  0.00  0.00    +0.000 OA
ATOM     24  H   UNL     1     -21.981 102.588   4.737  0.00  0.00    +0.000 HD
ENDBRANCH   3  23
ENDBRANCH   2   3
BRANCH   1  25
ATOM     25  C   UNL     1     -23.804 102.907  -0.476  0.00  0.00    +0.000 C 
ATOM     26  C   UNL     1     -23.954 103.131  -1.645  0.00  0.00    +0.000 C 
BRANCH  26  27
ATOM     27  C   UNL     1     -24.153 103.405  -3.140  0.00  0.00    +0.000 C 
BRANCH  27  28
ATOM     28  N   UNL     1     -24.346 103.648  -4.454  0.00  0.00    +0.000 N 
ATOM     29  C   UNL     1     -25.159 102.991  -5.347  0.00  0.00    +0.000 C 
ATOM     30  O   UNL     1     -25.875 102.034  -5.091  0.00  0.00    +0.000 OA
ATOM     31  H   UNL     1     -23.815 104.431  -4.815  0.00  0.00    +0.000 HD
BRANCH  29  32
ATOM     32  C   UNL     1     -25.139 103.508  -6.693  0.00  0.00    +0.000 C 
ATOM     33  C   UNL     1     -25.133 103.918  -7.823  0.00  0.00    +0.000 C 
BRANCH  33  34
ATOM     34  C   UNL     1     -25.144 104.400  -9.188  0.00  0.00    +0.000 C 
ATOM     35  O   UNL     1     -25.011 105.607  -9.367  0.00  0.00    +0.000 OA
ATOM     36  N   UNL     1     -25.343 103.468 -10.193  0.00  0.00    +0.000 N 
BRANCH  36  37
ATOM     37  C   UNL     1     -25.262 103.588 -11.534  0.00  0.00    +0.000 C 
ATOM     38  C   UNL     1     -25.194 103.696 -12.727  0.00  0.00    +0.000 C 
BRANCH  38  39
ATOM     39  C   UNL     1     -25.111 103.827 -14.251  0.00  0.00    +0.000 C 
ATOM     40  C   UNL     1     -25.041 103.929 -15.445  0.00  0.00    +0.000 C 
BRANCH  40  41
ATOM     41  C   UNL     1     -24.948 104.057 -16.968  0.00  0.00    +0.000 C 
BRANCH  41  42
ATOM     42  N   UNL     1     -24.860 104.177 -18.414  0.00  0.00    +0.000 NA
ATOM     43  H   UNL     1     -25.692 103.789 -18.854  0.00  0.00    +0.000 HD
ATOM     44  H   UNL     1     -24.828 105.158 -18.687  0.00  0.00    +0.000 HD
ENDBRANCH  41  42
ENDBRANCH  40  41
ENDBRANCH  38  39
ENDBRANCH  36  37
BRANCH  36  45
ATOM     45  O   UNL     1     -25.269 102.102  -9.838  0.00  0.00    +0.000 OA
ATOM     46  H   UNL     1     -25.946 101.713 -10.422  0.00  0.00    +0.000 HD
ENDBRANCH  36  45
ENDBRANCH  33  34
ENDBRANCH  29  32
ENDBRANCH  27  28
ENDBRANCH  26  27
ENDBRANCH   1  25
TORSDOF 19
ENDMDL
