MODEL 1
REMARK VINA RESULT:      -6.5      0.000      0.000
REMARK  Name = 
REMARK  25 active torsions:
REMARK  status: ('A' for Active; 'I' for Inactive)
REMARK    1  A    between atoms: O_2  and  C_17
REMARK    2  A    between atoms: O_2  and  C_36
REMARK    3  A    between atoms: O_3  and  C_20
REMARK    4  A    between atoms: O_3  and  C_37
REMARK    5  A    between atoms: O_4  and  C_21
REMARK    6  A    between atoms: O_5  and  C_22
REMARK    7  A    between atoms: O_7  and  C_30
REMARK    8  A    between atoms: O_8  and  C_31
REMARK    9  A    between atoms: O_8  and  C_39
REMARK   10  A    between atoms: O_12  and  C_41
REMARK   11  A    between atoms: O_13  and  C_51
REMARK   12  A    between atoms: O_13  and  C_55
REMARK   13  A    between atoms: N_15  and  C_44
REMARK   14  A    between atoms: C_18  and  C_29
REMARK   15  A    between atoms: C_24  and  C_33
REMARK   16  A    between atoms: C_24  and  C_34
REMARK   17  A    between atoms: C_32  and  C_35
REMARK   18  A    between atoms: C_36  and  C_38
REMARK   19  A    between atoms: C_37  and  C_40
REMARK   20  A    between atoms: C_39  and  C_41
REMARK   21  A    between atoms: C_41  and  C_44
REMARK   22  A    between atoms: C_44  and  C_48
REMARK   23  A    between atoms: C_55  and  C_56
REMARK   24  A    between atoms: C_55  and  C_57
REMARK   25  A    between atoms: C_55  and  C_58
REMARK                            x       y       z     vdW  Elec       q    Type
REMARK                         _______ _______ _______ _____ _____    ______ ____
ROOT
ATOM      1  O   UNL     1     -28.559  99.120  18.682  0.00  0.00    +0.000 OA
ATOM      2  O   UNL     1     -33.579 101.114  22.679  0.00  0.00    +0.000 OA
ATOM      3  C   UNL     1     -31.825  98.519  19.589  0.00  0.00    +0.000 C 
ATOM      4  C   UNL     1     -30.691  98.929  18.604  0.00  0.00    +0.000 C 
ATOM      5  C   UNL     1     -32.344 100.089  20.521  0.00  0.00    +0.000 C 
ATOM      6  C   UNL     1     -29.593  99.270  19.692  0.00  0.00    +0.000 C 
ATOM      7  C   UNL     1     -33.069  97.381  18.794  0.00  0.00    +0.000 C 
ATOM      8  C   UNL     1     -34.689  96.470  19.160  0.00  0.00    +0.000 C 
ATOM      9  C   UNL     1     -31.024 100.531  21.279  0.00  0.00    +0.000 C 
ATOM     10  C   UNL     1     -29.738 100.601  20.398  0.00  0.00    +0.000 C 
ATOM     11  C   UNL     1     -35.795  96.684  20.532  0.00  0.00    +0.000 C 
ATOM     12  C   UNL     1     -29.451  98.108  18.068  0.00  0.00    +0.000 C 
ATOM     13  C   UNL     1     -33.754 100.294  21.750  0.00  0.00    +0.000 C 
ATOM     14  C   UNL     1     -35.666  96.844  17.951  0.00  0.00    +0.000 C 
ATOM     15  C   UNL     1     -36.232  98.215  20.703  0.00  0.00    +0.000 C 
ATOM     16  C   UNL     1     -32.626 101.306  19.543  0.00  0.00    +0.000 C 
ATOM     17  C   UNL     1     -35.458  99.411  21.779  0.00  0.00    +0.000 C 
ATOM     18  C   UNL     1     -36.705  98.035  18.171  0.00  0.00    +0.000 C 
ATOM     19  C   UNL     1     -36.894  98.679  19.591  0.00  0.00    +0.000 C 
ATOM     20  C   UNL     1     -37.132  95.853  20.194  0.00  0.00    +0.000 C 
ATOM     21  C   UNL     1     -35.505  95.935  21.871  0.00  0.00    +0.000 C 
ATOM     22  C   UNL     1     -37.632  99.995  19.579  0.00  0.00    +0.000 C 
ENDROOT
BRANCH  17  23
ATOM     23  O   UNL     1     -35.859  99.031  23.095  0.00  0.00    +0.000 OA
ATOM     24  H   UNL     1     -36.776  99.354  23.182  0.00  0.00    +0.000 HD
ENDBRANCH  17  23
BRANCH   9  25
ATOM     25  O   UNL     1     -30.759  99.590  22.321  0.00  0.00    +0.000 OA
ATOM     26  H   UNL     1     -31.135  99.959  23.140  0.00  0.00    +0.000 HD
ENDBRANCH   9  25
BRANCH   8  27
ATOM     27  O   UNL     1     -34.362  95.075  19.010  0.00  0.00    +0.000 OA
ATOM     28  H   UNL     1     -35.099  94.620  18.565  0.00  0.00    +0.000 HD
ENDBRANCH   8  27
BRANCH  18  29
ATOM     29  O   UNL     1     -36.334  99.116  17.267  0.00  0.00    +0.000 OA
BRANCH  29  31
ATOM     30  O   UNL     1     -36.610  98.806  15.047  0.00  0.00    +0.000 OA
ATOM     31  C   UNL     1     -37.034  99.242  16.111  0.00  0.00    +0.000 C 
BRANCH  31  32
ATOM     32  C   UNL     1     -38.298 100.103  16.206  0.00  0.00    +0.000 C 
BRANCH  32  33
ATOM     33  O   UNL     1     -39.537  99.394  16.087  0.00  0.00    +0.000 OA
ATOM     34  H   UNL     1     -39.302  98.449  16.026  0.00  0.00    +0.000 HD
ENDBRANCH  32  33
BRANCH  32  35
ATOM     35  C   UNL     1     -38.194 101.245  15.161  0.00  0.00    +0.000 C 
BRANCH  35  36
ATOM     36  C   UNL     1     -37.552 102.506  15.730  0.00  0.00    +0.000 A 
ATOM     37  C   UNL     1     -37.166 103.540  14.862  0.00  0.00    +0.000 A 
ATOM     38  C   UNL     1     -37.367 102.686  17.111  0.00  0.00    +0.000 A 
ATOM     39  C   UNL     1     -36.586 104.710  15.358  0.00  0.00    +0.000 A 
ATOM     40  C   UNL     1     -36.787 103.857  17.604  0.00  0.00    +0.000 A 
ATOM     41  C   UNL     1     -36.394 104.866  16.728  0.00  0.00    +0.000 A 
ENDBRANCH  35  36
BRANCH  35  43
ATOM     42  O   UNL     1     -38.855 101.915  12.445  0.00  0.00    +0.000 OA
ATOM     43  N   UNL     1     -39.499 101.589  14.614  0.00  0.00    +0.000 N 
ATOM     44  C   UNL     1     -39.687 101.994  13.333  0.00  0.00    +0.000 C 
ATOM     45  H   UNL     1     -40.233 101.824  15.270  0.00  0.00    +0.000 HD
BRANCH  44  46
ATOM     46  O   UNL     1     -40.946 102.466  13.210  0.00  0.00    +0.000 OA
BRANCH  46  47
ATOM     47  C   UNL     1     -41.282 103.805  13.656  0.00  0.00    +0.000 C 
ATOM     48  C   UNL     1     -40.204 104.816  13.252  0.00  0.00    +0.000 C 
ATOM     49  C   UNL     1     -42.581 104.149  12.910  0.00  0.00    +0.000 C 
ATOM     50  C   UNL     1     -41.560 103.835  15.163  0.00  0.00    +0.000 C 
ENDBRANCH  46  47
ENDBRANCH  44  46
ENDBRANCH  35  43
ENDBRANCH  32  35
ENDBRANCH  31  32
ENDBRANCH  29  31
ENDBRANCH  18  29
BRANCH   7  51
ATOM     51  O   UNL     1     -33.765  98.468  18.533  0.00  0.00    +0.000 OA
BRANCH  51  53
ATOM     52  O   UNL     1     -32.898  97.285  17.162  0.00  0.00    +0.000 OA
ATOM     53  C   UNL     1     -33.438  98.385  17.201  0.00  0.00    +0.000 C 
BRANCH  53  54
ATOM     54  C   UNL     1     -33.570  99.847  15.970  0.00  0.00    +0.000 A 
ATOM     55  C   UNL     1     -33.834 101.240  16.334  0.00  0.00    +0.000 A 
ATOM     56  C   UNL     1     -33.305  99.829  14.567  0.00  0.00    +0.000 A 
ATOM     57  C   UNL     1     -33.835 102.368  15.474  0.00  0.00    +0.000 A 
ATOM     58  C   UNL     1     -33.300 100.950  13.686  0.00  0.00    +0.000 A 
ATOM     59  C   UNL     1     -33.565 102.220  14.138  0.00  0.00    +0.000 A 
ENDBRANCH  53  54
ENDBRANCH  51  53
ENDBRANCH   7  51
BRANCH   4  60
ATOM     60  O   UNL     1     -31.066 100.048  17.766  0.00  0.00    +0.000 OA
BRANCH  60  62
ATOM     61  O   UNL     1     -30.105  99.768  15.765  0.00  0.00    +0.000 OA
ATOM     62  C   UNL     1     -30.326 100.500  16.727  0.00  0.00    +0.000 C 
ATOM     63  C   UNL     1     -29.691 101.851  16.822  0.00  0.00    +0.000 C 
ENDBRANCH  60  62
ENDBRANCH   4  60
TORSDOF 17
ENDMDL
MODEL 2
REMARK VINA RESULT:      -6.2      1.541      2.313
REMARK  Name = 
REMARK  25 active torsions:
REMARK  status: ('A' for Active; 'I' for Inactive)
REMARK    1  A    between atoms: O_2  and  C_17
REMARK    2  A    between atoms: O_2  and  C_36
REMARK    3  A    between atoms: O_3  and  C_20
REMARK    4  A    between atoms: O_3  and  C_37
REMARK    5  A    between atoms: O_4  and  C_21
REMARK    6  A    between atoms: O_5  and  C_22
REMARK    7  A    between atoms: O_7  and  C_30
REMARK    8  A    between atoms: O_8  and  C_31
REMARK    9  A    between atoms: O_8  and  C_39
REMARK   10  A    between atoms: O_12  and  C_41
REMARK   11  A    between atoms: O_13  and  C_51
REMARK   12  A    between atoms: O_13  and  C_55
REMARK   13  A    between atoms: N_15  and  C_44
REMARK   14  A    between atoms: C_18  and  C_29
REMARK   15  A    between atoms: C_24  and  C_33
REMARK   16  A    between atoms: C_24  and  C_34
REMARK   17  A    between atoms: C_32  and  C_35
REMARK   18  A    between atoms: C_36  and  C_38
REMARK   19  A    between atoms: C_37  and  C_40
REMARK   20  A    between atoms: C_39  and  C_41
REMARK   21  A    between atoms: C_41  and  C_44
REMARK   22  A    between atoms: C_44  and  C_48
REMARK   23  A    between atoms: C_55  and  C_56
REMARK   24  A    between atoms: C_55  and  C_57
REMARK   25  A    between atoms: C_55  and  C_58
REMARK                            x       y       z     vdW  Elec       q    Type
REMARK                         _______ _______ _______ _____ _____    ______ ____
ROOT
ATOM      1  O   UNL     1     -28.745  98.577  18.449  0.00  0.00    +0.000 OA
ATOM      2  O   UNL     1     -33.375 101.528  22.324  0.00  0.00    +0.000 OA
ATOM      3  C   UNL     1     -32.093  98.651  19.254  0.00  0.00    +0.000 C 
ATOM      4  C   UNL     1     -30.869  98.827  18.307  0.00  0.00    +0.000 C 
ATOM      5  C   UNL     1     -32.308 100.287  20.190  0.00  0.00    +0.000 C 
ATOM      6  C   UNL     1     -29.758  98.928  19.431  0.00  0.00    +0.000 C 
ATOM      7  C   UNL     1     -33.517  97.797  18.407  0.00  0.00    +0.000 C 
ATOM      8  C   UNL     1     -35.300  97.234  18.714  0.00  0.00    +0.000 C 
ATOM      9  C   UNL     1     -30.950 100.444  20.992  0.00  0.00    +0.000 C 
ATOM     10  C   UNL     1     -29.650 100.256  20.150  0.00  0.00    +0.000 C 
ATOM     11  C   UNL     1     -36.381  97.661  20.056  0.00  0.00    +0.000 C 
ATOM     12  C   UNL     1     -29.807  97.772  17.797  0.00  0.00    +0.000 C 
ATOM     13  C   UNL     1     -33.685 100.768  21.381  0.00  0.00    +0.000 C 
ATOM     14  C   UNL     1     -36.141  97.808  17.483  0.00  0.00    +0.000 C 
ATOM     15  C   UNL     1     -36.501  99.247  20.235  0.00  0.00    +0.000 C 
ATOM     16  C   UNL     1     -32.305 101.543  19.220  0.00  0.00    +0.000 C 
ATOM     17  C   UNL     1     -35.532 100.252  21.348  0.00  0.00    +0.000 C 
ATOM     18  C   UNL     1     -36.922  99.186  17.688  0.00  0.00    +0.000 C 
ATOM     19  C   UNL     1     -37.020  99.845  19.110  0.00  0.00    +0.000 C 
ATOM     20  C   UNL     1     -37.849  97.123  19.669  0.00  0.00    +0.000 C 
ATOM     21  C   UNL     1     -36.292  96.859  21.393  0.00  0.00    +0.000 C 
ATOM     22  C   UNL     1     -37.472 101.284  19.094  0.00  0.00    +0.000 C 
ENDROOT
BRANCH  17  23
ATOM     23  O   UNL     1     -36.044  99.953  22.647  0.00  0.00    +0.000 OA
ATOM     24  H   UNL     1     -36.261  99.002  22.619  0.00  0.00    +0.000 HD
ENDBRANCH  17  23
BRANCH   9  25
ATOM     25  O   UNL     1     -30.916  99.462  22.028  0.00  0.00    +0.000 OA
ATOM     26  H   UNL     1     -31.210  99.901  22.847  0.00  0.00    +0.000 HD
ENDBRANCH   9  25
BRANCH   8  27
ATOM     27  O   UNL     1     -35.260  95.802  18.556  0.00  0.00    +0.000 OA
ATOM     28  H   UNL     1     -35.909  95.538  17.880  0.00  0.00    +0.000 HD
ENDBRANCH   8  27
BRANCH  18  29
ATOM     29  O   UNL     1     -36.310 100.173  16.809  0.00  0.00    +0.000 OA
BRANCH  29  31
ATOM     30  O   UNL     1     -36.777 101.864  15.387  0.00  0.00    +0.000 OA
ATOM     31  C   UNL     1     -37.112 100.812  15.920  0.00  0.00    +0.000 C 
BRANCH  31  32
ATOM     32  C   UNL     1     -38.515 100.216  15.763  0.00  0.00    +0.000 C 
BRANCH  32  33
ATOM     33  O   UNL     1     -38.742  99.487  14.552  0.00  0.00    +0.000 OA
ATOM     34  H   UNL     1     -38.833 100.156  13.847  0.00  0.00    +0.000 HD
ENDBRANCH  32  33
BRANCH  32  35
ATOM     35  C   UNL     1     -39.555 101.354  15.947  0.00  0.00    +0.000 C 
BRANCH  35  36
ATOM     36  C   UNL     1     -40.474 101.123  17.141  0.00  0.00    +0.000 A 
ATOM     37  C   UNL     1     -40.564  99.842  17.709  0.00  0.00    +0.000 A 
ATOM     38  C   UNL     1     -41.212 102.167  17.724  0.00  0.00    +0.000 A 
ATOM     39  C   UNL     1     -41.389  99.605  18.811  0.00  0.00    +0.000 A 
ATOM     40  C   UNL     1     -42.037 101.927  18.824  0.00  0.00    +0.000 A 
ATOM     41  C   UNL     1     -42.128 100.647  19.365  0.00  0.00    +0.000 A 
ENDBRANCH  35  36
BRANCH  35  43
ATOM     42  O   UNL     1     -39.523 103.540  14.082  0.00  0.00    +0.000 OA
ATOM     43  N   UNL     1     -40.372 101.526  14.753  0.00  0.00    +0.000 N 
ATOM     44  C   UNL     1     -40.353 102.651  13.994  0.00  0.00    +0.000 C 
ATOM     45  H   UNL     1     -41.185 100.933  14.653  0.00  0.00    +0.000 HD
BRANCH  44  46
ATOM     46  O   UNL     1     -41.382 102.600  13.121  0.00  0.00    +0.000 OA
BRANCH  46  47
ATOM     47  C   UNL     1     -42.563 103.420  13.318  0.00  0.00    +0.000 C 
ATOM     48  C   UNL     1     -42.418 104.782  12.631  0.00  0.00    +0.000 C 
ATOM     49  C   UNL     1     -43.696 102.642  12.632  0.00  0.00    +0.000 C 
ATOM     50  C   UNL     1     -42.897 103.562  14.807  0.00  0.00    +0.000 C 
ENDBRANCH  46  47
ENDBRANCH  44  46
ENDBRANCH  35  43
ENDBRANCH  32  35
ENDBRANCH  31  32
ENDBRANCH  29  31
ENDBRANCH  18  29
BRANCH   7  51
ATOM     51  O   UNL     1     -33.968  99.005  18.140  0.00  0.00    +0.000 OA
BRANCH  51  53
ATOM     52  O   UNL     1     -33.250  97.695  16.799  0.00  0.00    +0.000 OA
ATOM     53  C   UNL     1     -33.656  98.853  16.812  0.00  0.00    +0.000 C 
BRANCH  53  54
ATOM     54  C   UNL     1     -33.617 100.290  15.546  0.00  0.00    +0.000 A 
ATOM     55  C   UNL     1     -33.940 100.176  14.123  0.00  0.00    +0.000 A 
ATOM     56  C   UNL     1     -33.407 101.678  15.813  0.00  0.00    +0.000 A 
ATOM     57  C   UNL     1     -34.029 101.226  13.175  0.00  0.00    +0.000 A 
ATOM     58  C   UNL     1     -33.492 102.748  14.874  0.00  0.00    +0.000 A 
ATOM     59  C   UNL     1     -33.803 102.524  13.555  0.00  0.00    +0.000 A 
ENDBRANCH  53  54
ENDBRANCH  51  53
ENDBRANCH   7  51
BRANCH   4  60
ATOM     60  O   UNL     1     -30.980 100.004  17.473  0.00  0.00    +0.000 OA
BRANCH  60  62
ATOM     61  O   UNL     1     -29.281 101.199  16.644  0.00  0.00    +0.000 OA
ATOM     62  C   UNL     1     -30.118 100.315  16.478  0.00  0.00    +0.000 C 
ATOM     63  C   UNL     1     -30.278  99.653  15.146  0.00  0.00    +0.000 C 
ENDBRANCH  60  62
ENDBRANCH   4  60
TORSDOF 17
ENDMDL
MODEL 3
REMARK VINA RESULT:      -5.8      1.628      2.290
REMARK  Name = 
REMARK  25 active torsions:
REMARK  status: ('A' for Active; 'I' for Inactive)
REMARK    1  A    between atoms: O_2  and  C_17
REMARK    2  A    between atoms: O_2  and  C_36
REMARK    3  A    between atoms: O_3  and  C_20
REMARK    4  A    between atoms: O_3  and  C_37
REMARK    5  A    between atoms: O_4  and  C_21
REMARK    6  A    between atoms: O_5  and  C_22
REMARK    7  A    between atoms: O_7  and  C_30
REMARK    8  A    between atoms: O_8  and  C_31
REMARK    9  A    between atoms: O_8  and  C_39
REMARK   10  A    between atoms: O_12  and  C_41
REMARK   11  A    between atoms: O_13  and  C_51
REMARK   12  A    between atoms: O_13  and  C_55
REMARK   13  A    between atoms: N_15  and  C_44
REMARK   14  A    between atoms: C_18  and  C_29
REMARK   15  A    between atoms: C_24  and  C_33
REMARK   16  A    between atoms: C_24  and  C_34
REMARK   17  A    between atoms: C_32  and  C_35
REMARK   18  A    between atoms: C_36  and  C_38
REMARK   19  A    between atoms: C_37  and  C_40
REMARK   20  A    between atoms: C_39  and  C_41
REMARK   21  A    between atoms: C_41  and  C_44
REMARK   22  A    between atoms: C_44  and  C_48
REMARK   23  A    between atoms: C_55  and  C_56
REMARK   24  A    between atoms: C_55  and  C_57
REMARK   25  A    between atoms: C_55  and  C_58
REMARK                            x       y       z     vdW  Elec       q    Type
REMARK                         _______ _______ _______ _____ _____    ______ ____
ROOT
ATOM      1  O   UNL     1     -29.259  97.433  19.979  0.00  0.00    +0.000 OA
ATOM      2  O   UNL     1     -33.957 101.520  22.507  0.00  0.00    +0.000 OA
ATOM      3  C   UNL     1     -32.603  98.251  19.893  0.00  0.00    +0.000 C 
ATOM      4  C   UNL     1     -31.174  98.109  19.292  0.00  0.00    +0.000 C 
ATOM      5  C   UNL     1     -32.686  99.952  20.729  0.00  0.00    +0.000 C 
ATOM      6  C   UNL     1     -30.384  98.048  20.664  0.00  0.00    +0.000 C 
ATOM      7  C   UNL     1     -33.921  97.659  18.715  0.00  0.00    +0.000 C 
ATOM      8  C   UNL     1     -35.802  97.499  18.557  0.00  0.00    +0.000 C 
ATOM      9  C   UNL     1     -31.570  99.875  21.853  0.00  0.00    +0.000 C 
ATOM     10  C   UNL     1     -30.175  99.368  21.375  0.00  0.00    +0.000 C 
ATOM     11  C   UNL     1     -37.065  98.224  19.572  0.00  0.00    +0.000 C 
ATOM     12  C   UNL     1     -30.272  96.827  19.082  0.00  0.00    +0.000 C 
ATOM     13  C   UNL     1     -34.178 100.783  21.521  0.00  0.00    +0.000 C 
ATOM     14  C   UNL     1     -36.164  98.155  17.146  0.00  0.00    +0.000 C 
ATOM     15  C   UNL     1     -36.880  99.809  19.701  0.00  0.00    +0.000 C 
ATOM     16  C   UNL     1     -32.169 101.116  19.783  0.00  0.00    +0.000 C 
ATOM     17  C   UNL     1     -36.025 100.660  21.018  0.00  0.00    +0.000 C 
ATOM     18  C   UNL     1     -36.654  99.675  17.132  0.00  0.00    +0.000 C 
ATOM     19  C   UNL     1     -36.958 100.429  18.476  0.00  0.00    +0.000 C 
ATOM     20  C   UNL     1     -38.470  97.979  18.824  0.00  0.00    +0.000 C 
ATOM     21  C   UNL     1     -37.489  97.508  20.893  0.00  0.00    +0.000 C 
ATOM     22  C   UNL     1     -37.069 101.926  18.332  0.00  0.00    +0.000 C 
ENDROOT
BRANCH  17  23
ATOM     23  O   UNL     1     -36.897 100.557  22.144  0.00  0.00    +0.000 OA
ATOM     24  H   UNL     1     -36.412 100.006  22.787  0.00  0.00    +0.000 HD
ENDBRANCH  17  23
BRANCH   9  25
ATOM     25  O   UNL     1     -32.010  98.975  22.871  0.00  0.00    +0.000 OA
ATOM     26  H   UNL     1     -31.522  98.141  22.745  0.00  0.00    +0.000 HD
ENDBRANCH   9  25
BRANCH   8  27
ATOM     27  O   UNL     1     -36.036  96.083  18.426  0.00  0.00    +0.000 OA
ATOM     28  H   UNL     1     -36.923  95.939  18.053  0.00  0.00    +0.000 HD
ENDBRANCH   8  27
BRANCH  18  29
ATOM     29  O   UNL     1     -35.642 100.456  16.432  0.00  0.00    +0.000 OA
BRANCH  29  31
ATOM     30  O   UNL     1     -36.303  99.964  14.330  0.00  0.00    +0.000 OA
ATOM     31  C   UNL     1     -35.881 100.784  15.138  0.00  0.00    +0.000 C 
BRANCH  31  32
ATOM     32  C   UNL     1     -35.432 102.191  14.728  0.00  0.00    +0.000 C 
BRANCH  32  33
ATOM     33  O   UNL     1     -35.083 103.065  15.808  0.00  0.00    +0.000 OA
ATOM     34  H   UNL     1     -34.219 102.755  16.138  0.00  0.00    +0.000 HD
ENDBRANCH  32  33
BRANCH  32  35
ATOM     35  C   UNL     1     -36.529 102.813  13.824  0.00  0.00    +0.000 C 
BRANCH  35  36
ATOM     36  C   UNL     1     -36.326 104.307  13.597  0.00  0.00    +0.000 A 
ATOM     37  C   UNL     1     -37.088 105.230  14.332  0.00  0.00    +0.000 A 
ATOM     38  C   UNL     1     -35.367 104.799  12.696  0.00  0.00    +0.000 A 
ATOM     39  C   UNL     1     -36.915 106.604  14.152  0.00  0.00    +0.000 A 
ATOM     40  C   UNL     1     -35.196 106.173  12.517  0.00  0.00    +0.000 A 
ATOM     41  C   UNL     1     -35.971 107.075  13.243  0.00  0.00    +0.000 A 
ENDBRANCH  35  36
BRANCH  35  43
ATOM     42  O   UNL     1     -38.901 101.954  12.447  0.00  0.00    +0.000 OA
ATOM     43  N   UNL     1     -37.860 102.600  14.377  0.00  0.00    +0.000 N 
ATOM     44  C   UNL     1     -38.941 102.294  13.618  0.00  0.00    +0.000 C 
ATOM     45  H   UNL     1     -38.051 102.979  15.295  0.00  0.00    +0.000 HD
BRANCH  44  46
ATOM     46  O   UNL     1     -40.050 102.402  14.381  0.00  0.00    +0.000 OA
BRANCH  46  47
ATOM     47  C   UNL     1     -41.079 103.373  14.060  0.00  0.00    +0.000 C 
ATOM     48  C   UNL     1     -42.241 102.725  13.299  0.00  0.00    +0.000 C 
ATOM     49  C   UNL     1     -41.595 103.860  15.422  0.00  0.00    +0.000 C 
ATOM     50  C   UNL     1     -40.495 104.570  13.300  0.00  0.00    +0.000 C 
ENDBRANCH  46  47
ENDBRANCH  44  46
ENDBRANCH  35  43
ENDBRANCH  32  35
ENDBRANCH  31  32
ENDBRANCH  29  31
ENDBRANCH  18  29
BRANCH   7  51
ATOM     51  O   UNL     1     -34.018  98.915  18.332  0.00  0.00    +0.000 OA
BRANCH  51  53
ATOM     52  O   UNL     1     -33.313  97.400  17.220  0.00  0.00    +0.000 OA
ATOM     53  C   UNL     1     -33.417  98.619  17.133  0.00  0.00    +0.000 C 
BRANCH  53  54
ATOM     54  C   UNL     1     -32.705  99.934  15.935  0.00  0.00    +0.000 A 
ATOM     55  C   UNL     1     -32.246 101.269  16.319  0.00  0.00    +0.000 A 
ATOM     56  C   UNL     1     -32.395  99.770  14.550  0.00  0.00    +0.000 A 
ATOM     57  C   UNL     1     -31.616 102.232  15.490  0.00  0.00    +0.000 A 
ATOM     58  C   UNL     1     -31.762 100.725  13.701  0.00  0.00    +0.000 A 
ATOM     59  C   UNL     1     -31.372 101.957  14.169  0.00  0.00    +0.000 A 
ENDBRANCH  53  54
ENDBRANCH  51  53
ENDBRANCH   7  51
BRANCH   4  60
ATOM     60  O   UNL     1     -30.815  99.228  18.449  0.00  0.00    +0.000 OA
BRANCH  60  62
ATOM     61  O   UNL     1     -28.741  99.977  18.073  0.00  0.00    +0.000 OA
ATOM     62  C   UNL     1     -29.688  99.287  17.702  0.00  0.00    +0.000 C 
ATOM     63  C   UNL     1     -29.662  98.601  16.372  0.00  0.00    +0.000 C 
ENDBRANCH  60  62
ENDBRANCH   4  60
TORSDOF 17
ENDMDL
MODEL 4
REMARK VINA RESULT:      -5.8      2.222      3.775
REMARK  Name = 
REMARK  25 active torsions:
REMARK  status: ('A' for Active; 'I' for Inactive)
REMARK    1  A    between atoms: O_2  and  C_17
REMARK    2  A    between atoms: O_2  and  C_36
REMARK    3  A    between atoms: O_3  and  C_20
REMARK    4  A    between atoms: O_3  and  C_37
REMARK    5  A    between atoms: O_4  and  C_21
REMARK    6  A    between atoms: O_5  and  C_22
REMARK    7  A    between atoms: O_7  and  C_30
REMARK    8  A    between atoms: O_8  and  C_31
REMARK    9  A    between atoms: O_8  and  C_39
REMARK   10  A    between atoms: O_12  and  C_41
REMARK   11  A    between atoms: O_13  and  C_51
REMARK   12  A    between atoms: O_13  and  C_55
REMARK   13  A    between atoms: N_15  and  C_44
REMARK   14  A    between atoms: C_18  and  C_29
REMARK   15  A    between atoms: C_24  and  C_33
REMARK   16  A    between atoms: C_24  and  C_34
REMARK   17  A    between atoms: C_32  and  C_35
REMARK   18  A    between atoms: C_36  and  C_38
REMARK   19  A    between atoms: C_37  and  C_40
REMARK   20  A    between atoms: C_39  and  C_41
REMARK   21  A    between atoms: C_41  and  C_44
REMARK   22  A    between atoms: C_44  and  C_48
REMARK   23  A    between atoms: C_55  and  C_56
REMARK   24  A    between atoms: C_55  and  C_57
REMARK   25  A    between atoms: C_55  and  C_58
REMARK                            x       y       z     vdW  Elec       q    Type
REMARK                         _______ _______ _______ _____ _____    ______ ____
ROOT
ATOM      1  O   UNL     1     -28.663  99.057  22.985  0.00  0.00    +0.000 OA
ATOM      2  O   UNL     1     -34.936 101.402  22.426  0.00  0.00    +0.000 OA
ATOM      3  C   UNL     1     -31.600  98.807  21.205  0.00  0.00    +0.000 C 
ATOM      4  C   UNL     1     -30.089  99.135  21.387  0.00  0.00    +0.000 C 
ATOM      5  C   UNL     1     -32.567 100.369  21.684  0.00  0.00    +0.000 C 
ATOM      6  C   UNL     1     -30.101  99.270  22.965  0.00  0.00    +0.000 C 
ATOM      7  C   UNL     1     -31.932  97.882  19.622  0.00  0.00    +0.000 C 
ATOM      8  C   UNL     1     -33.353  97.156  18.600  0.00  0.00    +0.000 C 
ATOM      9  C   UNL     1     -32.184 100.597  23.205  0.00  0.00    +0.000 C 
ATOM     10  C   UNL     1     -30.657 100.563  23.523  0.00  0.00    +0.000 C 
ATOM     11  C   UNL     1     -35.098  97.419  18.787  0.00  0.00    +0.000 C 
ATOM     12  C   UNL     1     -28.879  98.202  21.794  0.00  0.00    +0.000 C 
ATOM     13  C   UNL     1     -34.421 100.669  21.554  0.00  0.00    +0.000 C 
ATOM     14  C   UNL     1     -33.140  97.720  17.121  0.00  0.00    +0.000 C 
ATOM     15  C   UNL     1     -35.462  98.978  18.794  0.00  0.00    +0.000 C 
ATOM     16  C   UNL     1     -32.006 101.669  20.969  0.00  0.00    +0.000 C 
ATOM     17  C   UNL     1     -35.654 100.002  20.245  0.00  0.00    +0.000 C 
ATOM     18  C   UNL     1     -33.969  99.015  16.688  0.00  0.00    +0.000 C 
ATOM     19  C   UNL     1     -35.098  99.588  17.617  0.00  0.00    +0.000 C 
ATOM     20  C   UNL     1     -35.813  96.780  17.492  0.00  0.00    +0.000 C 
ATOM     21  C   UNL     1     -35.895  96.559  19.819  0.00  0.00    +0.000 C 
ATOM     22  C   UNL     1     -35.545 100.983  17.256  0.00  0.00    +0.000 C 
ENDROOT
BRANCH  17  23
ATOM     23  O   UNL     1     -36.897  99.593  20.817  0.00  0.00    +0.000 OA
ATOM     24  H   UNL     1     -36.652  99.017  21.565  0.00  0.00    +0.000 HD
ENDBRANCH  17  23
BRANCH   9  25
ATOM     25  O   UNL     1     -32.791  99.569  23.988  0.00  0.00    +0.000 OA
ATOM     26  H   UNL     1     -33.367 100.009  24.639  0.00  0.00    +0.000 HD
ENDBRANCH   9  25
BRANCH   8  27
ATOM     27  O   UNL     1     -33.076  95.742  18.547  0.00  0.00    +0.000 OA
ATOM     28  H   UNL     1     -32.322  95.587  17.951  0.00  0.00    +0.000 HD
ENDBRANCH   8  27
BRANCH  18  29
ATOM     29  O   UNL     1     -33.015 100.095  16.471  0.00  0.00    +0.000 OA
BRANCH  29  31
ATOM     30  O   UNL     1     -32.016  99.452  14.550  0.00  0.00    +0.000 OA
ATOM     31  C   UNL     1     -32.591 100.317  15.201  0.00  0.00    +0.000 C 
BRANCH  31  32
ATOM     32  C   UNL     1     -32.733 101.762  14.710  0.00  0.00    +0.000 C 
BRANCH  32  33
ATOM     33  O   UNL     1     -32.822 102.756  15.738  0.00  0.00    +0.000 OA
ATOM     34  H   UNL     1     -32.443 103.571  15.358  0.00  0.00    +0.000 HD
ENDBRANCH  32  33
BRANCH  32  35
ATOM     35  C   UNL     1     -33.944 101.834  13.742  0.00  0.00    +0.000 C 
BRANCH  35  36
ATOM     36  C   UNL     1     -34.580 103.219  13.698  0.00  0.00    +0.000 A 
ATOM     37  C   UNL     1     -34.984 103.835  14.894  0.00  0.00    +0.000 A 
ATOM     38  C   UNL     1     -34.743 103.924  12.494  0.00  0.00    +0.000 A 
ATOM     39  C   UNL     1     -35.558 105.108  14.884  0.00  0.00    +0.000 A 
ATOM     40  C   UNL     1     -35.318 105.197  12.486  0.00  0.00    +0.000 A 
ATOM     41  C   UNL     1     -35.728 105.786  13.680  0.00  0.00    +0.000 A 
ENDBRANCH  35  36
BRANCH  35  43
ATOM     42  O   UNL     1     -35.862 100.576  12.010  0.00  0.00    +0.000 OA
ATOM     43  N   UNL     1     -34.968 100.860  14.095  0.00  0.00    +0.000 N 
ATOM     44  C   UNL     1     -35.897 100.404  13.217  0.00  0.00    +0.000 C 
ATOM     45  H   UNL     1     -35.186 100.745  15.076  0.00  0.00    +0.000 HD
BRANCH  44  46
ATOM     46  O   UNL     1     -36.835  99.715  13.901  0.00  0.00    +0.000 OA
BRANCH  46  47
ATOM     47  C   UNL     1     -38.095 100.337  14.263  0.00  0.00    +0.000 C 
ATOM     48  C   UNL     1     -39.168 100.089  13.197  0.00  0.00    +0.000 C 
ATOM     49  C   UNL     1     -38.519  99.631  15.559  0.00  0.00    +0.000 C 
ATOM     50  C   UNL     1     -37.913 101.830  14.554  0.00  0.00    +0.000 C 
ENDBRANCH  46  47
ENDBRANCH  44  46
ENDBRANCH  35  43
ENDBRANCH  32  35
ENDBRANCH  31  32
ENDBRANCH  29  31
ENDBRANCH  18  29
BRANCH   7  51
ATOM     51  O   UNL     1     -32.180  99.060  19.089  0.00  0.00    +0.000 OA
BRANCH  51  53
ATOM     52  O   UNL     1     -30.649  97.856  18.601  0.00  0.00    +0.000 OA
ATOM     53  C   UNL     1     -31.016  99.002  18.362  0.00  0.00    +0.000 C 
BRANCH  53  54
ATOM     54  C   UNL     1     -30.186 100.521  17.541  0.00  0.00    +0.000 A 
ATOM     55  C   UNL     1     -30.449 101.919  17.885  0.00  0.00    +0.000 A 
ATOM     56  C   UNL     1     -29.117 100.521  16.593  0.00  0.00    +0.000 A 
ATOM     57  C   UNL     1     -29.785 103.067  17.383  0.00  0.00    +0.000 A 
ATOM     58  C   UNL     1     -28.438 101.663  16.077  0.00  0.00    +0.000 A 
ATOM     59  C   UNL     1     -28.769 102.937  16.471  0.00  0.00    +0.000 A 
ENDBRANCH  53  54
ENDBRANCH  51  53
ENDBRANCH   7  51
BRANCH   4  60
ATOM     60  O   UNL     1     -29.697 100.341  20.690  0.00  0.00    +0.000 OA
BRANCH  60  62
ATOM     61  O   UNL     1     -27.607 100.138  19.919  0.00  0.00    +0.000 OA
ATOM     62  C   UNL     1     -28.420 100.777  20.583  0.00  0.00    +0.000 C 
ATOM     63  C   UNL     1     -27.993 101.972  21.375  0.00  0.00    +0.000 C 
ENDBRANCH  60  62
ENDBRANCH   4  60
TORSDOF 17
ENDMDL
MODEL 5
REMARK VINA RESULT:      -5.7      2.682      4.247
REMARK  Name = 
REMARK  25 active torsions:
REMARK  status: ('A' for Active; 'I' for Inactive)
REMARK    1  A    between atoms: O_2  and  C_17
REMARK    2  A    between atoms: O_2  and  C_36
REMARK    3  A    between atoms: O_3  and  C_20
REMARK    4  A    between atoms: O_3  and  C_37
REMARK    5  A    between atoms: O_4  and  C_21
REMARK    6  A    between atoms: O_5  and  C_22
REMARK    7  A    between atoms: O_7  and  C_30
REMARK    8  A    between atoms: O_8  and  C_31
REMARK    9  A    between atoms: O_8  and  C_39
REMARK   10  A    between atoms: O_12  and  C_41
REMARK   11  A    between atoms: O_13  and  C_51
REMARK   12  A    between atoms: O_13  and  C_55
REMARK   13  A    between atoms: N_15  and  C_44
REMARK   14  A    between atoms: C_18  and  C_29
REMARK   15  A    between atoms: C_24  and  C_33
REMARK   16  A    between atoms: C_24  and  C_34
REMARK   17  A    between atoms: C_32  and  C_35
REMARK   18  A    between atoms: C_36  and  C_38
REMARK   19  A    between atoms: C_37  and  C_40
REMARK   20  A    between atoms: C_39  and  C_41
REMARK   21  A    between atoms: C_41  and  C_44
REMARK   22  A    between atoms: C_44  and  C_48
REMARK   23  A    between atoms: C_55  and  C_56
REMARK   24  A    between atoms: C_55  and  C_57
REMARK   25  A    between atoms: C_55  and  C_58
REMARK                            x       y       z     vdW  Elec       q    Type
REMARK                         _______ _______ _______ _____ _____    ______ ____
ROOT
ATOM      1  O   UNL     1     -28.406 100.112  22.713  0.00  0.00    +0.000 OA
ATOM      2  O   UNL     1     -34.951 101.553  22.227  0.00  0.00    +0.000 OA
ATOM      3  C   UNL     1     -31.360  99.242  21.172  0.00  0.00    +0.000 C 
ATOM      4  C   UNL     1     -29.898  99.778  21.212  0.00  0.00    +0.000 C 
ATOM      5  C   UNL     1     -32.502 100.725  21.489  0.00  0.00    +0.000 C 
ATOM      6  C   UNL     1     -29.859 100.139  22.753  0.00  0.00    +0.000 C 
ATOM      7  C   UNL     1     -31.637  98.062  19.756  0.00  0.00    +0.000 C 
ATOM      8  C   UNL     1     -32.993  97.024  18.937  0.00  0.00    +0.000 C 
ATOM      9  C   UNL     1     -32.085 101.218  22.937  0.00  0.00    +0.000 C 
ATOM     10  C   UNL     1     -30.555 101.421  23.160  0.00  0.00    +0.000 C 
ATOM     11  C   UNL     1     -34.748  97.093  19.194  0.00  0.00    +0.000 C 
ATOM     12  C   UNL     1     -28.559  99.072  21.667  0.00  0.00    +0.000 C 
ATOM     13  C   UNL     1     -34.383 100.771  21.435  0.00  0.00    +0.000 C 
ATOM     14  C   UNL     1     -32.922  97.389  17.383  0.00  0.00    +0.000 C 
ATOM     15  C   UNL     1     -35.313  98.579  19.007  0.00  0.00    +0.000 C 
ATOM     16  C   UNL     1     -32.150 101.966  20.567  0.00  0.00    +0.000 C 
ATOM     17  C   UNL     1     -35.574  99.772  20.311  0.00  0.00    +0.000 C 
ATOM     18  C   UNL     1     -33.932  98.493  16.827  0.00  0.00    +0.000 C 
ATOM     19  C   UNL     1     -35.085  99.051  17.736  0.00  0.00    +0.000 C 
ATOM     20  C   UNL     1     -35.428  96.189  18.048  0.00  0.00    +0.000 C 
ATOM     21  C   UNL     1     -35.378  96.300  20.383  0.00  0.00    +0.000 C 
ATOM     22  C   UNL     1     -35.728 100.312  17.214  0.00  0.00    +0.000 C 
ENDROOT
BRANCH  17  23
ATOM     23  O   UNL     1     -36.726  99.300  21.011  0.00  0.00    +0.000 OA
ATOM     24  H   UNL     1     -36.378  98.921  21.840  0.00  0.00    +0.000 HD
ENDBRANCH  17  23
BRANCH   9  25
ATOM     25  O   UNL     1     -32.516 100.248  23.892  0.00  0.00    +0.000 OA
ATOM     26  H   UNL     1     -31.764  99.650  24.050  0.00  0.00    +0.000 HD
ENDBRANCH   9  25
BRANCH   8  27
ATOM     27  O   UNL     1     -32.535  95.663  19.063  0.00  0.00    +0.000 OA
ATOM     28  H   UNL     1     -32.884  95.285  19.890  0.00  0.00    +0.000 HD
ENDBRANCH   8  27
BRANCH  18  29
ATOM     29  O   UNL     1     -33.140  99.640  16.403  0.00  0.00    +0.000 OA
BRANCH  29  31
ATOM     30  O   UNL     1     -31.588  98.742  15.029  0.00  0.00    +0.000 OA
ATOM     31  C   UNL     1     -32.489  99.554  15.216  0.00  0.00    +0.000 C 
BRANCH  31  32
ATOM     32  C   UNL     1     -32.844 100.642  14.196  0.00  0.00    +0.000 C 
BRANCH  32  33
ATOM     33  O   UNL     1     -31.751 101.462  13.765  0.00  0.00    +0.000 OA
ATOM     34  H   UNL     1     -31.429 101.066  12.934  0.00  0.00    +0.000 HD
ENDBRANCH  32  33
BRANCH  32  35
ATOM     35  C   UNL     1     -34.003 101.496  14.775  0.00  0.00    +0.000 C 
BRANCH  35  36
ATOM     36  C   UNL     1     -35.331 101.237  14.071  0.00  0.00    +0.000 A 
ATOM     37  C   UNL     1     -35.586  99.973  13.515  0.00  0.00    +0.000 A 
ATOM     38  C   UNL     1     -36.334 102.219  13.991  0.00  0.00    +0.000 A 
ATOM     39  C   UNL     1     -36.798  99.706  12.874  0.00  0.00    +0.000 A 
ATOM     40  C   UNL     1     -37.544 101.949  13.350  0.00  0.00    +0.000 A 
ATOM     41  C   UNL     1     -37.775 100.694  12.789  0.00  0.00    +0.000 A 
ENDBRANCH  35  36
BRANCH  35  43
ATOM     42  O   UNL     1     -34.028 103.420  16.909  0.00  0.00    +0.000 OA
ATOM     43  N   UNL     1     -33.704 102.920  14.702  0.00  0.00    +0.000 N 
ATOM     44  C   UNL     1     -33.848 103.766  15.753  0.00  0.00    +0.000 C 
ATOM     45  H   UNL     1     -33.679 103.346  13.785  0.00  0.00    +0.000 HD
BRANCH  44  46
ATOM     46  O   UNL     1     -33.730 105.034  15.306  0.00  0.00    +0.000 OA
BRANCH  46  47
ATOM     47  C   UNL     1     -34.904 105.798  14.928  0.00  0.00    +0.000 C 
ATOM     48  C   UNL     1     -36.130 105.382  15.747  0.00  0.00    +0.000 C 
ATOM     49  C   UNL     1     -34.551 107.252  15.276  0.00  0.00    +0.000 C 
ATOM     50  C   UNL     1     -35.165 105.705  13.420  0.00  0.00    +0.000 C 
ENDBRANCH  46  47
ENDBRANCH  44  46
ENDBRANCH  35  43
ENDBRANCH  32  35
ENDBRANCH  31  32
ENDBRANCH  29  31
ENDBRANCH  18  29
BRANCH   7  51
ATOM     51  O   UNL     1     -32.061  99.110  19.081  0.00  0.00    +0.000 OA
BRANCH  51  53
ATOM     52  O   UNL     1     -30.414  98.048  18.647  0.00  0.00    +0.000 OA
ATOM     53  C   UNL     1     -30.906  99.128  18.339  0.00  0.00    +0.000 C 
BRANCH  53  54
ATOM     54  C   UNL     1     -30.256 100.668  17.402  0.00  0.00    +0.000 A 
ATOM     55  C   UNL     1     -29.113 100.684  16.489  0.00  0.00    +0.000 A 
ATOM     56  C   UNL     1     -30.851 101.966  17.345  0.00  0.00    +0.000 A 
ATOM     57  C   UNL     1     -28.662 101.769  15.695  0.00  0.00    +0.000 A 
ATOM     58  C   UNL     1     -30.414 103.068  16.553  0.00  0.00    +0.000 A 
ATOM     59  C   UNL     1     -29.320 102.972  15.727  0.00  0.00    +0.000 A 
ENDBRANCH  53  54
ENDBRANCH  51  53
ENDBRANCH   7  51
BRANCH   4  60
ATOM     60  O   UNL     1     -29.700 100.908  20.331  0.00  0.00    +0.000 OA
BRANCH  60  62
ATOM     61  O   UNL     1     -27.601 100.869  19.559  0.00  0.00    +0.000 OA
ATOM     62  C   UNL     1     -28.503 101.498  20.108  0.00  0.00    +0.000 C 
ATOM     63  C   UNL     1     -28.261 102.874  20.642  0.00  0.00    +0.000 C 
ENDBRANCH  60  62
ENDBRANCH   4  60
TORSDOF 17
ENDMDL
MODEL 6
REMARK VINA RESULT:      -5.6      3.616     10.269
REMARK  Name = 
REMARK  25 active torsions:
REMARK  status: ('A' for Active; 'I' for Inactive)
REMARK    1  A    between atoms: O_2  and  C_17
REMARK    2  A    between atoms: O_2  and  C_36
REMARK    3  A    between atoms: O_3  and  C_20
REMARK    4  A    between atoms: O_3  and  C_37
REMARK    5  A    between atoms: O_4  and  C_21
REMARK    6  A    between atoms: O_5  and  C_22
REMARK    7  A    between atoms: O_7  and  C_30
REMARK    8  A    between atoms: O_8  and  C_31
REMARK    9  A    between atoms: O_8  and  C_39
REMARK   10  A    between atoms: O_12  and  C_41
REMARK   11  A    between atoms: O_13  and  C_51
REMARK   12  A    between atoms: O_13  and  C_55
REMARK   13  A    between atoms: N_15  and  C_44
REMARK   14  A    between atoms: C_18  and  C_29
REMARK   15  A    between atoms: C_24  and  C_33
REMARK   16  A    between atoms: C_24  and  C_34
REMARK   17  A    between atoms: C_32  and  C_35
REMARK   18  A    between atoms: C_36  and  C_38
REMARK   19  A    between atoms: C_37  and  C_40
REMARK   20  A    between atoms: C_39  and  C_41
REMARK   21  A    between atoms: C_41  and  C_44
REMARK   22  A    between atoms: C_44  and  C_48
REMARK   23  A    between atoms: C_55  and  C_56
REMARK   24  A    between atoms: C_55  and  C_57
REMARK   25  A    between atoms: C_55  and  C_58
REMARK                            x       y       z     vdW  Elec       q    Type
REMARK                         _______ _______ _______ _____ _____    ______ ____
ROOT
ATOM      1  O   UNL     1     -36.820  99.825  14.982  0.00  0.00    +0.000 OA
ATOM      2  O   UNL     1     -33.331 105.087  17.282  0.00  0.00    +0.000 OA
ATOM      3  C   UNL     1     -33.660 101.008  15.667  0.00  0.00    +0.000 C 
ATOM      4  C   UNL     1     -34.879 100.058  15.858  0.00  0.00    +0.000 C 
ATOM      5  C   UNL     1     -33.961 102.524  16.769  0.00  0.00    +0.000 C 
ATOM      6  C   UNL     1     -35.966 100.985  15.175  0.00  0.00    +0.000 C 
ATOM      7  C   UNL     1     -32.042 100.084  15.673  0.00  0.00    +0.000 C 
ATOM      8  C   UNL     1     -30.172 100.370  15.564  0.00  0.00    +0.000 C 
ATOM      9  C   UNL     1     -35.301 103.146  16.195  0.00  0.00    +0.000 C 
ATOM     10  C   UNL     1     -36.479 102.141  16.006  0.00  0.00    +0.000 C 
ATOM     11  C   UNL     1     -29.276 101.896  15.695  0.00  0.00    +0.000 C 
ATOM     12  C   UNL     1     -35.563  99.051  14.849  0.00  0.00    +0.000 C 
ATOM     13  C   UNL     1     -32.801 103.970  17.093  0.00  0.00    +0.000 C 
ATOM     14  C   UNL     1     -29.550  99.572  16.801  0.00  0.00    +0.000 C 
ATOM     15  C   UNL     1     -29.653 102.688  17.034  0.00  0.00    +0.000 C 
ATOM     16  C   UNL     1     -34.354 102.122  18.253  0.00  0.00    +0.000 C 
ATOM     17  C   UNL     1     -30.885 103.972  17.181  0.00  0.00    +0.000 C 
ATOM     18  C   UNL     1     -29.235 100.390  18.136  0.00  0.00    +0.000 C 
ATOM     19  C   UNL     1     -29.345 101.956  18.158  0.00  0.00    +0.000 C 
ATOM     20  C   UNL     1     -27.714 101.519  15.801  0.00  0.00    +0.000 C 
ATOM     21  C   UNL     1     -29.111 102.797  14.430  0.00  0.00    +0.000 C 
ATOM     22  C   UNL     1     -29.361 102.555  19.543  0.00  0.00    +0.000 C 
ENDROOT
BRANCH  17  23
ATOM     23  O   UNL     1     -30.305 105.108  16.538  0.00  0.00    +0.000 OA
ATOM     24  H   UNL     1     -29.619 105.424  17.156  0.00  0.00    +0.000 HD
ENDBRANCH  17  23
BRANCH   9  25
ATOM     25  O   UNL     1     -35.029 103.710  14.911  0.00  0.00    +0.000 OA
ATOM     26  H   UNL     1     -35.053 102.978  14.268  0.00  0.00    +0.000 HD
ENDBRANCH   9  25
BRANCH   8  27
ATOM     27  O   UNL     1     -29.766  99.667  14.373  0.00  0.00    +0.000 OA
ATOM     28  H   UNL     1     -29.049 100.162  13.940  0.00  0.00    +0.000 HD
ENDBRANCH   8  27
BRANCH  18  29
ATOM     29  O   UNL     1     -30.123  99.892  19.177  0.00  0.00    +0.000 OA
BRANCH  29  31
ATOM     30  O   UNL     1     -29.878  97.902  20.217  0.00  0.00    +0.000 OA
ATOM     31  C   UNL     1     -29.589  99.091  20.133  0.00  0.00    +0.000 C 
BRANCH  31  32
ATOM     32  C   UNL     1     -28.740  99.811  21.187  0.00  0.00    +0.000 C 
BRANCH  32  33
ATOM     33  O   UNL     1     -27.350  99.947  20.870  0.00  0.00    +0.000 OA
ATOM     34  H   UNL     1     -27.274 100.760  20.336  0.00  0.00    +0.000 HD
ENDBRANCH  32  33
BRANCH  32  35
ATOM     35  C   UNL     1     -28.946  99.101  22.552  0.00  0.00    +0.000 C 
BRANCH  35  36
ATOM     36  C   UNL     1     -30.260  99.486  23.222  0.00  0.00    +0.000 A 
ATOM     37  C   UNL     1     -30.926  98.551  24.032  0.00  0.00    +0.000 A 
ATOM     38  C   UNL     1     -30.814 100.770  23.087  0.00  0.00    +0.000 A 
ATOM     39  C   UNL     1     -32.125  98.882  24.667  0.00  0.00    +0.000 A 
ATOM     40  C   UNL     1     -32.014 101.097  23.723  0.00  0.00    +0.000 A 
ATOM     41  C   UNL     1     -32.670 100.153  24.509  0.00  0.00    +0.000 A 
ENDBRANCH  35  36
BRANCH  35  43
ATOM     42  O   UNL     1     -26.875  97.316  23.436  0.00  0.00    +0.000 OA
ATOM     43  N   UNL     1     -27.851  99.383  23.470  0.00  0.00    +0.000 N 
ATOM     44  C   UNL     1     -26.983  98.436  23.907  0.00  0.00    +0.000 C 
ATOM     45  H   UNL     1     -27.914 100.223  24.029  0.00  0.00    +0.000 HD
BRANCH  44  46
ATOM     46  O   UNL     1     -26.253  98.953  24.918  0.00  0.00    +0.000 OA
BRANCH  46  47
ATOM     47  C   UNL     1     -26.507  98.559  26.292  0.00  0.00    +0.000 C 
ATOM     48  C   UNL     1     -26.645  99.781  27.206  0.00  0.00    +0.000 C 
ATOM     49  C   UNL     1     -27.856  97.826  26.244  0.00  0.00    +0.000 C 
ATOM     50  C   UNL     1     -25.437  97.585  26.796  0.00  0.00    +0.000 C 
ENDBRANCH  46  47
ENDBRANCH  44  46
ENDBRANCH  35  43
ENDBRANCH  32  35
ENDBRANCH  31  32
ENDBRANCH  29  31
ENDBRANCH  18  29
BRANCH   7  51
ATOM     51  O   UNL     1     -31.987 100.363  16.958  0.00  0.00    +0.000 OA
BRANCH  51  53
ATOM     52  O   UNL     1     -32.196  98.529  16.169  0.00  0.00    +0.000 OA
ATOM     53  C   UNL     1     -32.245  99.052  17.277  0.00  0.00    +0.000 C 
BRANCH  53  54
ATOM     54  C   UNL     1     -32.832  98.463  19.003  0.00  0.00    +0.000 A 
ATOM     55  C   UNL     1     -33.325  99.332  20.073  0.00  0.00    +0.000 A 
ATOM     56  C   UNL     1     -33.005  97.117  19.450  0.00  0.00    +0.000 A 
ATOM     57  C   UNL     1     -33.868  98.935  21.321  0.00  0.00    +0.000 A 
ATOM     58  C   UNL     1     -33.549  96.698  20.699  0.00  0.00    +0.000 A 
ATOM     59  C   UNL     1     -33.981  97.605  21.636  0.00  0.00    +0.000 A 
ENDBRANCH  53  54
ENDBRANCH  51  53
ENDBRANCH   7  51
BRANCH   4  60
ATOM     60  O   UNL     1     -35.138  99.765  17.251  0.00  0.00    +0.000 OA
BRANCH  60  62
ATOM     61  O   UNL     1     -37.130  99.500  18.235  0.00  0.00    +0.000 OA
ATOM     62  C   UNL     1     -36.156  98.988  17.688  0.00  0.00    +0.000 C 
ATOM     63  C   UNL     1     -36.021  97.500  17.603  0.00  0.00    +0.000 C 
ENDBRANCH  60  62
ENDBRANCH   4  60
TORSDOF 17
ENDMDL
MODEL 7
REMARK VINA RESULT:      -5.6     15.786     20.523
REMARK  Name = 
REMARK  25 active torsions:
REMARK  status: ('A' for Active; 'I' for Inactive)
REMARK    1  A    between atoms: O_2  and  C_17
REMARK    2  A    between atoms: O_2  and  C_36
REMARK    3  A    between atoms: O_3  and  C_20
REMARK    4  A    between atoms: O_3  and  C_37
REMARK    5  A    between atoms: O_4  and  C_21
REMARK    6  A    between atoms: O_5  and  C_22
REMARK    7  A    between atoms: O_7  and  C_30
REMARK    8  A    between atoms: O_8  and  C_31
REMARK    9  A    between atoms: O_8  and  C_39
REMARK   10  A    between atoms: O_12  and  C_41
REMARK   11  A    between atoms: O_13  and  C_51
REMARK   12  A    between atoms: O_13  and  C_55
REMARK   13  A    between atoms: N_15  and  C_44
REMARK   14  A    between atoms: C_18  and  C_29
REMARK   15  A    between atoms: C_24  and  C_33
REMARK   16  A    between atoms: C_24  and  C_34
REMARK   17  A    between atoms: C_32  and  C_35
REMARK   18  A    between atoms: C_36  and  C_38
REMARK   19  A    between atoms: C_37  and  C_40
REMARK   20  A    between atoms: C_39  and  C_41
REMARK   21  A    between atoms: C_41  and  C_44
REMARK   22  A    between atoms: C_44  and  C_48
REMARK   23  A    between atoms: C_55  and  C_56
REMARK   24  A    between atoms: C_55  and  C_57
REMARK   25  A    between atoms: C_55  and  C_58
REMARK                            x       y       z     vdW  Elec       q    Type
REMARK                         _______ _______ _______ _____ _____    ______ ____
ROOT
ATOM      1  O   UNL     1     -22.613 106.820   9.642  0.00  0.00    +0.000 OA
ATOM      2  O   UNL     1     -18.238 106.197   4.579  0.00  0.00    +0.000 OA
ATOM      3  C   UNL     1     -22.036 105.297   6.608  0.00  0.00    +0.000 C 
ATOM      4  C   UNL     1     -22.265 105.323   8.148  0.00  0.00    +0.000 C 
ATOM      5  C   UNL     1     -20.175 105.526   6.320  0.00  0.00    +0.000 C 
ATOM      6  C   UNL     1     -21.891 106.844   8.380  0.00  0.00    +0.000 C 
ATOM      7  C   UNL     1     -23.009 103.941   5.777  0.00  0.00    +0.000 C 
ATOM      8  C   UNL     1     -23.310 103.163   4.076  0.00  0.00    +0.000 C 
ATOM      9  C   UNL     1     -19.869 106.950   6.946  0.00  0.00    +0.000 C 
ATOM     10  C   UNL     1     -20.414 107.177   8.389  0.00  0.00    +0.000 C 
ATOM     11  C   UNL     1     -22.396 103.399   2.573  0.00  0.00    +0.000 C 
ATOM     12  C   UNL     1     -23.503 105.828   8.992  0.00  0.00    +0.000 C 
ATOM     13  C   UNL     1     -19.236 105.451   4.690  0.00  0.00    +0.000 C 
ATOM     14  C   UNL     1     -23.102 101.593   4.288  0.00  0.00    +0.000 C 
ATOM     15  C   UNL     1     -20.832 103.131   2.785  0.00  0.00    +0.000 C 
ATOM     16  C   UNL     1     -19.301 104.544   7.209  0.00  0.00    +0.000 C 
ATOM     17  C   UNL     1     -19.597 104.368   3.148  0.00  0.00    +0.000 C 
ATOM     18  C   UNL     1     -21.677 100.971   3.921  0.00  0.00    +0.000 C 
ATOM     19  C   UNL     1     -20.591 101.839   3.191  0.00  0.00    +0.000 C 
ATOM     20  C   UNL     1     -22.919 102.294   1.524  0.00  0.00    +0.000 C 
ATOM     21  C   UNL     1     -22.729 104.621   1.659  0.00  0.00    +0.000 C 
ATOM     22  C   UNL     1     -19.204 101.246   3.222  0.00  0.00    +0.000 C 
ENDROOT
BRANCH  17  23
ATOM     23  O   UNL     1     -19.424 105.080   1.923  0.00  0.00    +0.000 OA
ATOM     24  H   UNL     1     -20.236 105.611   1.824  0.00  0.00    +0.000 HD
ENDBRANCH  17  23
BRANCH   9  25
ATOM     25  O   UNL     1     -20.466 107.950   6.118  0.00  0.00    +0.000 OA
ATOM     26  H   UNL     1     -19.804 108.655   6.000  0.00  0.00    +0.000 HD
ENDBRANCH   9  25
BRANCH   8  27
ATOM     27  O   UNL     1     -24.715 103.364   3.829  0.00  0.00    +0.000 OA
ATOM     28  H   UNL     1     -24.823 103.917   3.035  0.00  0.00    +0.000 HD
ENDBRANCH   8  27
BRANCH  18  29
ATOM     29  O   UNL     1     -21.073 100.496   5.159  0.00  0.00    +0.000 OA
BRANCH  29  31
ATOM     30  O   UNL     1     -21.270  98.686   6.495  0.00  0.00    +0.000 OA
ATOM     31  C   UNL     1     -21.060  99.158   5.383  0.00  0.00    +0.000 C 
BRANCH  31  32
ATOM     32  C   UNL     1     -20.605  98.303   4.195  0.00  0.00    +0.000 C 
BRANCH  32  33
ATOM     33  O   UNL     1     -21.372  97.116   3.962  0.00  0.00    +0.000 OA
ATOM     34  H   UNL     1     -21.711  96.838   4.833  0.00  0.00    +0.000 HD
ENDBRANCH  32  33
BRANCH  32  35
ATOM     35  C   UNL     1     -19.097  97.981   4.371  0.00  0.00    +0.000 C 
BRANCH  35  36
ATOM     36  C   UNL     1     -18.802  96.487   4.294  0.00  0.00    +0.000 A 
ATOM     37  C   UNL     1     -18.710  95.861   3.041  0.00  0.00    +0.000 A 
ATOM     38  C   UNL     1     -18.580  95.713   5.446  0.00  0.00    +0.000 A 
ATOM     39  C   UNL     1     -18.431  94.496   2.942  0.00  0.00    +0.000 A 
ATOM     40  C   UNL     1     -18.302  94.349   5.345  0.00  0.00    +0.000 A 
ATOM     41  C   UNL     1     -18.230  93.741   4.093  0.00  0.00    +0.000 A 
ENDBRANCH  35  36
BRANCH  35  43
ATOM     42  O   UNL     1     -16.637  99.390   4.841  0.00  0.00    +0.000 OA
ATOM     43  N   UNL     1     -18.586  98.496   5.634  0.00  0.00    +0.000 N 
ATOM     44  C   UNL     1     -17.358  99.057   5.767  0.00  0.00    +0.000 C 
ATOM     45  H   UNL     1     -19.019  98.162   6.484  0.00  0.00    +0.000 HD
BRANCH  44  46
ATOM     46  O   UNL     1     -17.090  99.204   7.082  0.00  0.00    +0.000 OA
BRANCH  46  47
ATOM     47  C   UNL     1     -16.306  98.212   7.794  0.00  0.00    +0.000 C 
ATOM     48  C   UNL     1     -15.603  97.255   6.826  0.00  0.00    +0.000 C 
ATOM     49  C   UNL     1     -15.239  99.024   8.543  0.00  0.00    +0.000 C 
ATOM     50  C   UNL     1     -17.162  97.461   8.821  0.00  0.00    +0.000 C 
ENDBRANCH  46  47
ENDBRANCH  44  46
ENDBRANCH  35  43
ENDBRANCH  32  35
ENDBRANCH  31  32
ENDBRANCH  29  31
ENDBRANCH  18  29
BRANCH   7  51
ATOM     51  O   UNL     1     -21.921 103.209   5.895  0.00  0.00    +0.000 OA
BRANCH  51  53
ATOM     52  O   UNL     1     -23.670 102.831   6.805  0.00  0.00    +0.000 OA
ATOM     53  C   UNL     1     -22.504 102.463   6.890  0.00  0.00    +0.000 C 
BRANCH  53  54
ATOM     54  C   UNL     1     -21.523 101.437   8.177  0.00  0.00    +0.000 A 
ATOM     55  C   UNL     1     -22.111 100.533   9.166  0.00  0.00    +0.000 A 
ATOM     56  C   UNL     1     -20.105 101.294   8.277  0.00  0.00    +0.000 A 
ATOM     57  C   UNL     1     -21.424  99.675  10.063  0.00  0.00    +0.000 A 
ATOM     58  C   UNL     1     -19.396 100.438   9.170  0.00  0.00    +0.000 A 
ATOM     59  C   UNL     1     -20.054  99.628  10.063  0.00  0.00    +0.000 A 
ENDBRANCH  53  54
ENDBRANCH  51  53
ENDBRANCH   7  51
BRANCH   4  60
ATOM     60  O   UNL     1     -21.413 104.387   8.849  0.00  0.00    +0.000 OA
BRANCH  60  62
ATOM     61  O   UNL     1     -22.540 103.627  10.626  0.00  0.00    +0.000 OA
ATOM     62  C   UNL     1     -21.508 104.116  10.171  0.00  0.00    +0.000 C 
ATOM     63  C   UNL     1     -20.392 104.528  11.078  0.00  0.00    +0.000 C 
ENDBRANCH  60  62
ENDBRANCH   4  60
TORSDOF 17
ENDMDL
MODEL 8
REMARK VINA RESULT:      -5.5      2.654      8.647
REMARK  Name = 
REMARK  25 active torsions:
REMARK  status: ('A' for Active; 'I' for Inactive)
REMARK    1  A    between atoms: O_2  and  C_17
REMARK    2  A    between atoms: O_2  and  C_36
REMARK    3  A    between atoms: O_3  and  C_20
REMARK    4  A    between atoms: O_3  and  C_37
REMARK    5  A    between atoms: O_4  and  C_21
REMARK    6  A    between atoms: O_5  and  C_22
REMARK    7  A    between atoms: O_7  and  C_30
REMARK    8  A    between atoms: O_8  and  C_31
REMARK    9  A    between atoms: O_8  and  C_39
REMARK   10  A    between atoms: O_12  and  C_41
REMARK   11  A    between atoms: O_13  and  C_51
REMARK   12  A    between atoms: O_13  and  C_55
REMARK   13  A    between atoms: N_15  and  C_44
REMARK   14  A    between atoms: C_18  and  C_29
REMARK   15  A    between atoms: C_24  and  C_33
REMARK   16  A    between atoms: C_24  and  C_34
REMARK   17  A    between atoms: C_32  and  C_35
REMARK   18  A    between atoms: C_36  and  C_38
REMARK   19  A    between atoms: C_37  and  C_40
REMARK   20  A    between atoms: C_39  and  C_41
REMARK   21  A    between atoms: C_41  and  C_44
REMARK   22  A    between atoms: C_44  and  C_48
REMARK   23  A    between atoms: C_55  and  C_56
REMARK   24  A    between atoms: C_55  and  C_57
REMARK   25  A    between atoms: C_55  and  C_58
REMARK                            x       y       z     vdW  Elec       q    Type
REMARK                         _______ _______ _______ _____ _____    ______ ____
ROOT
ATOM      1  O   UNL     1     -42.328 104.060  15.717  0.00  0.00    +0.000 OA
ATOM      2  O   UNL     1     -41.303  98.601  19.499  0.00  0.00    +0.000 OA
ATOM      3  C   UNL     1     -40.089 102.470  17.793  0.00  0.00    +0.000 C 
ATOM      4  C   UNL     1     -40.579 103.050  16.434  0.00  0.00    +0.000 C 
ATOM      5  C   UNL     1     -40.740 100.691  17.903  0.00  0.00    +0.000 C 
ATOM      6  C   UNL     1     -42.125 103.088  16.778  0.00  0.00    +0.000 C 
ATOM      7  C   UNL     1     -38.307 102.896  18.136  0.00  0.00    +0.000 C 
ATOM      8  C   UNL     1     -36.935 102.613  19.411  0.00  0.00    +0.000 C 
ATOM      9  C   UNL     1     -42.316 100.863  17.861  0.00  0.00    +0.000 C 
ATOM     10  C   UNL     1     -42.859 101.766  16.710  0.00  0.00    +0.000 C 
ATOM     11  C   UNL     1     -36.892 101.449  20.752  0.00  0.00    +0.000 C 
ATOM     12  C   UNL     1     -40.958 104.531  16.029  0.00  0.00    +0.000 C 
ATOM     13  C   UNL     1     -40.384  99.406  19.232  0.00  0.00    +0.000 C 
ATOM     14  C   UNL     1     -35.671 102.116  18.568  0.00  0.00    +0.000 C 
ATOM     15  C   UNL     1     -37.187  99.959  20.249  0.00  0.00    +0.000 C 
ATOM     16  C   UNL     1     -40.431  99.853  16.592  0.00  0.00    +0.000 C 
ATOM     17  C   UNL     1     -38.778  99.148  20.250  0.00  0.00    +0.000 C 
ATOM     18  C   UNL     1     -35.409 100.544  18.469  0.00  0.00    +0.000 C 
ATOM     19  C   UNL     1     -36.248  99.538  19.336  0.00  0.00    +0.000 C 
ATOM     20  C   UNL     1     -35.390 101.456  21.334  0.00  0.00    +0.000 C 
ATOM     21  C   UNL     1     -37.565 101.824  22.110  0.00  0.00    +0.000 C 
ATOM     22  C   UNL     1     -36.139  98.100  18.891  0.00  0.00    +0.000 C 
ENDROOT
BRANCH  17  23
ATOM     23  O   UNL     1     -39.038  98.857  21.623  0.00  0.00    +0.000 OA
ATOM     24  H   UNL     1     -39.890  98.383  21.623  0.00  0.00    +0.000 HD
ENDBRANCH  17  23
BRANCH   9  25
ATOM     25  O   UNL     1     -42.743 101.458  19.087  0.00  0.00    +0.000 OA
ATOM     26  H   UNL     1     -42.047 101.281  19.747  0.00  0.00    +0.000 HD
ENDBRANCH   9  25
BRANCH   8  27
ATOM     27  O   UNL     1     -36.614 103.930  19.899  0.00  0.00    +0.000 OA
ATOM     28  H   UNL     1     -36.217 104.449  19.177  0.00  0.00    +0.000 HD
ENDBRANCH   8  27
BRANCH  18  29
ATOM     29  O   UNL     1     -35.594 100.154  17.078  0.00  0.00    +0.000 OA
BRANCH  29  31
ATOM     30  O   UNL     1     -34.489  98.871  15.583  0.00  0.00    +0.000 OA
ATOM     31  C   UNL     1     -34.490  99.816  16.365  0.00  0.00    +0.000 C 
BRANCH  31  32
ATOM     32  C   UNL     1     -33.217 100.588  16.728  0.00  0.00    +0.000 C 
BRANCH  32  33
ATOM     33  O   UNL     1     -32.820 101.596  15.792  0.00  0.00    +0.000 OA
ATOM     34  H   UNL     1     -33.645 101.998  15.462  0.00  0.00    +0.000 HD
ENDBRANCH  32  33
BRANCH  32  35
ATOM     35  C   UNL     1     -32.078  99.565  16.981  0.00  0.00    +0.000 C 
BRANCH  35  36
ATOM     36  C   UNL     1     -32.258  98.795  18.285  0.00  0.00    +0.000 A 
ATOM     37  C   UNL     1     -32.399  99.499  19.492  0.00  0.00    +0.000 A 
ATOM     38  C   UNL     1     -32.326  97.392  18.317  0.00  0.00    +0.000 A 
ATOM     39  C   UNL     1     -32.576  98.820  20.699  0.00  0.00    +0.000 A 
ATOM     40  C   UNL     1     -32.502  96.715  19.525  0.00  0.00    +0.000 A 
ATOM     41  C   UNL     1     -32.624  97.429  20.716  0.00  0.00    +0.000 A 
ENDBRANCH  35  36
BRANCH  35  43
ATOM     42  O   UNL     1     -29.889  99.175  15.160  0.00  0.00    +0.000 OA
ATOM     43  N   UNL     1     -30.773 100.212  16.995  0.00  0.00    +0.000 N 
ATOM     44  C   UNL     1     -29.767  99.879  16.148  0.00  0.00    +0.000 C 
ATOM     45  H   UNL     1     -30.504 100.704  17.837  0.00  0.00    +0.000 HD
BRANCH  44  46
ATOM     46  O   UNL     1     -28.632 100.476  16.570  0.00  0.00    +0.000 OA
BRANCH  46  47
ATOM     47  C   UNL     1     -28.119 101.654  15.896  0.00  0.00    +0.000 C 
ATOM     48  C   UNL     1     -29.250 102.605  15.494  0.00  0.00    +0.000 C 
ATOM     49  C   UNL     1     -27.240 102.351  16.946  0.00  0.00    +0.000 C 
ATOM     50  C   UNL     1     -27.241 101.270  14.699  0.00  0.00    +0.000 C 
ENDBRANCH  46  47
ENDBRANCH  44  46
ENDBRANCH  35  43
ENDBRANCH  32  35
ENDBRANCH  31  32
ENDBRANCH  29  31
ENDBRANCH  18  29
BRANCH   7  51
ATOM     51  O   UNL     1     -38.016 101.731  17.596  0.00  0.00    +0.000 OA
BRANCH  51  53
ATOM     52  O   UNL     1     -37.586 103.529  16.814  0.00  0.00    +0.000 OA
ATOM     53  C   UNL     1     -37.481 102.350  16.493  0.00  0.00    +0.000 C 
BRANCH  53  54
ATOM     54  C   UNL     1     -37.055 101.448  14.857  0.00  0.00    +0.000 A 
ATOM     55  C   UNL     1     -35.977 101.820  13.941  0.00  0.00    +0.000 A 
ATOM     56  C   UNL     1     -37.618 100.231  14.363  0.00  0.00    +0.000 A 
ATOM     57  C   UNL     1     -35.557 101.123  12.779  0.00  0.00    +0.000 A 
ATOM     58  C   UNL     1     -37.210  99.516  13.199  0.00  0.00    +0.000 A 
ATOM     59  C   UNL     1     -36.180  99.960  12.406  0.00  0.00    +0.000 A 
ENDBRANCH  53  54
ENDBRANCH  51  53
ENDBRANCH   7  51
BRANCH   4  60
ATOM     60  O   UNL     1     -40.239 102.199  15.315  0.00  0.00    +0.000 OA
BRANCH  60  62
ATOM     61  O   UNL     1     -41.206 102.090  13.300  0.00  0.00    +0.000 OA
ATOM     62  C   UNL     1     -40.334 102.574  14.018  0.00  0.00    +0.000 C 
ATOM     63  C   UNL     1     -39.296 103.490  13.450  0.00  0.00    +0.000 C 
ENDBRANCH  60  62
ENDBRANCH   4  60
TORSDOF 17
ENDMDL
MODEL 9
REMARK VINA RESULT:      -5.5      3.328      9.916
REMARK  Name = 
REMARK  25 active torsions:
REMARK  status: ('A' for Active; 'I' for Inactive)
REMARK    1  A    between atoms: O_2  and  C_17
REMARK    2  A    between atoms: O_2  and  C_36
REMARK    3  A    between atoms: O_3  and  C_20
REMARK    4  A    between atoms: O_3  and  C_37
REMARK    5  A    between atoms: O_4  and  C_21
REMARK    6  A    between atoms: O_5  and  C_22
REMARK    7  A    between atoms: O_7  and  C_30
REMARK    8  A    between atoms: O_8  and  C_31
REMARK    9  A    between atoms: O_8  and  C_39
REMARK   10  A    between atoms: O_12  and  C_41
REMARK   11  A    between atoms: O_13  and  C_51
REMARK   12  A    between atoms: O_13  and  C_55
REMARK   13  A    between atoms: N_15  and  C_44
REMARK   14  A    between atoms: C_18  and  C_29
REMARK   15  A    between atoms: C_24  and  C_33
REMARK   16  A    between atoms: C_24  and  C_34
REMARK   17  A    between atoms: C_32  and  C_35
REMARK   18  A    between atoms: C_36  and  C_38
REMARK   19  A    between atoms: C_37  and  C_40
REMARK   20  A    between atoms: C_39  and  C_41
REMARK   21  A    between atoms: C_41  and  C_44
REMARK   22  A    between atoms: C_44  and  C_48
REMARK   23  A    between atoms: C_55  and  C_56
REMARK   24  A    between atoms: C_55  and  C_57
REMARK   25  A    between atoms: C_55  and  C_58
REMARK                            x       y       z     vdW  Elec       q    Type
REMARK                         _______ _______ _______ _____ _____    ______ ____
ROOT
ATOM      1  O   UNL     1     -36.887 100.323  13.173  0.00  0.00    +0.000 OA
ATOM      2  O   UNL     1     -33.580 105.340  16.182  0.00  0.00    +0.000 OA
ATOM      3  C   UNL     1     -33.895 101.245  14.606  0.00  0.00    +0.000 C 
ATOM      4  C   UNL     1     -35.209 100.417  14.503  0.00  0.00    +0.000 C 
ATOM      5  C   UNL     1     -34.310 102.825  15.572  0.00  0.00    +0.000 C 
ATOM      6  C   UNL     1     -35.998 101.409  13.553  0.00  0.00    +0.000 C 
ATOM      7  C   UNL     1     -32.425 100.180  15.031  0.00  0.00    +0.000 C 
ATOM      8  C   UNL     1     -30.568 100.293  15.388  0.00  0.00    +0.000 C 
ATOM      9  C   UNL     1     -35.400 103.542  14.670  0.00  0.00    +0.000 C 
ATOM     10  C   UNL     1     -36.586 102.639  14.210  0.00  0.00    +0.000 C 
ATOM     11  C   UNL     1     -29.588 101.737  15.713  0.00  0.00    +0.000 C 
ATOM     12  C   UNL     1     -35.716  99.435  13.372  0.00  0.00    +0.000 C 
ATOM     13  C   UNL     1     -33.131 104.173  16.150  0.00  0.00    +0.000 C 
ATOM     14  C   UNL     1     -30.352  99.493  16.755  0.00  0.00    +0.000 C 
ATOM     15  C   UNL     1     -30.206 102.613  16.902  0.00  0.00    +0.000 C 
ATOM     16  C   UNL     1     -35.094 102.521  16.917  0.00  0.00    +0.000 C 
ATOM     17  C   UNL     1     -31.305 104.007  16.715  0.00  0.00    +0.000 C 
ATOM     18  C   UNL     1     -30.298 100.333  18.112  0.00  0.00    +0.000 C 
ATOM     19  C   UNL     1     -30.258 101.903  18.079  0.00  0.00    +0.000 C 
ATOM     20  C   UNL     1     -28.145 101.225  16.212  0.00  0.00    +0.000 C 
ATOM     21  C   UNL     1     -29.030 102.567  14.514  0.00  0.00    +0.000 C 
ATOM     22  C   UNL     1     -30.557 102.556  19.405  0.00  0.00    +0.000 C 
ENDROOT
BRANCH  17  23
ATOM     23  O   UNL     1     -30.477 105.059  16.218  0.00  0.00    +0.000 OA
ATOM     24  H   UNL     1     -31.010 105.870  16.324  0.00  0.00    +0.000 HD
ENDBRANCH  17  23
BRANCH   9  25
ATOM     25  O   UNL     1     -34.765 104.026  13.486  0.00  0.00    +0.000 OA
ATOM     26  H   UNL     1     -35.432 104.539  12.995  0.00  0.00    +0.000 HD
ENDBRANCH   9  25
BRANCH   8  27
ATOM     27  O   UNL     1     -29.951  99.509  14.348  0.00  0.00    +0.000 OA
ATOM     28  H   UNL     1     -30.033  99.981  13.501  0.00  0.00    +0.000 HD
ENDBRANCH   8  27
BRANCH  18  29
ATOM     29  O   UNL     1     -31.460  99.960  18.907  0.00  0.00    +0.000 OA
BRANCH  29  31
ATOM     30  O   UNL     1     -32.186  98.655  20.602  0.00  0.00    +0.000 OA
ATOM     31  C   UNL     1     -31.256  99.174  19.994  0.00  0.00    +0.000 C 
BRANCH  31  32
ATOM     32  C   UNL     1     -29.809  99.121  20.497  0.00  0.00    +0.000 C 
BRANCH  32  33
ATOM     33  O   UNL     1     -29.118  97.891  20.253  0.00  0.00    +0.000 OA
ATOM     34  H   UNL     1     -28.379  97.866  20.890  0.00  0.00    +0.000 HD
ENDBRANCH  32  33
BRANCH  32  35
ATOM     35  C   UNL     1     -29.800  99.490  22.005  0.00  0.00    +0.000 C 
BRANCH  35  36
ATOM     36  C   UNL     1     -29.398 100.940  22.252  0.00  0.00    +0.000 A 
ATOM     37  C   UNL     1     -30.269 101.792  22.949  0.00  0.00    +0.000 A 
ATOM     38  C   UNL     1     -28.156 101.448  21.834  0.00  0.00    +0.000 A 
ATOM     39  C   UNL     1     -29.921 103.121  23.199  0.00  0.00    +0.000 A 
ATOM     40  C   UNL     1     -27.811 102.778  22.084  0.00  0.00    +0.000 A 
ATOM     41  C   UNL     1     -28.694 103.614  22.763  0.00  0.00    +0.000 A 
ENDBRANCH  35  36
BRANCH  35  43
ATOM     42  O   UNL     1     -30.209  98.386  24.626  0.00  0.00    +0.000 OA
ATOM     43  N   UNL     1     -28.909  98.621  22.761  0.00  0.00    +0.000 N 
ATOM     44  C   UNL     1     -29.150  98.239  24.040  0.00  0.00    +0.000 C 
ATOM     45  H   UNL     1     -27.951  98.544  22.444  0.00  0.00    +0.000 HD
BRANCH  44  46
ATOM     46  O   UNL     1     -28.039  97.651  24.532  0.00  0.00    +0.000 OA
BRANCH  46  47
ATOM     47  C   UNL     1     -27.124  98.389  25.383  0.00  0.00    +0.000 C 
ATOM     48  C   UNL     1     -26.549  99.611  24.658  0.00  0.00    +0.000 C 
ATOM     49  C   UNL     1     -27.990  98.876  26.555  0.00  0.00    +0.000 C 
ATOM     50  C   UNL     1     -26.021  97.479  25.933  0.00  0.00    +0.000 C 
ENDBRANCH  46  47
ENDBRANCH  44  46
ENDBRANCH  35  43
ENDBRANCH  32  35
ENDBRANCH  31  32
ENDBRANCH  29  31
ENDBRANCH  18  29
BRANCH   7  51
ATOM     51  O   UNL     1     -32.663 100.506  16.285  0.00  0.00    +0.000 OA
BRANCH  51  53
ATOM     52  O   UNL     1     -32.855  98.668  15.500  0.00  0.00    +0.000 OA
ATOM     53  C   UNL     1     -33.133  99.242  16.547  0.00  0.00    +0.000 C 
BRANCH  53  54
ATOM     54  C   UNL     1     -34.208  98.791  18.068  0.00  0.00    +0.000 A 
ATOM     55  C   UNL     1     -34.863  99.751  18.957  0.00  0.00    +0.000 A 
ATOM     56  C   UNL     1     -34.635  97.490  18.475  0.00  0.00    +0.000 A 
ATOM     57  C   UNL     1     -35.751  99.466  20.026  0.00  0.00    +0.000 A 
ATOM     58  C   UNL     1     -35.526  97.183  19.545  0.00  0.00    +0.000 A 
ATOM     59  C   UNL     1     -36.085  98.169  20.321  0.00  0.00    +0.000 A 
ENDBRANCH  53  54
ENDBRANCH  51  53
ENDBRANCH   7  51
BRANCH   4  60
ATOM     60  O   UNL     1     -35.831 100.205  15.792  0.00  0.00    +0.000 OA
BRANCH  60  62
ATOM     61  O   UNL     1     -36.670  98.133  15.864  0.00  0.00    +0.000 OA
ATOM     62  C   UNL     1     -36.848  99.340  16.012  0.00  0.00    +0.000 C 
ATOM     63  C   UNL     1     -38.208  99.881  16.321  0.00  0.00    +0.000 C 
ENDBRANCH  60  62
ENDBRANCH   4  60
TORSDOF 17
ENDMDL
