MODEL 1
REMARK VINA RESULT:      -6.1      0.000      0.000
REMARK  Name = Dronabinol.pdbqt.pdb
REMARK  3 active torsions:
REMARK  status: ('A' for Active; 'I' for Inactive)
REMARK    1  A    between atoms: C_13  and  O_18
REMARK    2  A    between atoms: C_16  and  C_20
REMARK    3  A    between atoms: C_21  and  C_22
REMARK                            x       y       z     vdW  Elec       q    Type
REMARK                         _______ _______ _______ _____ _____    ______ ____
ROOT
ATOM      1  O   UNL     1     -30.123  86.410  17.077  0.00  0.00    +0.000 OA
ATOM      2  C   UNL     1     -31.176  88.366  18.145  0.00  0.00    +0.000 A 
ATOM      3  C   UNL     1     -30.309  89.225  17.301  0.00  0.00    +0.000 A 
ATOM      4  C   UNL     1     -31.290  86.913  17.771  0.00  0.00    +0.000 C 
ATOM      5  C   UNL     1     -31.966  89.125  19.079  0.00  0.00    +0.000 A 
ATOM      6  C   UNL     1     -29.505  88.632  16.235  0.00  0.00    +0.000 A 
ATOM      7  C   UNL     1     -31.905  90.656  19.235  0.00  0.00    +0.000 A 
ATOM      8  C   UNL     1     -30.413  90.629  17.636  0.00  0.00    +0.000 A 
ATOM      9  C   UNL     1     -31.030  91.466  18.435  0.00  0.00    +0.000 A 
ATOM     10  C   UNL     1     -29.467  87.230  16.192  0.00  0.00    +0.000 A 
ATOM     11  C   UNL     1     -31.421  86.060  19.062  0.00  0.00    +0.000 C 
ATOM     12  C   UNL     1     -32.535  86.707  16.858  0.00  0.00    +0.000 C 
ATOM     13  C   UNL     1     -28.768  89.348  15.284  0.00  0.00    +0.000 A 
ATOM     14  C   UNL     1     -28.684  86.569  15.244  0.00  0.00    +0.000 A 
ATOM     15  C   UNL     1     -30.296  92.616  19.048  0.00  0.00    +0.000 C 
ATOM     16  C   UNL     1     -27.958  87.297  14.307  0.00  0.00    +0.000 A 
ATOM     17  C   UNL     1     -28.000  88.686  14.323  0.00  0.00    +0.000 A 
ENDROOT
BRANCH  13  18
ATOM     18  O   UNL     1     -28.792  90.714  15.271  0.00  0.00    +0.000 OA
ATOM     19  H   UNL     1     -28.098  91.042  14.670  0.00  0.00    +0.000 HD
ENDBRANCH  13  18
BRANCH  16  20
ATOM     20  C   UNL     1     -27.181  86.618  13.326  0.00  0.00    +0.000 C 
ATOM     21  C   UNL     1     -26.356  85.880  12.266  0.00  0.00    +0.000 C 
BRANCH  21  22
ATOM     22  C   UNL     1     -25.540  85.138  11.204  0.00  0.00    +0.000 C 
ATOM     23  C   UNL     1     -24.728  84.395  10.137  0.00  0.00    +0.000 C 
ATOM     24  C   UNL     1     -23.917  83.654   9.069  0.00  0.00    +0.000 C 
ENDBRANCH  21  22
ENDBRANCH  16  20
TORSDOF 3
ENDMDL
MODEL 2
REMARK VINA RESULT:      -6.0     11.324     14.185
REMARK  Name = Dronabinol.pdbqt.pdb
REMARK  3 active torsions:
REMARK  status: ('A' for Active; 'I' for Inactive)
REMARK    1  A    between atoms: C_13  and  O_18
REMARK    2  A    between atoms: C_16  and  C_20
REMARK    3  A    between atoms: C_21  and  C_22
REMARK                            x       y       z     vdW  Elec       q    Type
REMARK                         _______ _______ _______ _____ _____    ______ ____
ROOT
ATOM      1  O   UNL     1     -36.105 100.030  15.974  0.00  0.00    +0.000 OA
ATOM      2  C   UNL     1     -33.987 100.357  14.755  0.00  0.00    +0.000 A 
ATOM      3  C   UNL     1     -33.378  99.345  15.652  0.00  0.00    +0.000 A 
ATOM      4  C   UNL     1     -35.489 100.452  14.734  0.00  0.00    +0.000 C 
ATOM      5  C   UNL     1     -33.030 100.952  13.860  0.00  0.00    +0.000 A 
ATOM      6  C   UNL     1     -34.218  98.575  16.566  0.00  0.00    +0.000 A 
ATOM      7  C   UNL     1     -31.525 100.622  13.844  0.00  0.00    +0.000 A 
ATOM      8  C   UNL     1     -31.949  99.214  15.463  0.00  0.00    +0.000 A 
ATOM      9  C   UNL     1     -30.948  99.668  14.747  0.00  0.00    +0.000 A 
ATOM     10  C   UNL     1     -35.559  98.976  16.666  0.00  0.00    +0.000 A 
ATOM     11  C   UNL     1     -35.907 101.935  14.532  0.00  0.00    +0.000 C 
ATOM     12  C   UNL     1     -36.049  99.571  13.578  0.00  0.00    +0.000 C 
ATOM     13  C   UNL     1     -33.786  97.497  17.349  0.00  0.00    +0.000 A 
ATOM     14  C   UNL     1     -36.428  98.338  17.552  0.00  0.00    +0.000 A 
ATOM     15  C   UNL     1     -29.619  99.936  15.379  0.00  0.00    +0.000 C 
ATOM     16  C   UNL     1     -35.981  97.269  18.322  0.00  0.00    +0.000 A 
ATOM     17  C   UNL     1     -34.661  96.845  18.220  0.00  0.00    +0.000 A 
ENDROOT
BRANCH  13  18
ATOM     18  O   UNL     1     -32.496  97.054  17.269  0.00  0.00    +0.000 OA
ATOM     19  H   UNL     1     -32.495  96.092  17.118  0.00  0.00    +0.000 HD
ENDBRANCH  13  18
BRANCH  16  20
ATOM     20  C   UNL     1     -36.878  96.604  19.204  0.00  0.00    +0.000 C 
ATOM     21  C   UNL     1     -37.838  95.894  20.166  0.00  0.00    +0.000 C 
BRANCH  21  22
ATOM     22  C   UNL     1     -38.794  95.191  21.134  0.00  0.00    +0.000 C 
ATOM     23  C   UNL     1     -39.749  94.492  22.106  0.00  0.00    +0.000 C 
ATOM     24  C   UNL     1     -40.705  93.794  23.079  0.00  0.00    +0.000 C 
ENDBRANCH  21  22
ENDBRANCH  16  20
TORSDOF 3
ENDMDL
MODEL 3
REMARK VINA RESULT:      -5.7     23.607     24.791
REMARK  Name = Dronabinol.pdbqt.pdb
REMARK  3 active torsions:
REMARK  status: ('A' for Active; 'I' for Inactive)
REMARK    1  A    between atoms: C_13  and  O_18
REMARK    2  A    between atoms: C_16  and  C_20
REMARK    3  A    between atoms: C_21  and  C_22
REMARK                            x       y       z     vdW  Elec       q    Type
REMARK                         _______ _______ _______ _____ _____    ______ ____
ROOT
ATOM      1  O   UNL     1     -42.413 101.114   2.339  0.00  0.00    +0.000 OA
ATOM      2  C   UNL     1     -40.459 102.037   3.525  0.00  0.00    +0.000 A 
ATOM      3  C   UNL     1     -39.990 102.572   2.223  0.00  0.00    +0.000 A 
ATOM      4  C   UNL     1     -41.886 101.566   3.609  0.00  0.00    +0.000 C 
ATOM      5  C   UNL     1     -39.517 102.265   4.590  0.00  0.00    +0.000 A 
ATOM      6  C   UNL     1     -40.858 102.510   1.050  0.00  0.00    +0.000 A 
ATOM      7  C   UNL     1     -38.147 102.947   4.413  0.00  0.00    +0.000 A 
ATOM      8  C   UNL     1     -38.670 103.160   2.301  0.00  0.00    +0.000 A 
ATOM      9  C   UNL     1     -37.695 103.423   3.138  0.00  0.00    +0.000 A 
ATOM     10  C   UNL     1     -42.041 101.770   1.190  0.00  0.00    +0.000 A 
ATOM     11  C   UNL     1     -41.968 100.345   4.565  0.00  0.00    +0.000 C 
ATOM     12  C   UNL     1     -42.785 102.724   4.134  0.00  0.00    +0.000 C 
ATOM     13  C   UNL     1     -40.590 103.109  -0.188  0.00  0.00    +0.000 A 
ATOM     14  C   UNL     1     -42.910 101.607   0.110  0.00  0.00    +0.000 A 
ATOM     15  C   UNL     1     -36.268 103.240   2.727  0.00  0.00    +0.000 C 
ATOM     16  C   UNL     1     -42.627 102.208  -1.112  0.00  0.00    +0.000 A 
ATOM     17  C   UNL     1     -41.469 102.962  -1.263  0.00  0.00    +0.000 A 
ENDROOT
BRANCH  13  18
ATOM     18  O   UNL     1     -39.461 103.858  -0.366  0.00  0.00    +0.000 OA
ATOM     19  H   UNL     1     -38.718 103.271  -0.592  0.00  0.00    +0.000 HD
ENDBRANCH  13  18
BRANCH  16  20
ATOM     20  C   UNL     1     -43.529 102.061  -2.203  0.00  0.00    +0.000 C 
ATOM     21  C   UNL     1     -44.489 101.901  -3.387  0.00  0.00    +0.000 C 
BRANCH  21  22
ATOM     22  C   UNL     1     -45.441 101.737  -4.576  0.00  0.00    +0.000 C 
ATOM     23  C   UNL     1     -46.389 101.572  -5.768  0.00  0.00    +0.000 C 
ATOM     24  C   UNL     1     -47.336 101.404  -6.961  0.00  0.00    +0.000 C 
ENDBRANCH  21  22
ENDBRANCH  16  20
TORSDOF 3
ENDMDL
MODEL 4
REMARK VINA RESULT:      -5.6     16.862     19.041
REMARK  Name = Dronabinol.pdbqt.pdb
REMARK  3 active torsions:
REMARK  status: ('A' for Active; 'I' for Inactive)
REMARK    1  A    between atoms: C_13  and  O_18
REMARK    2  A    between atoms: C_16  and  C_20
REMARK    3  A    between atoms: C_21  and  C_22
REMARK                            x       y       z     vdW  Elec       q    Type
REMARK                         _______ _______ _______ _____ _____    ______ ____
ROOT
ATOM      1  O   UNL     1     -23.805 100.825   5.935  0.00  0.00    +0.000 OA
ATOM      2  C   UNL     1     -24.408 102.726   4.487  0.00  0.00    +0.000 A 
ATOM      3  C   UNL     1     -23.744 103.615   5.472  0.00  0.00    +0.000 A 
ATOM      4  C   UNL     1     -24.137 101.249   4.593  0.00  0.00    +0.000 C 
ATOM      5  C   UNL     1     -25.046 103.456   3.423  0.00  0.00    +0.000 A 
ATOM      6  C   UNL     1     -22.969 103.044   6.570  0.00  0.00    +0.000 A 
ATOM      7  C   UNL     1     -25.087 104.992   3.319  0.00  0.00    +0.000 A 
ATOM      8  C   UNL     1     -23.926 105.020   5.172  0.00  0.00    +0.000 A 
ATOM      9  C   UNL     1     -24.472 105.836   4.303  0.00  0.00    +0.000 A 
ATOM     10  C   UNL     1     -23.051 101.652   6.731  0.00  0.00    +0.000 A 
ATOM     11  C   UNL     1     -25.418 100.464   4.200  0.00  0.00    +0.000 C 
ATOM     12  C   UNL     1     -22.959 100.869   3.648  0.00  0.00    +0.000 C 
ATOM     13  C   UNL     1     -22.180 103.773   7.469  0.00  0.00    +0.000 A 
ATOM     14  C   UNL     1     -22.389 101.019   7.784  0.00  0.00    +0.000 A 
ATOM     15  C   UNL     1     -25.156 107.087   4.757  0.00  0.00    +0.000 C 
ATOM     16  C   UNL     1     -21.611 101.759   8.667  0.00  0.00    +0.000 A 
ATOM     17  C   UNL     1     -21.502 103.135   8.511  0.00  0.00    +0.000 A 
ENDROOT
BRANCH  13  18
ATOM     18  O   UNL     1     -22.051 105.127   7.340  0.00  0.00    +0.000 OA
ATOM     19  H   UNL     1     -21.116 105.374   7.464  0.00  0.00    +0.000 HD
ENDBRANCH  13  18
BRANCH  16  20
ATOM     20  C   UNL     1     -20.917 101.104   9.724  0.00  0.00    +0.000 C 
ATOM     21  C   UNL     1     -20.180 100.404  10.871  0.00  0.00    +0.000 C 
BRANCH  21  22
ATOM     22  C   UNL     1     -19.452  99.704  12.022  0.00  0.00    +0.000 C 
ATOM     23  C   UNL     1     -18.724  99.000  13.172  0.00  0.00    +0.000 C 
ATOM     24  C   UNL     1     -17.995  98.295  14.320  0.00  0.00    +0.000 C 
ENDBRANCH  21  22
ENDBRANCH  16  20
TORSDOF 3
ENDMDL
MODEL 5
REMARK VINA RESULT:      -5.5     25.516     27.059
REMARK  Name = Dronabinol.pdbqt.pdb
REMARK  3 active torsions:
REMARK  status: ('A' for Active; 'I' for Inactive)
REMARK    1  A    between atoms: C_13  and  O_18
REMARK    2  A    between atoms: C_16  and  C_20
REMARK    3  A    between atoms: C_21  and  C_22
REMARK                            x       y       z     vdW  Elec       q    Type
REMARK                         _______ _______ _______ _____ _____    ______ ____
ROOT
ATOM      1  O   UNL     1     -52.722  92.402   1.569  0.00  0.00    +0.000 OA
ATOM      2  C   UNL     1     -53.953  90.943   3.128  0.00  0.00    +0.000 A 
ATOM      3  C   UNL     1     -53.171  91.555   4.231  0.00  0.00    +0.000 A 
ATOM      4  C   UNL     1     -53.929  91.637   1.793  0.00  0.00    +0.000 C 
ATOM      5  C   UNL     1     -54.810  89.879   3.581  0.00  0.00    +0.000 A 
ATOM      6  C   UNL     1     -52.316  92.710   3.971  0.00  0.00    +0.000 A 
ATOM      7  C   UNL     1     -54.892  89.381   5.036  0.00  0.00    +0.000 A 
ATOM      8  C   UNL     1     -53.405  90.914   5.508  0.00  0.00    +0.000 A 
ATOM      9  C   UNL     1     -54.098  89.960   6.082  0.00  0.00    +0.000 A 
ATOM     10  C   UNL     1     -52.146  93.067   2.624  0.00  0.00    +0.000 A 
ATOM     11  C   UNL     1     -53.979  90.574   0.662  0.00  0.00    +0.000 C 
ATOM     12  C   UNL     1     -55.151  92.598   1.686  0.00  0.00    +0.000 C 
ATOM     13  C   UNL     1     -51.649  93.461   4.947  0.00  0.00    +0.000 A 
ATOM     14  C   UNL     1     -51.305  94.123   2.270  0.00  0.00    +0.000 A 
ATOM     15  C   UNL     1     -53.475  89.089   7.126  0.00  0.00    +0.000 C 
ATOM     16  C   UNL     1     -50.651  94.857   3.253  0.00  0.00    +0.000 A 
ATOM     17  C   UNL     1     -50.824  94.530   4.593  0.00  0.00    +0.000 A 
ENDROOT
BRANCH  13  18
ATOM     18  O   UNL     1     -51.801  93.166   6.273  0.00  0.00    +0.000 OA
ATOM     19  H   UNL     1     -51.330  92.337   6.473  0.00  0.00    +0.000 HD
ENDBRANCH  13  18
BRANCH  16  20
ATOM     20  C   UNL     1     -49.815  95.950   2.888  0.00  0.00    +0.000 C 
ATOM     21  C   UNL     1     -48.926  97.135   2.496  0.00  0.00    +0.000 C 
BRANCH  21  22
ATOM     22  C   UNL     1     -48.045  98.326   2.108  0.00  0.00    +0.000 C 
ATOM     23  C   UNL     1     -47.160  99.516   1.723  0.00  0.00    +0.000 C 
ATOM     24  C   UNL     1     -46.273 100.703   1.336  0.00  0.00    +0.000 C 
ENDBRANCH  21  22
ENDBRANCH  16  20
TORSDOF 3
ENDMDL
MODEL 6
REMARK VINA RESULT:      -5.4     11.007     13.068
REMARK  Name = Dronabinol.pdbqt.pdb
REMARK  3 active torsions:
REMARK  status: ('A' for Active; 'I' for Inactive)
REMARK    1  A    between atoms: C_13  and  O_18
REMARK    2  A    between atoms: C_16  and  C_20
REMARK    3  A    between atoms: C_21  and  C_22
REMARK                            x       y       z     vdW  Elec       q    Type
REMARK                         _______ _______ _______ _____ _____    ______ ____
ROOT
ATOM      1  O   UNL     1     -33.256  98.230  19.614  0.00  0.00    +0.000 OA
ATOM      2  C   UNL     1     -33.754  98.687  17.243  0.00  0.00    +0.000 A 
ATOM      3  C   UNL     1     -32.361  99.177  17.103  0.00  0.00    +0.000 A 
ATOM      4  C   UNL     1     -34.089  97.896  18.479  0.00  0.00    +0.000 C 
ATOM      5  C   UNL     1     -34.526  98.859  16.041  0.00  0.00    +0.000 A 
ATOM      6  C   UNL     1     -31.407  99.000  18.195  0.00  0.00    +0.000 A 
ATOM      7  C   UNL     1     -34.000  99.517  14.751  0.00  0.00    +0.000 A 
ATOM      8  C   UNL     1     -32.101  99.765  15.806  0.00  0.00    +0.000 A 
ATOM      9  C   UNL     1     -32.661 100.021  14.648  0.00  0.00    +0.000 A 
ATOM     10  C   UNL     1     -31.931  98.524  19.406  0.00  0.00    +0.000 A 
ATOM     11  C   UNL     1     -35.547  98.213  18.910  0.00  0.00    +0.000 C 
ATOM     12  C   UNL     1     -33.933  96.375  18.181  0.00  0.00    +0.000 C 
ATOM     13  C   UNL     1     -30.037  99.284  18.128  0.00  0.00    +0.000 A 
ATOM     14  C   UNL     1     -31.110  98.373  20.525  0.00  0.00    +0.000 A 
ATOM     15  C   UNL     1     -32.393 101.312  13.941  0.00  0.00    +0.000 C 
ATOM     16  C   UNL     1     -29.752  98.660  20.439  0.00  0.00    +0.000 A 
ATOM     17  C   UNL     1     -29.212  99.114  19.242  0.00  0.00    +0.000 A 
ENDROOT
BRANCH  13  18
ATOM     18  O   UNL     1     -29.477  99.728  16.964  0.00  0.00    +0.000 OA
ATOM     19  H   UNL     1     -30.136 100.247  16.467  0.00  0.00    +0.000 HD
ENDBRANCH  13  18
BRANCH  16  20
ATOM     20  C   UNL     1     -28.913  98.479  21.575  0.00  0.00    +0.000 C 
ATOM     21  C   UNL     1     -28.019  98.290  22.807  0.00  0.00    +0.000 C 
BRANCH  21  22
ATOM     22  C   UNL     1     -27.135  98.104  24.043  0.00  0.00    +0.000 C 
ATOM     23  C   UNL     1     -26.250  97.923  25.280  0.00  0.00    +0.000 C 
ATOM     24  C   UNL     1     -25.366  97.743  26.519  0.00  0.00    +0.000 C 
ENDBRANCH  21  22
ENDBRANCH  16  20
TORSDOF 3
ENDMDL
MODEL 7
REMARK VINA RESULT:      -5.4      4.198      5.646
REMARK  Name = Dronabinol.pdbqt.pdb
REMARK  3 active torsions:
REMARK  status: ('A' for Active; 'I' for Inactive)
REMARK    1  A    between atoms: C_13  and  O_18
REMARK    2  A    between atoms: C_16  and  C_20
REMARK    3  A    between atoms: C_21  and  C_22
REMARK                            x       y       z     vdW  Elec       q    Type
REMARK                         _______ _______ _______ _____ _____    ______ ____
ROOT
ATOM      1  O   UNL     1     -28.771  83.124  14.376  0.00  0.00    +0.000 OA
ATOM      2  C   UNL     1     -28.872  85.356  15.418  0.00  0.00    +0.000 A 
ATOM      3  C   UNL     1     -28.861  85.934  14.051  0.00  0.00    +0.000 A 
ATOM      4  C   UNL     1     -29.156  83.883  15.547  0.00  0.00    +0.000 C 
ATOM      5  C   UNL     1     -28.828  86.363  16.445  0.00  0.00    +0.000 A 
ATOM      6  C   UNL     1     -28.993  85.062  12.886  0.00  0.00    +0.000 A 
ATOM      7  C   UNL     1     -28.736  87.878  16.182  0.00  0.00    +0.000 A 
ATOM      8  C   UNL     1     -28.760  87.377  14.053  0.00  0.00    +0.000 A 
ATOM      9  C   UNL     1     -28.687  88.415  14.852  0.00  0.00    +0.000 A 
ATOM     10  C   UNL     1     -28.941  83.682  13.133  0.00  0.00    +0.000 A 
ATOM     11  C   UNL     1     -28.326  83.303  16.725  0.00  0.00    +0.000 C 
ATOM     12  C   UNL     1     -30.677  83.668  15.799  0.00  0.00    +0.000 C 
ATOM     13  C   UNL     1     -29.144  85.497  11.563  0.00  0.00    +0.000 A 
ATOM     14  C   UNL     1     -29.002  82.769  12.079  0.00  0.00    +0.000 A 
ATOM     15  C   UNL     1     -27.778  89.560  14.534  0.00  0.00    +0.000 C 
ATOM     16  C   UNL     1     -29.152  83.220  10.772  0.00  0.00    +0.000 A 
ATOM     17  C   UNL     1     -29.226  84.583  10.511  0.00  0.00    +0.000 A 
ENDROOT
BRANCH  13  18
ATOM     18  O   UNL     1     -29.223  86.831  11.276  0.00  0.00    +0.000 OA
ATOM     19  H   UNL     1     -29.366  86.945  10.319  0.00  0.00    +0.000 HD
ENDBRANCH  13  18
BRANCH  16  20
ATOM     20  C   UNL     1     -29.242  82.284   9.702  0.00  0.00    +0.000 C 
ATOM     21  C   UNL     1     -29.352  81.276   8.552  0.00  0.00    +0.000 C 
BRANCH  21  22
ATOM     22  C   UNL     1     -29.472  80.272   7.402  0.00  0.00    +0.000 C 
ATOM     23  C   UNL     1     -29.588  79.266   6.253  0.00  0.00    +0.000 C 
ATOM     24  C   UNL     1     -29.703  78.258   5.105  0.00  0.00    +0.000 C 
ENDBRANCH  21  22
ENDBRANCH  16  20
TORSDOF 3
ENDMDL
MODEL 8
REMARK VINA RESULT:      -5.3     22.416     24.339
REMARK  Name = Dronabinol.pdbqt.pdb
REMARK  3 active torsions:
REMARK  status: ('A' for Active; 'I' for Inactive)
REMARK    1  A    between atoms: C_13  and  O_18
REMARK    2  A    between atoms: C_16  and  C_20
REMARK    3  A    between atoms: C_21  and  C_22
REMARK                            x       y       z     vdW  Elec       q    Type
REMARK                         _______ _______ _______ _____ _____    ______ ____
ROOT
ATOM      1  O   UNL     1     -37.011 105.270  -0.697  0.00  0.00    +0.000 OA
ATOM      2  C   UNL     1     -34.728 105.794   0.070  0.00  0.00    +0.000 A 
ATOM      3  C   UNL     1     -35.111 105.261   1.401  0.00  0.00    +0.000 A 
ATOM      4  C   UNL     1     -35.635 105.483  -1.090  0.00  0.00    +0.000 C 
ATOM      5  C   UNL     1     -33.400 106.349   0.058  0.00  0.00    +0.000 A 
ATOM      6  C   UNL     1     -36.391 104.578   1.576  0.00  0.00    +0.000 A 
ATOM      7  C   UNL     1     -32.476 106.433   1.287  0.00  0.00    +0.000 A 
ATOM      8  C   UNL     1     -34.087 105.462   2.403  0.00  0.00    +0.000 A 
ATOM      9  C   UNL     1     -32.881 105.947   2.575  0.00  0.00    +0.000 A 
ATOM     10  C   UNL     1     -37.276 104.627   0.488  0.00  0.00    +0.000 A 
ATOM     11  C   UNL     1     -35.651 106.691  -2.066  0.00  0.00    +0.000 C 
ATOM     12  C   UNL     1     -35.125 104.205  -1.820  0.00  0.00    +0.000 C 
ATOM     13  C   UNL     1     -36.798 103.908   2.736  0.00  0.00    +0.000 A 
ATOM     14  C   UNL     1     -38.544 104.051   0.577  0.00  0.00    +0.000 A 
ATOM     15  C   UNL     1     -32.538 106.716   3.812  0.00  0.00    +0.000 C 
ATOM     16  C   UNL     1     -38.931 103.390   1.737  0.00  0.00    +0.000 A 
ATOM     17  C   UNL     1     -38.060 103.314   2.817  0.00  0.00    +0.000 A 
ENDROOT
BRANCH  13  18
ATOM     18  O   UNL     1     -35.963 103.813   3.813  0.00  0.00    +0.000 OA
ATOM     19  H   UNL     1     -35.148 104.316   3.632  0.00  0.00    +0.000 HD
ENDBRANCH  13  18
BRANCH  16  20
ATOM     20  C   UNL     1     -40.216 102.781   1.814  0.00  0.00    +0.000 C 
ATOM     21  C   UNL     1     -41.599 102.124   1.883  0.00  0.00    +0.000 C 
BRANCH  21  22
ATOM     22  C   UNL     1     -42.980 101.464   1.942  0.00  0.00    +0.000 C 
ATOM     23  C   UNL     1     -44.362 100.806   1.996  0.00  0.00    +0.000 C 
ATOM     24  C   UNL     1     -45.745 100.147   2.048  0.00  0.00    +0.000 C 
ENDBRANCH  21  22
ENDBRANCH  16  20
TORSDOF 3
ENDMDL
MODEL 9
REMARK VINA RESULT:      -5.2     17.546     20.163
REMARK  Name = Dronabinol.pdbqt.pdb
REMARK  3 active torsions:
REMARK  status: ('A' for Active; 'I' for Inactive)
REMARK    1  A    between atoms: C_13  and  O_18
REMARK    2  A    between atoms: C_16  and  C_20
REMARK    3  A    between atoms: C_21  and  C_22
REMARK                            x       y       z     vdW  Elec       q    Type
REMARK                         _______ _______ _______ _____ _____    ______ ____
ROOT
ATOM      1  O   UNL     1     -23.347 101.910   6.943  0.00  0.00    +0.000 OA
ATOM      2  C   UNL     1     -21.704 100.096   6.649  0.00  0.00    +0.000 A 
ATOM      3  C   UNL     1     -21.950 100.184   5.188  0.00  0.00    +0.000 A 
ATOM      4  C   UNL     1     -22.201 101.228   7.506  0.00  0.00    +0.000 C 
ATOM      5  C   UNL     1     -20.812  99.021   6.996  0.00  0.00    +0.000 A 
ATOM      6  C   UNL     1     -22.760 101.272   4.646  0.00  0.00    +0.000 A 
ATOM      7  C   UNL     1     -20.201  98.031   5.987  0.00  0.00    +0.000 A 
ATOM      8  C   UNL     1     -21.279  99.142   4.442  0.00  0.00    +0.000 A 
ATOM      9  C   UNL     1     -20.482  98.110   4.582  0.00  0.00    +0.000 A 
ATOM     10  C   UNL     1     -23.418 102.084   5.582  0.00  0.00    +0.000 A 
ATOM     11  C   UNL     1     -22.669 100.667   8.877  0.00  0.00    +0.000 C 
ATOM     12  C   UNL     1     -21.058 102.266   7.709  0.00  0.00    +0.000 C 
ATOM     13  C   UNL     1     -22.940 101.546   3.284  0.00  0.00    +0.000 A 
ATOM     14  C   UNL     1     -24.258 103.116   5.162  0.00  0.00    +0.000 A 
ATOM     15  C   UNL     1     -20.704  96.862   3.786  0.00  0.00    +0.000 C 
ATOM     16  C   UNL     1     -24.425 103.373   3.805  0.00  0.00    +0.000 A 
ATOM     17  C   UNL     1     -23.765 102.592   2.864  0.00  0.00    +0.000 A 
ENDROOT
BRANCH  13  18
ATOM     18  O   UNL     1     -22.302 100.798   2.335  0.00  0.00    +0.000 OA
ATOM     19  H   UNL     1     -21.764 100.114   2.774  0.00  0.00    +0.000 HD
ENDBRANCH  13  18
BRANCH  16  20
ATOM     20  C   UNL     1     -25.262 104.444   3.381  0.00  0.00    +0.000 C 
ATOM     21  C   UNL     1     -26.159 105.604   2.935  0.00  0.00    +0.000 C 
BRANCH  21  22
ATOM     22  C   UNL     1     -27.048 106.771   2.496  0.00  0.00    +0.000 C 
ATOM     23  C   UNL     1     -27.941 107.937   2.060  0.00  0.00    +0.000 C 
ATOM     24  C   UNL     1     -28.833 109.105   1.627  0.00  0.00    +0.000 C 
ENDBRANCH  21  22
ENDBRANCH  16  20
TORSDOF 3
ENDMDL
