MODEL 1
REMARK VINA RESULT:      -6.9      0.000      0.000
REMARK  Name = Ellipticine.pdbqt.pdb
REMARK  0 active torsions:
REMARK  status: ('A' for Active; 'I' for Inactive)
REMARK                            x       y       z     vdW  Elec       q    Type
REMARK                         _______ _______ _______ _____ _____    ______ ____
ROOT
ATOM      1  N   UNL     1     -34.718  98.639  15.794  0.00  0.00    +0.000 N 
ATOM      2  N   UNL     1     -28.949  98.087  18.559  0.00  0.00    +0.000 NA
ATOM      3  C   UNL     1     -32.625  99.420  15.630  0.00  0.00    +0.000 A 
ATOM      4  C   UNL     1     -33.458  98.558  16.350  0.00  0.00    +0.000 A 
ATOM      5  C   UNL     1     -31.263  99.517  16.014  0.00  0.00    +0.000 A 
ATOM      6  C   UNL     1     -33.442 100.026  14.612  0.00  0.00    +0.000 A 
ATOM      7  C   UNL     1     -33.006  97.787  17.433  0.00  0.00    +0.000 A 
ATOM      8  C   UNL     1     -31.654  97.884  17.811  0.00  0.00    +0.000 A 
ATOM      9  C   UNL     1     -30.790  98.746  17.102  0.00  0.00    +0.000 A 
ATOM     10  C   UNL     1     -34.732  99.519  14.743  0.00  0.00    +0.000 A 
ATOM     11  C   UNL     1     -30.333 100.440  15.256  0.00  0.00    +0.000 C 
ATOM     12  C   UNL     1     -33.195 100.963  13.588  0.00  0.00    +0.000 A 
ATOM     13  C   UNL     1     -33.994  96.889  18.139  0.00  0.00    +0.000 C 
ATOM     14  C   UNL     1     -35.791  99.895  13.909  0.00  0.00    +0.000 A 
ATOM     15  C   UNL     1     -31.132  97.144  18.883  0.00  0.00    +0.000 A 
ATOM     16  C   UNL     1     -29.463  98.795  17.530  0.00  0.00    +0.000 A 
ATOM     17  C   UNL     1     -34.238 101.352  12.744  0.00  0.00    +0.000 A 
ATOM     18  C   UNL     1     -35.513 100.825  12.905  0.00  0.00    +0.000 A 
ATOM     19  C   UNL     1     -29.797  97.275  19.215  0.00  0.00    +0.000 A 
ATOM     20  H   UNL     1     -35.519  98.113  16.126  0.00  0.00    +0.000 HD
ENDROOT
TORSDOF 0
ENDMDL
MODEL 2
REMARK VINA RESULT:      -6.8      1.373      3.231
REMARK  Name = Ellipticine.pdbqt.pdb
REMARK  0 active torsions:
REMARK  status: ('A' for Active; 'I' for Inactive)
REMARK                            x       y       z     vdW  Elec       q    Type
REMARK                         _______ _______ _______ _____ _____    ______ ____
ROOT
ATOM      1  N   UNL     1     -34.104 100.534  13.623  0.00  0.00    +0.000 N 
ATOM      2  N   UNL     1     -30.654  97.839  18.319  0.00  0.00    +0.000 NA
ATOM      3  C   UNL     1     -34.332  99.195  15.404  0.00  0.00    +0.000 A 
ATOM      4  C   UNL     1     -33.411  99.931  14.652  0.00  0.00    +0.000 A 
ATOM      5  C   UNL     1     -33.859  98.475  16.531  0.00  0.00    +0.000 A 
ATOM      6  C   UNL     1     -35.616  99.383  14.781  0.00  0.00    +0.000 A 
ATOM      7  C   UNL     1     -32.043  99.987  14.962  0.00  0.00    +0.000 A 
ATOM      8  C   UNL     1     -31.576  99.272  16.081  0.00  0.00    +0.000 A 
ATOM      9  C   UNL     1     -32.483  98.521  16.859  0.00  0.00    +0.000 A 
ATOM     10  C   UNL     1     -35.437 100.218  13.680  0.00  0.00    +0.000 A 
ATOM     11  C   UNL     1     -34.828  97.669  17.368  0.00  0.00    +0.000 C 
ATOM     12  C   UNL     1     -36.916  98.915  15.057  0.00  0.00    +0.000 A 
ATOM     13  C   UNL     1     -31.138 100.814  14.079  0.00  0.00    +0.000 C 
ATOM     14  C   UNL     1     -36.485 100.612  12.840  0.00  0.00    +0.000 A 
ATOM     15  C   UNL     1     -30.223  99.282  16.451  0.00  0.00    +0.000 A 
ATOM     16  C   UNL     1     -31.953  97.837  17.953  0.00  0.00    +0.000 A 
ATOM     17  C   UNL     1     -37.977  99.296  14.232  0.00  0.00    +0.000 A 
ATOM     18  C   UNL     1     -37.760 100.130  13.142  0.00  0.00    +0.000 A 
ATOM     19  C   UNL     1     -29.814  98.563  17.559  0.00  0.00    +0.000 A 
ATOM     20  H   UNL     1     -33.675 101.130  12.923  0.00  0.00    +0.000 HD
ENDROOT
TORSDOF 0
ENDMDL
MODEL 3
REMARK VINA RESULT:      -6.7      1.440      5.598
REMARK  Name = Ellipticine.pdbqt.pdb
REMARK  0 active torsions:
REMARK  status: ('A' for Active; 'I' for Inactive)
REMARK                            x       y       z     vdW  Elec       q    Type
REMARK                         _______ _______ _______ _____ _____    ______ ____
ROOT
ATOM      1  N   UNL     1     -33.511  97.887  17.652  0.00  0.00    +0.000 N 
ATOM      2  N   UNL     1     -34.879 101.391  12.448  0.00  0.00    +0.000 NA
ATOM      3  C   UNL     1     -32.517  99.145  16.088  0.00  0.00    +0.000 A 
ATOM      4  C   UNL     1     -33.749  98.651  16.529  0.00  0.00    +0.000 A 
ATOM      5  C   UNL     1     -32.496  99.969  14.934  0.00  0.00    +0.000 A 
ATOM      6  C   UNL     1     -31.522  98.641  16.999  0.00  0.00    +0.000 A 
ATOM      7  C   UNL     1     -34.961  98.935  15.881  0.00  0.00    +0.000 A 
ATOM      8  C   UNL     1     -34.938  99.754  14.736  0.00  0.00    +0.000 A 
ATOM      9  C   UNL     1     -33.708 100.266  14.268  0.00  0.00    +0.000 A 
ATOM     10  C   UNL     1     -32.174  97.866  17.955  0.00  0.00    +0.000 A 
ATOM     11  C   UNL     1     -31.180 100.520  14.429  0.00  0.00    +0.000 C 
ATOM     12  C   UNL     1     -30.123  98.778  17.093  0.00  0.00    +0.000 A 
ATOM     13  C   UNL     1     -36.234  98.349  16.445  0.00  0.00    +0.000 C 
ATOM     14  C   UNL     1     -31.506  97.219  19.000  0.00  0.00    +0.000 A 
ATOM     15  C   UNL     1     -36.110 100.080  14.038  0.00  0.00    +0.000 A 
ATOM     16  C   UNL     1     -33.757 101.070  13.129  0.00  0.00    +0.000 A 
ATOM     17  C   UNL     1     -29.436  98.141  18.129  0.00  0.00    +0.000 A 
ATOM     18  C   UNL     1     -30.120  97.375  19.065  0.00  0.00    +0.000 A 
ATOM     19  C   UNL     1     -36.033 100.888  12.918  0.00  0.00    +0.000 A 
ATOM     20  H   UNL     1     -34.235  97.408  18.176  0.00  0.00    +0.000 HD
ENDROOT
TORSDOF 0
ENDMDL
MODEL 4
REMARK VINA RESULT:      -6.5      1.321      6.224
REMARK  Name = Ellipticine.pdbqt.pdb
REMARK  0 active torsions:
REMARK  status: ('A' for Active; 'I' for Inactive)
REMARK                            x       y       z     vdW  Elec       q    Type
REMARK                         _______ _______ _______ _____ _____    ______ ____
ROOT
ATOM      1  N   UNL     1     -30.521  99.410  16.356  0.00  0.00    +0.000 N 
ATOM      2  N   UNL     1     -36.235 100.406  13.601  0.00  0.00    +0.000 NA
ATOM      3  C   UNL     1     -32.674  98.823  16.548  0.00  0.00    +0.000 A 
ATOM      4  C   UNL     1     -31.772  99.589  15.803  0.00  0.00    +0.000 A 
ATOM      5  C   UNL     1     -34.042  98.839  16.172  0.00  0.00    +0.000 A 
ATOM      6  C   UNL     1     -31.908  98.172  17.578  0.00  0.00    +0.000 A 
ATOM      7  C   UNL     1     -32.160 100.370  14.704  0.00  0.00    +0.000 A 
ATOM      8  C   UNL     1     -33.518 100.385  14.333  0.00  0.00    +0.000 A 
ATOM      9  C   UNL     1     -34.451  99.621  15.067  0.00  0.00    +0.000 A 
ATOM     10  C   UNL     1     -30.578  98.558  17.429  0.00  0.00    +0.000 A 
ATOM     11  C   UNL     1     -35.046  98.021  16.957  0.00  0.00    +0.000 C 
ATOM     12  C   UNL     1     -32.231  97.286  18.626  0.00  0.00    +0.000 A 
ATOM     13  C   UNL     1     -31.100 101.159  13.971  0.00  0.00    +0.000 C 
ATOM     14  C   UNL     1     -29.552  98.110  18.268  0.00  0.00    +0.000 A 
ATOM     15  C   UNL     1     -33.978 101.142  13.245  0.00  0.00    +0.000 A 
ATOM     16  C   UNL     1     -35.779  99.681  14.646  0.00  0.00    +0.000 A 
ATOM     17  C   UNL     1     -31.222  96.826  19.476  0.00  0.00    +0.000 A 
ATOM     18  C   UNL     1     -29.906  97.234  19.296  0.00  0.00    +0.000 A 
ATOM     19  C   UNL     1     -35.322 101.123  12.922  0.00  0.00    +0.000 A 
ATOM     20  H   UNL     1     -29.678  99.854  16.008  0.00  0.00    +0.000 HD
ENDROOT
TORSDOF 0
ENDMDL
MODEL 5
REMARK VINA RESULT:      -6.3      2.013      6.397
REMARK  Name = Ellipticine.pdbqt.pdb
REMARK  0 active torsions:
REMARK  status: ('A' for Active; 'I' for Inactive)
REMARK                            x       y       z     vdW  Elec       q    Type
REMARK                         _______ _______ _______ _____ _____    ______ ____
ROOT
ATOM      1  N   UNL     1     -32.338 100.731  14.233  0.00  0.00    +0.000 N 
ATOM      2  N   UNL     1     -38.599  99.309  14.172  0.00  0.00    +0.000 NA
ATOM      3  C   UNL     1     -33.860  99.520  15.342  0.00  0.00    +0.000 A 
ATOM      4  C   UNL     1     -33.674 100.392  14.266  0.00  0.00    +0.000 A 
ATOM      5  C   UNL     1     -35.166  99.023  15.589  0.00  0.00    +0.000 A 
ATOM      6  C   UNL     1     -32.571  99.347  15.959  0.00  0.00    +0.000 A 
ATOM      7  C   UNL     1     -34.720 100.797  13.422  0.00  0.00    +0.000 A 
ATOM      8  C   UNL     1     -36.015 100.303  13.669  0.00  0.00    +0.000 A 
ATOM      9  C   UNL     1     -36.232  99.421  14.749  0.00  0.00    +0.000 A 
ATOM     10  C   UNL     1     -31.651 100.112  15.246  0.00  0.00    +0.000 A 
ATOM     11  C   UNL     1     -35.403  98.077  16.746  0.00  0.00    +0.000 C 
ATOM     12  C   UNL     1     -32.106  98.606  17.063  0.00  0.00    +0.000 A 
ATOM     13  C   UNL     1     -34.406 101.744  12.288  0.00  0.00    +0.000 C 
ATOM     14  C   UNL     1     -30.293 100.178  15.574  0.00  0.00    +0.000 A 
ATOM     15  C   UNL     1     -37.108 100.664  12.867  0.00  0.00    +0.000 A 
ATOM     16  C   UNL     1     -37.538  98.970  14.936  0.00  0.00    +0.000 A 
ATOM     17  C   UNL     1     -30.753  98.657  17.409  0.00  0.00    +0.000 A 
ATOM     18  C   UNL     1     -29.865  99.432  16.673  0.00  0.00    +0.000 A 
ATOM     19  C   UNL     1     -38.360 100.151  13.151  0.00  0.00    +0.000 A 
ATOM     20  H   UNL     1     -31.928 101.356  13.547  0.00  0.00    +0.000 HD
ENDROOT
TORSDOF 0
ENDMDL
MODEL 6
REMARK VINA RESULT:      -6.2     13.195     14.573
REMARK  Name = Ellipticine.pdbqt.pdb
REMARK  0 active torsions:
REMARK  status: ('A' for Active; 'I' for Inactive)
REMARK                            x       y       z     vdW  Elec       q    Type
REMARK                         _______ _______ _______ _____ _____    ______ ____
ROOT
ATOM      1  N   UNL     1     -35.255 104.176   2.333  0.00  0.00    +0.000 N 
ATOM      2  N   UNL     1     -32.410 108.903   5.617  0.00  0.00    +0.000 NA
ATOM      3  C   UNL     1     -35.439 105.322   4.249  0.00  0.00    +0.000 A 
ATOM      4  C   UNL     1     -34.684 105.185   3.080  0.00  0.00    +0.000 A 
ATOM      5  C   UNL     1     -35.047 106.307   5.192  0.00  0.00    +0.000 A 
ATOM      6  C   UNL     1     -36.495 104.347   4.173  0.00  0.00    +0.000 A 
ATOM      7  C   UNL     1     -33.559 105.977   2.800  0.00  0.00    +0.000 A 
ATOM      8  C   UNL     1     -33.173 106.954   3.737  0.00  0.00    +0.000 A 
ATOM      9  C   UNL     1     -33.916 107.115   4.926  0.00  0.00    +0.000 A 
ATOM     10  C   UNL     1     -36.350 103.655   2.973  0.00  0.00    +0.000 A 
ATOM     11  C   UNL     1     -35.842 106.483   6.468  0.00  0.00    +0.000 C 
ATOM     12  C   UNL     1     -37.562 103.993   5.022  0.00  0.00    +0.000 A 
ATOM     13  C   UNL     1     -32.817 105.743   1.505  0.00  0.00    +0.000 C 
ATOM     14  C   UNL     1     -37.213 102.629   2.573  0.00  0.00    +0.000 A 
ATOM     15  C   UNL     1     -32.060 107.782   3.524  0.00  0.00    +0.000 A 
ATOM     16  C   UNL     1     -33.478 108.100   5.810  0.00  0.00    +0.000 A 
ATOM     17  C   UNL     1     -38.435 102.971   4.643  0.00  0.00    +0.000 A 
ATOM     18  C   UNL     1     -38.260 102.302   3.437  0.00  0.00    +0.000 A 
ATOM     19  C   UNL     1     -31.722 108.726   4.476  0.00  0.00    +0.000 A 
ATOM     20  H   UNL     1     -34.905 103.869   1.433  0.00  0.00    +0.000 HD
ENDROOT
TORSDOF 0
ENDMDL
MODEL 7
REMARK VINA RESULT:      -6.2     15.708     18.418
REMARK  Name = Ellipticine.pdbqt.pdb
REMARK  0 active torsions:
REMARK  status: ('A' for Active; 'I' for Inactive)
REMARK                            x       y       z     vdW  Elec       q    Type
REMARK                         _______ _______ _______ _____ _____    ______ ____
ROOT
ATOM      1  N   UNL     1     -25.275 104.188   3.449  0.00  0.00    +0.000 N 
ATOM      2  N   UNL     1     -25.860 106.693  -2.434  0.00  0.00    +0.000 NA
ATOM      3  C   UNL     1     -24.617 103.845   1.336  0.00  0.00    +0.000 A 
ATOM      4  C   UNL     1     -25.367 104.684   2.165  0.00  0.00    +0.000 A 
ATOM      5  C   UNL     1     -24.554 104.147  -0.049  0.00  0.00    +0.000 A 
ATOM      6  C   UNL     1     -24.067 102.817   2.180  0.00  0.00    +0.000 A 
ATOM      7  C   UNL     1     -26.058 105.809   1.689  0.00  0.00    +0.000 A 
ATOM      8  C   UNL     1     -25.994 106.107   0.315  0.00  0.00    +0.000 A 
ATOM      9  C   UNL     1     -25.245 105.277  -0.547  0.00  0.00    +0.000 A 
ATOM     10  C   UNL     1     -24.495 103.061   3.483  0.00  0.00    +0.000 A 
ATOM     11  C   UNL     1     -23.751 103.260  -0.976  0.00  0.00    +0.000 C 
ATOM     12  C   UNL     1     -23.240 101.699   1.949  0.00  0.00    +0.000 A 
ATOM     13  C   UNL     1     -26.838 106.647   2.675  0.00  0.00    +0.000 C 
ATOM     14  C   UNL     1     -24.144 102.251   4.568  0.00  0.00    +0.000 A 
ATOM     15  C   UNL     1     -26.660 107.215  -0.232  0.00  0.00    +0.000 A 
ATOM     16  C   UNL     1     -25.224 105.630  -1.896  0.00  0.00    +0.000 A 
ATOM     17  C   UNL     1     -22.878 100.876   3.018  0.00  0.00    +0.000 A 
ATOM     18  C   UNL     1     -23.325 101.152   4.305  0.00  0.00    +0.000 A 
ATOM     19  C   UNL     1     -26.565 107.465  -1.589  0.00  0.00    +0.000 A 
ATOM     20  H   UNL     1     -25.728 104.609   4.253  0.00  0.00    +0.000 HD
ENDROOT
TORSDOF 0
ENDMDL
MODEL 8
REMARK VINA RESULT:      -6.1     13.018     13.984
REMARK  Name = Ellipticine.pdbqt.pdb
REMARK  0 active torsions:
REMARK  status: ('A' for Active; 'I' for Inactive)
REMARK                            x       y       z     vdW  Elec       q    Type
REMARK                         _______ _______ _______ _____ _____    ______ ____
ROOT
ATOM      1  N   UNL     1     -37.443 105.018   5.747  0.00  0.00    +0.000 N 
ATOM      2  N   UNL     1     -32.227 108.671   4.919  0.00  0.00    +0.000 NA
ATOM      3  C   UNL     1     -35.698 105.277   4.366  0.00  0.00    +0.000 A 
ATOM      4  C   UNL     1     -36.310 105.772   5.522  0.00  0.00    +0.000 A 
ATOM      5  C   UNL     1     -34.501 105.894   3.921  0.00  0.00    +0.000 A 
ATOM      6  C   UNL     1     -36.516 104.187   3.903  0.00  0.00    +0.000 A 
ATOM      7  C   UNL     1     -35.792 106.849   6.259  0.00  0.00    +0.000 A 
ATOM      8  C   UNL     1     -34.604 107.459   5.815  0.00  0.00    +0.000 A 
ATOM      9  C   UNL     1     -33.964 106.980   4.651  0.00  0.00    +0.000 A 
ATOM     10  C   UNL     1     -37.588 104.055   4.782  0.00  0.00    +0.000 A 
ATOM     11  C   UNL     1     -33.812 105.383   2.674  0.00  0.00    +0.000 C 
ATOM     12  C   UNL     1     -36.438 103.300   2.811  0.00  0.00    +0.000 A 
ATOM     13  C   UNL     1     -36.536 107.302   7.493  0.00  0.00    +0.000 C 
ATOM     14  C   UNL     1     -38.587 103.086   4.632  0.00  0.00    +0.000 A 
ATOM     15  C   UNL     1     -34.028 108.540   6.500  0.00  0.00    +0.000 A 
ATOM     16  C   UNL     1     -32.791 107.630   4.268  0.00  0.00    +0.000 A 
ATOM     17  C   UNL     1     -37.424 102.325   2.641  0.00  0.00    +0.000 A 
ATOM     18  C   UNL     1     -38.479 102.224   3.539  0.00  0.00    +0.000 A 
ATOM     19  C   UNL     1     -32.859 109.104   6.023  0.00  0.00    +0.000 A 
ATOM     20  H   UNL     1     -38.076 105.166   6.525  0.00  0.00    +0.000 HD
ENDROOT
TORSDOF 0
ENDMDL
MODEL 9
REMARK VINA RESULT:      -6.0     13.453     15.673
REMARK  Name = Ellipticine.pdbqt.pdb
REMARK  0 active torsions:
REMARK  status: ('A' for Active; 'I' for Inactive)
REMARK                            x       y       z     vdW  Elec       q    Type
REMARK                         _______ _______ _______ _____ _____    ______ ____
ROOT
ATOM      1  N   UNL     1     -21.496  98.482   4.676  0.00  0.00    +0.000 N 
ATOM      2  N   UNL     1     -21.348 101.313  10.437  0.00  0.00    +0.000 NA
ATOM      3  C   UNL     1     -20.309  98.507   6.575  0.00  0.00    +0.000 A 
ATOM      4  C   UNL     1     -21.417  99.059   5.926  0.00  0.00    +0.000 A 
ATOM      5  C   UNL     1     -20.012  98.944   7.892  0.00  0.00    +0.000 A 
ATOM      6  C   UNL     1     -19.721  97.567   5.657  0.00  0.00    +0.000 A 
ATOM      7  C   UNL     1     -22.246 100.025   6.519  0.00  0.00    +0.000 A 
ATOM      8  C   UNL     1     -21.950 100.457   7.825  0.00  0.00    +0.000 A 
ATOM      9  C   UNL     1     -20.837  99.916   8.505  0.00  0.00    +0.000 A 
ATOM     10  C   UNL     1     -20.482  97.578   4.491  0.00  0.00    +0.000 A 
ATOM     11  C   UNL     1     -18.820  98.367   8.624  0.00  0.00    +0.000 C 
ATOM     12  C   UNL     1     -18.606  96.707   5.717  0.00  0.00    +0.000 A 
ATOM     13  C   UNL     1     -23.418 100.554   5.725  0.00  0.00    +0.000 C 
ATOM     14  C   UNL     1     -20.192  96.777   3.380  0.00  0.00    +0.000 A 
ATOM     15  C   UNL     1     -22.734 101.418   8.480  0.00  0.00    +0.000 A 
ATOM     16  C   UNL     1     -20.601 100.389   9.796  0.00  0.00    +0.000 A 
ATOM     17  C   UNL     1     -18.298  95.900   4.619  0.00  0.00    +0.000 A 
ATOM     18  C   UNL     1     -19.081  95.937   3.472  0.00  0.00    +0.000 A 
ATOM     19  C   UNL     1     -22.401 101.809   9.764  0.00  0.00    +0.000 A 
ATOM     20  H   UNL     1     -22.212  98.704   3.993  0.00  0.00    +0.000 HD
ENDROOT
TORSDOF 0
ENDMDL
