MODEL 1
REMARK VINA RESULT:      -6.8      0.000      0.000
REMARK  Name = Enterolactone.pdbqt.pdb
REMARK  2 active torsions:
REMARK  status: ('A' for Active; 'I' for Inactive)
REMARK    1  A    between atoms: C_10  and  O_14
REMARK    2  A    between atoms: C_19  and  O_23
REMARK                            x       y       z     vdW  Elec       q    Type
REMARK                         _______ _______ _______ _____ _____    ______ ____
ROOT
ATOM      1  O   UNL     1     -38.259 100.099  12.816  0.00  0.00    +0.000 OA
ATOM      2  O   UNL     1     -36.236 100.428  11.705  0.00  0.00    +0.000 OA
ATOM      3  C   UNL     1     -37.433  99.363  14.912  0.00  0.00    +0.000 C 
ATOM      4  C   UNL     1     -36.328  99.646  14.028  0.00  0.00    +0.000 C 
ATOM      5  C   UNL     1     -38.484  99.690  14.055  0.00  0.00    +0.000 C 
ATOM      6  C   UNL     1     -36.875 100.106  12.689  0.00  0.00    +0.000 C 
ATOM      7  C   UNL     1     -37.383  99.321  16.318  0.00  0.00    +0.000 C 
ATOM      8  C   UNL     1     -37.312  99.276  17.741  0.00  0.00    +0.000 C 
ATOM      9  C   UNL     1     -36.404 100.088  18.415  0.00  0.00    +0.000 C 
ATOM     10  C   UNL     1     -36.337 100.026  19.804  0.00  0.00    +0.000 C 
ATOM     11  C   UNL     1     -37.163  99.167  20.522  0.00  0.00    +0.000 C 
ATOM     12  C   UNL     1     -38.069  98.358  19.841  0.00  0.00    +0.000 C 
ATOM     13  C   UNL     1     -38.144  98.411  18.451  0.00  0.00    +0.000 C 
ATOM     14  C   UNL     1     -34.959  99.590  14.372  0.00  0.00    +0.000 C 
ATOM     15  C   UNL     1     -33.580  99.536  14.728  0.00  0.00    +0.000 C 
ATOM     16  C   UNL     1     -33.120  98.523  15.564  0.00  0.00    +0.000 C 
ATOM     17  C   UNL     1     -31.774  98.488  15.914  0.00  0.00    +0.000 C 
ATOM     18  C   UNL     1     -30.887  99.448  15.440  0.00  0.00    +0.000 C 
ATOM     19  C   UNL     1     -31.353 100.459  14.603  0.00  0.00    +0.000 C 
ATOM     20  C   UNL     1     -32.700 100.505  14.247  0.00  0.00    +0.000 C 
ENDROOT
BRANCH  10  21
ATOM     21  O   UNL     1     -35.458 100.808  20.495  0.00  0.00    +0.000 OA
ATOM     22  H   UNL     1     -35.959 101.351  21.129  0.00  0.00    +0.000 HD
ENDBRANCH  10  21
BRANCH  17  23
ATOM     23  O   UNL     1     -31.291  97.509  16.733  0.00  0.00    +0.000 OA
ATOM     24  H   UNL     1     -30.982  96.768  16.181  0.00  0.00    +0.000 HD
ENDBRANCH  17  23
TORSDOF 2
ENDMDL
MODEL 2
REMARK VINA RESULT:      -6.8      1.585      5.663
REMARK  Name = Enterolactone.pdbqt.pdb
REMARK  2 active torsions:
REMARK  status: ('A' for Active; 'I' for Inactive)
REMARK    1  A    between atoms: C_10  and  O_14
REMARK    2  A    between atoms: C_19  and  O_23
REMARK                            x       y       z     vdW  Elec       q    Type
REMARK                         _______ _______ _______ _____ _____    ______ ____
ROOT
ATOM      1  O   UNL     1     -37.057 100.178  12.505  0.00  0.00    +0.000 OA
ATOM      2  O   UNL     1     -38.411  98.967  13.966  0.00  0.00    +0.000 OA
ATOM      3  C   UNL     1     -35.141 100.433  13.877  0.00  0.00    +0.000 C 
ATOM      4  C   UNL     1     -36.148  99.681  14.586  0.00  0.00    +0.000 C 
ATOM      5  C   UNL     1     -35.826 100.633  12.678  0.00  0.00    +0.000 C 
ATOM      6  C   UNL     1     -37.370  99.537  13.698  0.00  0.00    +0.000 C 
ATOM      7  C   UNL     1     -33.760 100.433  14.147  0.00  0.00    +0.000 C 
ATOM      8  C   UNL     1     -32.365 100.428  14.441  0.00  0.00    +0.000 C 
ATOM      9  C   UNL     1     -31.773  99.283  14.968  0.00  0.00    +0.000 C 
ATOM     10  C   UNL     1     -30.412  99.294  15.260  0.00  0.00    +0.000 C 
ATOM     11  C   UNL     1     -29.642 100.430  15.033  0.00  0.00    +0.000 C 
ATOM     12  C   UNL     1     -30.240 101.572  14.506  0.00  0.00    +0.000 C 
ATOM     13  C   UNL     1     -31.602 101.571  14.210  0.00  0.00    +0.000 C 
ATOM     14  C   UNL     1     -35.997  99.098  15.864  0.00  0.00    +0.000 C 
ATOM     15  C   UNL     1     -35.835  98.510  17.152  0.00  0.00    +0.000 C 
ATOM     16  C   UNL     1     -35.131  99.190  18.141  0.00  0.00    +0.000 C 
ATOM     17  C   UNL     1     -34.970  98.599  19.391  0.00  0.00    +0.000 C 
ATOM     18  C   UNL     1     -35.502  97.343  19.661  0.00  0.00    +0.000 C 
ATOM     19  C   UNL     1     -36.206  96.667  18.667  0.00  0.00    +0.000 C 
ATOM     20  C   UNL     1     -36.373  97.249  17.411  0.00  0.00    +0.000 C 
ENDROOT
BRANCH  10  21
ATOM     21  O   UNL     1     -29.801  98.189  15.777  0.00  0.00    +0.000 OA
ATOM     22  H   UNL     1     -30.045  98.110  16.716  0.00  0.00    +0.000 HD
ENDBRANCH  10  21
BRANCH  17  23
ATOM     23  O   UNL     1     -34.285  99.238  20.382  0.00  0.00    +0.000 OA
ATOM     24  H   UNL     1     -34.163 100.169  20.123  0.00  0.00    +0.000 HD
ENDBRANCH  17  23
TORSDOF 2
ENDMDL
MODEL 3
REMARK VINA RESULT:      -6.4      2.268      6.393
REMARK  Name = Enterolactone.pdbqt.pdb
REMARK  2 active torsions:
REMARK  status: ('A' for Active; 'I' for Inactive)
REMARK    1  A    between atoms: C_10  and  O_14
REMARK    2  A    between atoms: C_19  and  O_23
REMARK                            x       y       z     vdW  Elec       q    Type
REMARK                         _______ _______ _______ _____ _____    ______ ____
ROOT
ATOM      1  O   UNL     1     -35.454  96.615  19.294  0.00  0.00    +0.000 OA
ATOM      2  O   UNL     1     -37.602  97.275  18.675  0.00  0.00    +0.000 OA
ATOM      3  C   UNL     1     -34.230  97.537  17.486  0.00  0.00    +0.000 C 
ATOM      4  C   UNL     1     -35.633  97.834  17.323  0.00  0.00    +0.000 C 
ATOM      5  C   UNL     1     -34.298  96.833  18.689  0.00  0.00    +0.000 C 
ATOM      6  C   UNL     1     -36.401  97.228  18.483  0.00  0.00    +0.000 C 
ATOM      7  C   UNL     1     -33.159  98.236  16.898  0.00  0.00    +0.000 C 
ATOM      8  C   UNL     1     -32.087  98.950  16.287  0.00  0.00    +0.000 C 
ATOM      9  C   UNL     1     -32.224 100.310  16.023  0.00  0.00    +0.000 C 
ATOM     10  C   UNL     1     -31.174 100.994  15.417  0.00  0.00    +0.000 C 
ATOM     11  C   UNL     1     -29.997 100.337  15.074  0.00  0.00    +0.000 C 
ATOM     12  C   UNL     1     -29.867  98.976  15.341  0.00  0.00    +0.000 C 
ATOM     13  C   UNL     1     -30.912  98.282  15.947  0.00  0.00    +0.000 C 
ATOM     14  C   UNL     1     -36.197  98.630  16.301  0.00  0.00    +0.000 C 
ATOM     15  C   UNL     1     -36.756  99.439  15.270  0.00  0.00    +0.000 C 
ATOM     16  C   UNL     1     -36.254  99.354  13.974  0.00  0.00    +0.000 C 
ATOM     17  C   UNL     1     -36.802 100.157  12.979  0.00  0.00    +0.000 C 
ATOM     18  C   UNL     1     -37.840 101.039  13.261  0.00  0.00    +0.000 C 
ATOM     19  C   UNL     1     -38.338 101.118  14.560  0.00  0.00    +0.000 C 
ATOM     20  C   UNL     1     -37.797 100.319  15.565  0.00  0.00    +0.000 C 
ENDROOT
BRANCH  10  21
ATOM     21  O   UNL     1     -31.275 102.327  15.144  0.00  0.00    +0.000 OA
ATOM     22  H   UNL     1     -30.630 102.805  15.694  0.00  0.00    +0.000 HD
ENDBRANCH  10  21
BRANCH  17  23
ATOM     23  O   UNL     1     -36.333 100.100  11.699  0.00  0.00    +0.000 OA
ATOM     24  H   UNL     1     -36.588  99.243  11.314  0.00  0.00    +0.000 HD
ENDBRANCH  17  23
TORSDOF 2
ENDMDL
MODEL 4
REMARK VINA RESULT:      -6.0     27.870     30.457
REMARK  Name = Enterolactone.pdbqt.pdb
REMARK  2 active torsions:
REMARK  status: ('A' for Active; 'I' for Inactive)
REMARK    1  A    between atoms: C_10  and  O_14
REMARK    2  A    between atoms: C_19  and  O_23
REMARK                            x       y       z     vdW  Elec       q    Type
REMARK                         _______ _______ _______ _____ _____    ______ ____
ROOT
ATOM      1  O   UNL     1     -28.826  96.198 -14.260  0.00  0.00    +0.000 OA
ATOM      2  O   UNL     1     -29.302  93.919 -14.378  0.00  0.00    +0.000 OA
ATOM      3  C   UNL     1     -31.036  97.049 -14.164  0.00  0.00    +0.000 C 
ATOM      4  C   UNL     1     -31.074  95.608 -14.235  0.00  0.00    +0.000 C 
ATOM      5  C   UNL     1     -29.652  97.229 -14.176  0.00  0.00    +0.000 C 
ATOM      6  C   UNL     1     -29.653  95.082 -14.306  0.00  0.00    +0.000 C 
ATOM      7  C   UNL     1     -32.059  97.885 -13.678  0.00  0.00    +0.000 C 
ATOM      8  C   UNL     1     -33.108  98.717 -13.190  0.00  0.00    +0.000 C 
ATOM      9  C   UNL     1     -33.954  98.247 -12.188  0.00  0.00    +0.000 C 
ATOM     10  C   UNL     1     -34.982  99.065 -11.727  0.00  0.00    +0.000 C 
ATOM     11  C   UNL     1     -35.172 100.338 -12.253  0.00  0.00    +0.000 C 
ATOM     12  C   UNL     1     -34.323 100.802 -13.254  0.00  0.00    +0.000 C 
ATOM     13  C   UNL     1     -33.290  99.991 -13.723  0.00  0.00    +0.000 C 
ATOM     14  C   UNL     1     -32.236  94.808 -14.165  0.00  0.00    +0.000 C 
ATOM     15  C   UNL     1     -33.413  94.008 -14.087  0.00  0.00    +0.000 C 
ATOM     16  C   UNL     1     -34.580  94.430 -14.717  0.00  0.00    +0.000 C 
ATOM     17  C   UNL     1     -35.725  93.644 -14.625  0.00  0.00    +0.000 C 
ATOM     18  C   UNL     1     -35.717  92.450 -13.914  0.00  0.00    +0.000 C 
ATOM     19  C   UNL     1     -34.546  92.032 -13.286  0.00  0.00    +0.000 C 
ATOM     20  C   UNL     1     -33.392  92.811 -13.372  0.00  0.00    +0.000 C 
ENDROOT
BRANCH  10  21
ATOM     21  O   UNL     1     -35.828  98.635 -10.747  0.00  0.00    +0.000 OA
ATOM     22  H   UNL     1     -35.868  99.315 -10.052  0.00  0.00    +0.000 HD
ENDBRANCH  10  21
BRANCH  17  23
ATOM     23  O   UNL     1     -36.886  94.030 -15.229  0.00  0.00    +0.000 OA
ATOM     24  H   UNL     1     -36.915  93.639 -16.120  0.00  0.00    +0.000 HD
ENDBRANCH  17  23
TORSDOF 2
ENDMDL
MODEL 5
REMARK VINA RESULT:      -5.9     14.067     17.356
REMARK  Name = Enterolactone.pdbqt.pdb
REMARK  2 active torsions:
REMARK  status: ('A' for Active; 'I' for Inactive)
REMARK    1  A    between atoms: C_10  and  O_14
REMARK    2  A    between atoms: C_19  and  O_23
REMARK                            x       y       z     vdW  Elec       q    Type
REMARK                         _______ _______ _______ _____ _____    ______ ____
ROOT
ATOM      1  O   UNL     1     -40.136 107.764  -1.353  0.00  0.00    +0.000 OA
ATOM      2  O   UNL     1     -38.372 108.414  -2.731  0.00  0.00    +0.000 OA
ATOM      3  C   UNL     1     -39.216 105.767  -0.466  0.00  0.00    +0.000 C 
ATOM      4  C   UNL     1     -38.271 106.376  -1.371  0.00  0.00    +0.000 C 
ATOM      5  C   UNL     1     -40.242 106.708  -0.561  0.00  0.00    +0.000 C 
ATOM      6  C   UNL     1     -38.880 107.646  -1.936  0.00  0.00    +0.000 C 
ATOM      7  C   UNL     1     -38.915 104.848   0.557  0.00  0.00    +0.000 C 
ATOM      8  C   UNL     1     -38.592 103.913   1.582  0.00  0.00    +0.000 C 
ATOM      9  C   UNL     1     -37.353 103.980   2.216  0.00  0.00    +0.000 C 
ATOM     10  C   UNL     1     -37.046 103.054   3.208  0.00  0.00    +0.000 C 
ATOM     11  C   UNL     1     -37.957 102.068   3.573  0.00  0.00    +0.000 C 
ATOM     12  C   UNL     1     -39.194 102.006   2.935  0.00  0.00    +0.000 C 
ATOM     13  C   UNL     1     -39.512 102.928   1.940  0.00  0.00    +0.000 C 
ATOM     14  C   UNL     1     -36.960 105.917  -1.628  0.00  0.00    +0.000 C 
ATOM     15  C   UNL     1     -35.637 105.450  -1.878  0.00  0.00    +0.000 C 
ATOM     16  C   UNL     1     -35.389 104.084  -1.966  0.00  0.00    +0.000 C 
ATOM     17  C   UNL     1     -34.091 103.641  -2.199  0.00  0.00    +0.000 C 
ATOM     18  C   UNL     1     -33.043 104.543  -2.345  0.00  0.00    +0.000 C 
ATOM     19  C   UNL     1     -33.297 105.910  -2.256  0.00  0.00    +0.000 C 
ATOM     20  C   UNL     1     -34.594 106.365  -2.023  0.00  0.00    +0.000 C 
ENDROOT
BRANCH  10  21
ATOM     21  O   UNL     1     -35.842 103.092   3.849  0.00  0.00    +0.000 OA
ATOM     22  H   UNL     1     -35.214 102.529   3.364  0.00  0.00    +0.000 HD
ENDBRANCH  10  21
BRANCH  17  23
ATOM     23  O   UNL     1     -33.813 102.308  -2.289  0.00  0.00    +0.000 OA
ATOM     24  H   UNL     1     -33.516 102.115  -3.197  0.00  0.00    +0.000 HD
ENDBRANCH  17  23
TORSDOF 2
ENDMDL
MODEL 6
REMARK VINA RESULT:      -5.8     15.963     17.302
REMARK  Name = Enterolactone.pdbqt.pdb
REMARK  2 active torsions:
REMARK  status: ('A' for Active; 'I' for Inactive)
REMARK    1  A    between atoms: C_10  and  O_14
REMARK    2  A    between atoms: C_19  and  O_23
REMARK                            x       y       z     vdW  Elec       q    Type
REMARK                         _______ _______ _______ _____ _____    ______ ____
ROOT
ATOM      1  O   UNL     1     -27.005 108.250   2.967  0.00  0.00    +0.000 OA
ATOM      2  O   UNL     1     -26.975 106.852   1.101  0.00  0.00    +0.000 OA
ATOM      3  C   UNL     1     -25.882 106.851   4.516  0.00  0.00    +0.000 C 
ATOM      4  C   UNL     1     -25.980 106.182   3.241  0.00  0.00    +0.000 C 
ATOM      5  C   UNL     1     -26.517 108.047   4.180  0.00  0.00    +0.000 C 
ATOM      6  C   UNL     1     -26.709 107.087   2.265  0.00  0.00    +0.000 C 
ATOM      7  C   UNL     1     -24.954 106.566   5.535  0.00  0.00    +0.000 C 
ATOM      8  C   UNL     1     -24.011 106.259   6.559  0.00  0.00    +0.000 C 
ATOM      9  C   UNL     1     -22.752 105.773   6.217  0.00  0.00    +0.000 C 
ATOM     10  C   UNL     1     -21.844 105.467   7.227  0.00  0.00    +0.000 C 
ATOM     11  C   UNL     1     -22.180 105.641   8.566  0.00  0.00    +0.000 C 
ATOM     12  C   UNL     1     -23.441 106.128   8.901  0.00  0.00    +0.000 C 
ATOM     13  C   UNL     1     -24.357 106.437   7.897  0.00  0.00    +0.000 C 
ATOM     14  C   UNL     1     -25.416 104.927   2.920  0.00  0.00    +0.000 C 
ATOM     15  C   UNL     1     -24.840 103.662   2.604  0.00  0.00    +0.000 C 
ATOM     16  C   UNL     1     -24.853 102.640   3.548  0.00  0.00    +0.000 C 
ATOM     17  C   UNL     1     -24.277 101.413   3.231  0.00  0.00    +0.000 C 
ATOM     18  C   UNL     1     -23.691 101.199   1.988  0.00  0.00    +0.000 C 
ATOM     19  C   UNL     1     -23.682 102.226   1.047  0.00  0.00    +0.000 C 
ATOM     20  C   UNL     1     -24.256 103.459   1.354  0.00  0.00    +0.000 C 
ENDROOT
BRANCH  10  21
ATOM     21  O   UNL     1     -20.602 104.989   6.927  0.00  0.00    +0.000 OA
ATOM     22  H   UNL     1     -20.688 104.324   6.221  0.00  0.00    +0.000 HD
ENDBRANCH  10  21
BRANCH  17  23
ATOM     23  O   UNL     1     -24.271 100.390   4.133  0.00  0.00    +0.000 OA
ATOM     24  H   UNL     1     -24.488 100.752   5.011  0.00  0.00    +0.000 HD
ENDBRANCH  17  23
TORSDOF 2
ENDMDL
MODEL 7
REMARK VINA RESULT:      -5.8     26.639     29.509
REMARK  Name = Enterolactone.pdbqt.pdb
REMARK  2 active torsions:
REMARK  status: ('A' for Active; 'I' for Inactive)
REMARK    1  A    between atoms: C_10  and  O_14
REMARK    2  A    between atoms: C_19  and  O_23
REMARK                            x       y       z     vdW  Elec       q    Type
REMARK                         _______ _______ _______ _____ _____    ______ ____
ROOT
ATOM      1  O   UNL     1     -37.231 102.054 -17.085  0.00  0.00    +0.000 OA
ATOM      2  O   UNL     1     -37.718 104.295 -16.666  0.00  0.00    +0.000 OA
ATOM      3  C   UNL     1     -36.014 101.549 -15.115  0.00  0.00    +0.000 C 
ATOM      4  C   UNL     1     -36.443 102.926 -15.080  0.00  0.00    +0.000 C 
ATOM      5  C   UNL     1     -36.566 101.183 -16.343  0.00  0.00    +0.000 C 
ATOM      6  C   UNL     1     -37.211 103.234 -16.351  0.00  0.00    +0.000 C 
ATOM      7  C   UNL     1     -35.659 100.760 -14.005  0.00  0.00    +0.000 C 
ATOM      8  C   UNL     1     -35.294  99.979 -12.870  0.00  0.00    +0.000 C 
ATOM      9  C   UNL     1     -35.899 100.222 -11.639  0.00  0.00    +0.000 C 
ATOM     10  C   UNL     1     -35.527  99.459 -10.536  0.00  0.00    +0.000 C 
ATOM     11  C   UNL     1     -34.563  98.462 -10.649  0.00  0.00    +0.000 C 
ATOM     12  C   UNL     1     -33.962  98.224 -11.882  0.00  0.00    +0.000 C 
ATOM     13  C   UNL     1     -34.327  98.982 -12.994  0.00  0.00    +0.000 C 
ATOM     14  C   UNL     1     -36.258 103.822 -14.003  0.00  0.00    +0.000 C 
ATOM     15  C   UNL     1     -36.071 104.719 -12.911  0.00  0.00    +0.000 C 
ATOM     16  C   UNL     1     -34.879 104.695 -12.192  0.00  0.00    +0.000 C 
ATOM     17  C   UNL     1     -34.714 105.568 -11.121  0.00  0.00    +0.000 C 
ATOM     18  C   UNL     1     -35.720 106.458 -10.762  0.00  0.00    +0.000 C 
ATOM     19  C   UNL     1     -36.909 106.477 -11.486  0.00  0.00    +0.000 C 
ATOM     20  C   UNL     1     -37.087 105.607 -12.561  0.00  0.00    +0.000 C 
ENDROOT
BRANCH  10  21
ATOM     21  O   UNL     1     -36.100  99.671  -9.316  0.00  0.00    +0.000 OA
ATOM     22  H   UNL     1     -36.327 100.614  -9.240  0.00  0.00    +0.000 HD
ENDBRANCH  10  21
BRANCH  17  23
ATOM     23  O   UNL     1     -33.559 105.570 -10.394  0.00  0.00    +0.000 OA
ATOM     24  H   UNL     1     -32.811 105.710 -11.002  0.00  0.00    +0.000 HD
ENDBRANCH  17  23
TORSDOF 2
ENDMDL
MODEL 8
REMARK VINA RESULT:      -5.8     15.332     17.066
REMARK  Name = Enterolactone.pdbqt.pdb
REMARK  2 active torsions:
REMARK  status: ('A' for Active; 'I' for Inactive)
REMARK    1  A    between atoms: C_10  and  O_14
REMARK    2  A    between atoms: C_19  and  O_23
REMARK                            x       y       z     vdW  Elec       q    Type
REMARK                         _______ _______ _______ _____ _____    ______ ____
ROOT
ATOM      1  O   UNL     1     -22.938 106.453   8.063  0.00  0.00    +0.000 OA
ATOM      2  O   UNL     1     -22.165 105.408   9.998  0.00  0.00    +0.000 OA
ATOM      3  C   UNL     1     -22.767 104.636   6.549  0.00  0.00    +0.000 C 
ATOM      4  C   UNL     1     -22.338 104.216   7.862  0.00  0.00    +0.000 C 
ATOM      5  C   UNL     1     -23.095 105.960   6.844  0.00  0.00    +0.000 C 
ATOM      6  C   UNL     1     -22.445 105.393   8.814  0.00  0.00    +0.000 C 
ATOM      7  C   UNL     1     -23.215 103.796   5.512  0.00  0.00    +0.000 C 
ATOM      8  C   UNL     1     -23.657 102.930   4.471  0.00  0.00    +0.000 C 
ATOM      9  C   UNL     1     -24.308 101.741   4.790  0.00  0.00    +0.000 C 
ATOM     10  C   UNL     1     -24.726 100.898   3.764  0.00  0.00    +0.000 C 
ATOM     11  C   UNL     1     -24.501 101.228   2.431  0.00  0.00    +0.000 C 
ATOM     12  C   UNL     1     -23.849 102.419   2.119  0.00  0.00    +0.000 C 
ATOM     13  C   UNL     1     -23.427 103.270   3.139  0.00  0.00    +0.000 C 
ATOM     14  C   UNL     1     -21.960 102.905   8.227  0.00  0.00    +0.000 C 
ATOM     15  C   UNL     1     -21.586 101.578   8.589  0.00  0.00    +0.000 C 
ATOM     16  C   UNL     1     -20.846 100.801   7.702  0.00  0.00    +0.000 C 
ATOM     17  C   UNL     1     -20.496  99.503   8.064  0.00  0.00    +0.000 C 
ATOM     18  C   UNL     1     -20.877  98.976   9.293  0.00  0.00    +0.000 C 
ATOM     19  C   UNL     1     -21.617  99.759  10.175  0.00  0.00    +0.000 C 
ATOM     20  C   UNL     1     -21.973 101.060   9.825  0.00  0.00    +0.000 C 
ENDROOT
BRANCH  10  21
ATOM     21  O   UNL     1     -25.367  99.726   4.041  0.00  0.00    +0.000 OA
ATOM     22  H   UNL     1     -24.700  99.051   4.255  0.00  0.00    +0.000 HD
ENDBRANCH  10  21
BRANCH  17  23
ATOM     23  O   UNL     1     -19.772  98.715   7.218  0.00  0.00    +0.000 OA
ATOM     24  H   UNL     1     -20.307  97.933   6.991  0.00  0.00    +0.000 HD
ENDBRANCH  17  23
TORSDOF 2
ENDMDL
MODEL 9
REMARK VINA RESULT:      -5.8     14.212     18.225
REMARK  Name = Enterolactone.pdbqt.pdb
REMARK  2 active torsions:
REMARK  status: ('A' for Active; 'I' for Inactive)
REMARK    1  A    between atoms: C_10  and  O_14
REMARK    2  A    between atoms: C_19  and  O_23
REMARK                            x       y       z     vdW  Elec       q    Type
REMARK                         _______ _______ _______ _____ _____    ______ ____
ROOT
ATOM      1  O   UNL     1     -40.508 106.150  -2.108  0.00  0.00    +0.000 OA
ATOM      2  O   UNL     1     -41.234 105.022  -0.201  0.00  0.00    +0.000 OA
ATOM      3  C   UNL     1     -38.182 106.215  -1.655  0.00  0.00    +0.000 C 
ATOM      4  C   UNL     1     -38.866 105.533  -0.583  0.00  0.00    +0.000 C 
ATOM      5  C   UNL     1     -39.282 106.498  -2.466  0.00  0.00    +0.000 C 
ATOM      6  C   UNL     1     -40.353 105.510  -0.884  0.00  0.00    +0.000 C 
ATOM      7  C   UNL     1     -36.818 106.095  -1.980  0.00  0.00    +0.000 C 
ATOM      8  C   UNL     1     -35.432 105.969  -2.290  0.00  0.00    +0.000 C 
ATOM      9  C   UNL     1     -34.774 104.767  -2.039  0.00  0.00    +0.000 C 
ATOM     10  C   UNL     1     -33.419 104.660  -2.336  0.00  0.00    +0.000 C 
ATOM     11  C   UNL     1     -32.718 105.733  -2.877  0.00  0.00    +0.000 C 
ATOM     12  C   UNL     1     -33.382 106.931  -3.125  0.00  0.00    +0.000 C 
ATOM     13  C   UNL     1     -34.739 107.050  -2.832  0.00  0.00    +0.000 C 
ATOM     14  C   UNL     1     -38.250 104.911   0.527  0.00  0.00    +0.000 C 
ATOM     15  C   UNL     1     -37.620 104.282   1.640  0.00  0.00    +0.000 C 
ATOM     16  C   UNL     1     -36.516 104.880   2.240  0.00  0.00    +0.000 C 
ATOM     17  C   UNL     1     -35.904 104.250   3.319  0.00  0.00    +0.000 C 
ATOM     18  C   UNL     1     -36.380 103.036   3.802  0.00  0.00    +0.000 C 
ATOM     19  C   UNL     1     -37.486 102.443   3.197  0.00  0.00    +0.000 C 
ATOM     20  C   UNL     1     -38.107 103.065   2.115  0.00  0.00    +0.000 C 
ENDROOT
BRANCH  10  21
ATOM     21  O   UNL     1     -32.744 103.496  -2.103  0.00  0.00    +0.000 OA
ATOM     22  H   UNL     1     -32.340 103.544  -1.219  0.00  0.00    +0.000 HD
ENDBRANCH  10  21
BRANCH  17  23
ATOM     23  O   UNL     1     -34.819 104.808   3.929  0.00  0.00    +0.000 OA
ATOM     24  H   UNL     1     -34.056 104.215   3.806  0.00  0.00    +0.000 HD
ENDBRANCH  17  23
TORSDOF 2
ENDMDL
