MODEL 1
REMARK VINA RESULT:      -7.9      0.000      0.000
REMARK  Name = 
REMARK  12 active torsions:
REMARK  status: ('A' for Active; 'I' for Inactive)
REMARK    1  A    between atoms: O_2  and  C_12
REMARK    2  A    between atoms: O_2  and  C_24
REMARK    3  A    between atoms: O_3  and  C_18
REMARK    4  A    between atoms: O_4  and  C_23
REMARK    5  A    between atoms: O_5  and  C_25
REMARK    6  A    between atoms: O_6  and  C_26
REMARK    7  A    between atoms: O_8  and  C_27
REMARK    8  A    between atoms: O_9  and  C_31
REMARK    9  A    between atoms: O_10  and  C_32
REMARK   10  A    between atoms: O_11  and  C_33
REMARK   11  A    between atoms: C_13  and  C_16
REMARK   12  A    between atoms: C_24  and  C_28
REMARK                            x       y       z     vdW  Elec       q    Type
REMARK                         _______ _______ _______ _____ _____    ______ ____
ROOT
ATOM      1  O   UNL     1     -33.945  98.949  15.694  0.00  0.00    +0.000 OA
ATOM      2  C   UNL     1     -32.138 100.479  14.984  0.00  0.00    +0.000 C 
ATOM      3  C   UNL     1     -32.536  99.060  15.426  0.00  0.00    +0.000 C 
ATOM      4  C   UNL     1     -32.863 100.797  13.677  0.00  0.00    +0.000 C 
ATOM      5  C   UNL     1     -34.303 100.353  13.726  0.00  0.00    +0.000 A 
ATOM      6  C   UNL     1     -34.750  99.465  14.713  0.00  0.00    +0.000 A 
ATOM      7  C   UNL     1     -35.220 100.802  12.768  0.00  0.00    +0.000 A 
ATOM      8  C   UNL     1     -36.090  99.073  14.768  0.00  0.00    +0.000 A 
ATOM      9  C   UNL     1     -36.557 100.409  12.806  0.00  0.00    +0.000 A 
ATOM     10  C   UNL     1     -36.981  99.549  13.812  0.00  0.00    +0.000 A 
ENDROOT
BRANCH   3  11
ATOM     11  C   UNL     1     -31.764  98.620  16.663  0.00  0.00    +0.000 A 
ATOM     12  C   UNL     1     -32.339  97.695  17.555  0.00  0.00    +0.000 A 
ATOM     13  C   UNL     1     -30.463  99.095  16.916  0.00  0.00    +0.000 A 
ATOM     14  C   UNL     1     -29.769  98.653  18.038  0.00  0.00    +0.000 A 
ATOM     15  C   UNL     1     -31.632  97.262  18.679  0.00  0.00    +0.000 A 
ATOM     16  C   UNL     1     -30.349  97.741  18.918  0.00  0.00    +0.000 A 
BRANCH  14  17
ATOM     17  O   UNL     1     -28.501  99.087  18.316  0.00  0.00    +0.000 OA
ATOM     18  H   UNL     1     -28.186  98.624  19.112  0.00  0.00    +0.000 HD
ENDBRANCH  14  17
BRANCH  15  19
ATOM     19  O   UNL     1     -32.189  96.367  19.547  0.00  0.00    +0.000 OA
ATOM     20  H   UNL     1     -31.739  95.513  19.467  0.00  0.00    +0.000 HD
ENDBRANCH  15  19
BRANCH  16  21
ATOM     21  O   UNL     1     -29.637  97.328  20.010  0.00  0.00    +0.000 OA
ATOM     22  H   UNL     1     -29.626  98.101  20.606  0.00  0.00    +0.000 HD
ENDBRANCH  16  21
ENDBRANCH   3  11
BRANCH   7  23
ATOM     23  O   UNL     1     -34.781 101.644  11.785  0.00  0.00    +0.000 OA
ATOM     24  H   UNL     1     -34.032 101.227  11.327  0.00  0.00    +0.000 HD
ENDBRANCH   7  23
BRANCH  10  25
ATOM     25  O   UNL     1     -38.295  99.187  13.823  0.00  0.00    +0.000 OA
ATOM     26  H   UNL     1     -38.842  99.985  13.726  0.00  0.00    +0.000 HD
ENDBRANCH  10  25
BRANCH   2  27
ATOM     27  O   UNL     1     -32.546 101.436  15.993  0.00  0.00    +0.000 OA
BRANCH  27  29
ATOM     28  O   UNL     1     -32.489 103.712  15.701  0.00  0.00    +0.000 OA
ATOM     29  C   UNL     1     -31.948 102.647  15.950  0.00  0.00    +0.000 C 
BRANCH  29  30
ATOM     30  C   UNL     1     -30.495 102.500  16.217  0.00  0.00    +0.000 A 
ATOM     31  C   UNL     1     -29.648 102.245  15.127  0.00  0.00    +0.000 A 
ATOM     32  C   UNL     1     -29.965 102.620  17.514  0.00  0.00    +0.000 A 
ATOM     33  C   UNL     1     -28.595 102.469  17.716  0.00  0.00    +0.000 A 
ATOM     34  C   UNL     1     -28.285 102.095  15.349  0.00  0.00    +0.000 A 
ATOM     35  C   UNL     1     -27.759 102.202  16.636  0.00  0.00    +0.000 A 
BRANCH  33  36
ATOM     36  O   UNL     1     -28.063 102.580  18.969  0.00  0.00    +0.000 OA
ATOM     37  H   UNL     1     -28.748 102.871  19.589  0.00  0.00    +0.000 HD
ENDBRANCH  33  36
BRANCH  34  38
ATOM     38  O   UNL     1     -27.414 101.839  14.324  0.00  0.00    +0.000 OA
ATOM     39  H   UNL     1     -27.797 101.148  13.755  0.00  0.00    +0.000 HD
ENDBRANCH  34  38
BRANCH  35  40
ATOM     40  O   UNL     1     -26.411 102.048  16.817  0.00  0.00    +0.000 OA
ATOM     41  H   UNL     1     -26.180 101.237  16.323  0.00  0.00    +0.000 HD
ENDBRANCH  35  40
ENDBRANCH  29  30
ENDBRANCH  27  29
ENDBRANCH   2  27
TORSDOF 12
ENDMDL
MODEL 2
REMARK VINA RESULT:      -7.6      2.750      8.485
REMARK  Name = 
REMARK  12 active torsions:
REMARK  status: ('A' for Active; 'I' for Inactive)
REMARK    1  A    between atoms: O_2  and  C_12
REMARK    2  A    between atoms: O_2  and  C_24
REMARK    3  A    between atoms: O_3  and  C_18
REMARK    4  A    between atoms: O_4  and  C_23
REMARK    5  A    between atoms: O_5  and  C_25
REMARK    6  A    between atoms: O_6  and  C_26
REMARK    7  A    between atoms: O_8  and  C_27
REMARK    8  A    between atoms: O_9  and  C_31
REMARK    9  A    between atoms: O_10  and  C_32
REMARK   10  A    between atoms: O_11  and  C_33
REMARK   11  A    between atoms: C_13  and  C_16
REMARK   12  A    between atoms: C_24  and  C_28
REMARK                            x       y       z     vdW  Elec       q    Type
REMARK                         _______ _______ _______ _____ _____    ______ ____
ROOT
ATOM      1  O   UNL     1     -33.702 100.742  14.076  0.00  0.00    +0.000 OA
ATOM      2  C   UNL     1     -34.902  99.193  15.582  0.00  0.00    +0.000 C 
ATOM      3  C   UNL     1     -34.792  99.809  14.176  0.00  0.00    +0.000 C 
ATOM      4  C   UNL     1     -33.621  98.409  15.866  0.00  0.00    +0.000 C 
ATOM      5  C   UNL     1     -32.399  99.176  15.426  0.00  0.00    +0.000 A 
ATOM      6  C   UNL     1     -32.510 100.276  14.566  0.00  0.00    +0.000 A 
ATOM      7  C   UNL     1     -31.123  98.788  15.851  0.00  0.00    +0.000 A 
ATOM      8  C   UNL     1     -31.379 100.997  14.179  0.00  0.00    +0.000 A 
ATOM      9  C   UNL     1     -29.986  99.493  15.462  0.00  0.00    +0.000 A 
ATOM     10  C   UNL     1     -30.125 100.597  14.630  0.00  0.00    +0.000 A 
ENDROOT
BRANCH   3  11
ATOM     11  C   UNL     1     -36.081 100.511  13.769  0.00  0.00    +0.000 A 
ATOM     12  C   UNL     1     -37.271  99.769  13.641  0.00  0.00    +0.000 A 
ATOM     13  C   UNL     1     -36.115 101.901  13.550  0.00  0.00    +0.000 A 
ATOM     14  C   UNL     1     -37.313 102.520  13.208  0.00  0.00    +0.000 A 
ATOM     15  C   UNL     1     -38.466 100.404  13.294  0.00  0.00    +0.000 A 
ATOM     16  C   UNL     1     -38.485 101.777  13.079  0.00  0.00    +0.000 A 
BRANCH  14  17
ATOM     17  O   UNL     1     -37.389 103.870  12.992  0.00  0.00    +0.000 OA
ATOM     18  H   UNL     1     -36.737 104.308  13.565  0.00  0.00    +0.000 HD
ENDBRANCH  14  17
BRANCH  15  19
ATOM     19  O   UNL     1     -39.621  99.686  13.167  0.00  0.00    +0.000 OA
ATOM     20  H   UNL     1     -39.821  99.240  14.003  0.00  0.00    +0.000 HD
ENDBRANCH  15  19
BRANCH  16  21
ATOM     21  O   UNL     1     -39.645 102.419  12.742  0.00  0.00    +0.000 OA
ATOM     22  H   UNL     1     -39.419 102.937  11.946  0.00  0.00    +0.000 HD
ENDBRANCH  16  21
ENDBRANCH   3  11
BRANCH   7  23
ATOM     23  O   UNL     1     -31.009  97.696  16.665  0.00  0.00    +0.000 OA
ATOM     24  H   UNL     1     -30.068  97.469  16.755  0.00  0.00    +0.000 HD
ENDBRANCH   7  23
BRANCH  10  25
ATOM     25  O   UNL     1     -28.994 101.266  14.271  0.00  0.00    +0.000 OA
ATOM     26  H   UNL     1     -28.402 101.319  15.041  0.00  0.00    +0.000 HD
ENDBRANCH  10  25
BRANCH   2  27
ATOM     27  O   UNL     1     -35.036 100.247  16.567  0.00  0.00    +0.000 OA
BRANCH  27  29
ATOM     28  O   UNL     1     -35.585  99.471  18.656  0.00  0.00    +0.000 OA
ATOM     29  C   UNL     1     -35.875 100.005  17.598  0.00  0.00    +0.000 C 
BRANCH  29  30
ATOM     30  C   UNL     1     -37.246 100.453  17.247  0.00  0.00    +0.000 A 
ATOM     31  C   UNL     1     -38.270  99.493  17.237  0.00  0.00    +0.000 A 
ATOM     32  C   UNL     1     -37.530 101.796  16.941  0.00  0.00    +0.000 A 
ATOM     33  C   UNL     1     -38.832 102.168  16.613  0.00  0.00    +0.000 A 
ATOM     34  C   UNL     1     -39.562  99.883  16.904  0.00  0.00    +0.000 A 
ATOM     35  C   UNL     1     -39.843 101.212  16.588  0.00  0.00    +0.000 A 
BRANCH  33  36
ATOM     36  O   UNL     1     -39.125 103.468  16.310  0.00  0.00    +0.000 OA
ATOM     37  H   UNL     1     -39.925 103.503  15.765  0.00  0.00    +0.000 HD
ENDBRANCH  33  36
BRANCH  34  38
ATOM     38  O   UNL     1     -40.597  98.988  16.872  0.00  0.00    +0.000 OA
ATOM     39  H   UNL     1     -41.337  99.350  17.391  0.00  0.00    +0.000 HD
ENDBRANCH  34  38
BRANCH  35  40
ATOM     40  O   UNL     1     -41.126 101.559  16.265  0.00  0.00    +0.000 OA
ATOM     41  H   UNL     1     -41.038 102.329  15.670  0.00  0.00    +0.000 HD
ENDBRANCH  35  40
ENDBRANCH  29  30
ENDBRANCH  27  29
ENDBRANCH   2  27
TORSDOF 12
ENDMDL
MODEL 3
REMARK VINA RESULT:      -7.1     26.940     30.377
REMARK  Name = 
REMARK  12 active torsions:
REMARK  status: ('A' for Active; 'I' for Inactive)
REMARK    1  A    between atoms: O_2  and  C_12
REMARK    2  A    between atoms: O_2  and  C_24
REMARK    3  A    between atoms: O_3  and  C_18
REMARK    4  A    between atoms: O_4  and  C_23
REMARK    5  A    between atoms: O_5  and  C_25
REMARK    6  A    between atoms: O_6  and  C_26
REMARK    7  A    between atoms: O_8  and  C_27
REMARK    8  A    between atoms: O_9  and  C_31
REMARK    9  A    between atoms: O_10  and  C_32
REMARK   10  A    between atoms: O_11  and  C_33
REMARK   11  A    between atoms: C_13  and  C_16
REMARK   12  A    between atoms: C_24  and  C_28
REMARK                            x       y       z     vdW  Elec       q    Type
REMARK                         _______ _______ _______ _____ _____    ______ ____
ROOT
ATOM      1  O   UNL     1     -31.802  94.539 -14.080  0.00  0.00    +0.000 OA
ATOM      2  C   UNL     1     -32.457  96.541 -15.373  0.00  0.00    +0.000 C 
ATOM      3  C   UNL     1     -31.422  95.424 -15.148  0.00  0.00    +0.000 C 
ATOM      4  C   UNL     1     -33.780  95.895 -15.782  0.00  0.00    +0.000 C 
ATOM      5  C   UNL     1     -34.086  94.685 -14.935  0.00  0.00    +0.000 A 
ATOM      6  C   UNL     1     -33.092  94.085 -14.151  0.00  0.00    +0.000 A 
ATOM      7  C   UNL     1     -35.367  94.122 -14.934  0.00  0.00    +0.000 A 
ATOM      8  C   UNL     1     -33.385  92.979 -13.351  0.00  0.00    +0.000 A 
ATOM      9  C   UNL     1     -35.667  93.010 -14.149  0.00  0.00    +0.000 A 
ATOM     10  C   UNL     1     -34.671  92.450 -13.360  0.00  0.00    +0.000 A 
ENDROOT
BRANCH   3  11
ATOM     11  C   UNL     1     -30.040  95.992 -14.851  0.00  0.00    +0.000 A 
ATOM     12  C   UNL     1     -29.062  95.174 -14.252  0.00  0.00    +0.000 A 
ATOM     13  C   UNL     1     -29.706  97.315 -15.196  0.00  0.00    +0.000 A 
ATOM     14  C   UNL     1     -28.427  97.797 -14.940  0.00  0.00    +0.000 A 
ATOM     15  C   UNL     1     -27.783  95.672 -13.998  0.00  0.00    +0.000 A 
ATOM     16  C   UNL     1     -27.467  96.982 -14.343  0.00  0.00    +0.000 A 
BRANCH  14  17
ATOM     17  O   UNL     1     -28.062  99.075 -15.266  0.00  0.00    +0.000 OA
ATOM     18  H   UNL     1     -27.249  99.296 -14.779  0.00  0.00    +0.000 HD
ENDBRANCH  14  17
BRANCH  15  19
ATOM     19  O   UNL     1     -26.833  94.883 -13.415  0.00  0.00    +0.000 OA
ATOM     20  H   UNL     1     -27.209  94.011 -13.221  0.00  0.00    +0.000 HD
ENDBRANCH  15  19
BRANCH  16  21
ATOM     21  O   UNL     1     -26.219  97.489 -14.107  0.00  0.00    +0.000 OA
ATOM     22  H   UNL     1     -26.300  98.444 -14.295  0.00  0.00    +0.000 HD
ENDBRANCH  16  21
ENDBRANCH   3  11
BRANCH   7  23
ATOM     23  O   UNL     1     -36.331  94.685 -15.722  0.00  0.00    +0.000 OA
ATOM     24  H   UNL     1     -36.099  94.538 -16.655  0.00  0.00    +0.000 HD
ENDBRANCH   7  23
BRANCH  10  25
ATOM     25  O   UNL     1     -34.999  91.366 -12.601  0.00  0.00    +0.000 OA
ATOM     26  H   UNL     1     -34.430  91.351 -11.812  0.00  0.00    +0.000 HD
ENDBRANCH  10  25
BRANCH   2  27
ATOM     27  O   UNL     1     -32.654  97.278 -14.141  0.00  0.00    +0.000 OA
BRANCH  27  29
ATOM     28  O   UNL     1     -32.825  99.330 -15.155  0.00  0.00    +0.000 OA
ATOM     29  C   UNL     1     -33.104  98.546 -14.263  0.00  0.00    +0.000 C 
BRANCH  29  30
ATOM     30  C   UNL     1     -33.980  98.882 -13.112  0.00  0.00    +0.000 A 
ATOM     31  C   UNL     1     -33.625  98.386 -11.848  0.00  0.00    +0.000 A 
ATOM     32  C   UNL     1     -35.129  99.678 -13.265  0.00  0.00    +0.000 A 
ATOM     33  C   UNL     1     -35.924  99.962 -12.156  0.00  0.00    +0.000 A 
ATOM     34  C   UNL     1     -34.431  98.678 -10.754  0.00  0.00    +0.000 A 
ATOM     35  C   UNL     1     -35.577  99.458 -10.906  0.00  0.00    +0.000 A 
BRANCH  33  36
ATOM     36  O   UNL     1     -37.044 100.732 -12.286  0.00  0.00    +0.000 OA
ATOM     37  H   UNL     1     -37.438 100.884 -11.414  0.00  0.00    +0.000 HD
ENDBRANCH  33  36
BRANCH  34  38
ATOM     38  O   UNL     1     -34.136  98.216  -9.501  0.00  0.00    +0.000 OA
ATOM     39  H   UNL     1     -33.190  97.987  -9.468  0.00  0.00    +0.000 HD
ENDBRANCH  34  38
BRANCH  35  40
ATOM     40  O   UNL     1     -36.348  99.724  -9.807  0.00  0.00    +0.000 OA
ATOM     41  H   UNL     1     -36.134 100.646  -9.565  0.00  0.00    +0.000 HD
ENDBRANCH  35  40
ENDBRANCH  29  30
ENDBRANCH  27  29
ENDBRANCH   2  27
TORSDOF 12
ENDMDL
MODEL 4
REMARK VINA RESULT:      -6.9     13.661     16.397
REMARK  Name = 
REMARK  12 active torsions:
REMARK  status: ('A' for Active; 'I' for Inactive)
REMARK    1  A    between atoms: O_2  and  C_12
REMARK    2  A    between atoms: O_2  and  C_24
REMARK    3  A    between atoms: O_3  and  C_18
REMARK    4  A    between atoms: O_4  and  C_23
REMARK    5  A    between atoms: O_5  and  C_25
REMARK    6  A    between atoms: O_6  and  C_26
REMARK    7  A    between atoms: O_8  and  C_27
REMARK    8  A    between atoms: O_9  and  C_31
REMARK    9  A    between atoms: O_10  and  C_32
REMARK   10  A    between atoms: O_11  and  C_33
REMARK   11  A    between atoms: C_13  and  C_16
REMARK   12  A    between atoms: C_24  and  C_28
REMARK                            x       y       z     vdW  Elec       q    Type
REMARK                         _______ _______ _______ _____ _____    ______ ____
ROOT
ATOM      1  O   UNL     1     -41.626 102.195   4.304  0.00  0.00    +0.000 OA
ATOM      2  C   UNL     1     -41.090 101.936   1.906  0.00  0.00    +0.000 C 
ATOM      3  C   UNL     1     -40.645 101.725   3.364  0.00  0.00    +0.000 C 
ATOM      4  C   UNL     1     -42.359 101.120   1.667  0.00  0.00    +0.000 C 
ATOM      5  C   UNL     1     -43.322 101.252   2.820  0.00  0.00    +0.000 A 
ATOM      6  C   UNL     1     -42.903 101.768   4.053  0.00  0.00    +0.000 A 
ATOM      7  C   UNL     1     -44.653 100.837   2.688  0.00  0.00    +0.000 A 
ATOM      8  C   UNL     1     -43.803 101.910   5.111  0.00  0.00    +0.000 A 
ATOM      9  C   UNL     1     -45.556 100.962   3.742  0.00  0.00    +0.000 A 
ATOM     10  C   UNL     1     -45.123 101.503   4.945  0.00  0.00    +0.000 A 
ENDROOT
BRANCH   3  11
ATOM     11  C   UNL     1     -39.317 102.413   3.650  0.00  0.00    +0.000 A 
ATOM     12  C   UNL     1     -38.186 102.105   2.869  0.00  0.00    +0.000 A 
ATOM     13  C   UNL     1     -39.203 103.384   4.664  0.00  0.00    +0.000 A 
ATOM     14  C   UNL     1     -37.985 104.018   4.883  0.00  0.00    +0.000 A 
ATOM     15  C   UNL     1     -36.969 102.748   3.103  0.00  0.00    +0.000 A 
ATOM     16  C   UNL     1     -36.870 103.703   4.109  0.00  0.00    +0.000 A 
BRANCH  14  17
ATOM     17  O   UNL     1     -37.835 104.971   5.855  0.00  0.00    +0.000 OA
ATOM     18  H   UNL     1     -36.922 104.929   6.187  0.00  0.00    +0.000 HD
ENDBRANCH  14  17
BRANCH  15  19
ATOM     19  O   UNL     1     -35.870 102.449   2.349  0.00  0.00    +0.000 OA
ATOM     20  H   UNL     1     -35.068 102.583   2.876  0.00  0.00    +0.000 HD
ENDBRANCH  15  19
BRANCH  16  21
ATOM     21  O   UNL     1     -35.688 104.347   4.352  0.00  0.00    +0.000 OA
ATOM     22  H   UNL     1     -35.937 105.131   4.879  0.00  0.00    +0.000 HD
ENDBRANCH  16  21
ENDBRANCH   3  11
BRANCH   7  23
ATOM     23  O   UNL     1     -45.057 100.303   1.497  0.00  0.00    +0.000 OA
ATOM     24  H   UNL     1     -44.761  99.379   1.452  0.00  0.00    +0.000 HD
ENDBRANCH   7  23
BRANCH  10  25
ATOM     25  O   UNL     1     -46.033 101.615   5.954  0.00  0.00    +0.000 OA
ATOM     26  H   UNL     1     -46.071 100.772   6.437  0.00  0.00    +0.000 HD
ENDBRANCH  10  25
BRANCH   2  27
ATOM     27  O   UNL     1     -41.383 103.338   1.684  0.00  0.00    +0.000 OA
BRANCH  27  29
ATOM     28  O   UNL     1     -41.405 103.740  -0.576  0.00  0.00    +0.000 OA
ATOM     29  C   UNL     1     -40.918 103.876   0.535  0.00  0.00    +0.000 C 
BRANCH  29  30
ATOM     30  C   UNL     1     -39.678 104.646   0.805  0.00  0.00    +0.000 A 
ATOM     31  C   UNL     1     -38.546 104.366   0.025  0.00  0.00    +0.000 A 
ATOM     32  C   UNL     1     -39.625 105.636   1.802  0.00  0.00    +0.000 A 
ATOM     33  C   UNL     1     -38.436 106.329   2.023  0.00  0.00    +0.000 A 
ATOM     34  C   UNL     1     -37.369 105.065   0.261  0.00  0.00    +0.000 A 
ATOM     35  C   UNL     1     -37.310 106.039   1.258  0.00  0.00    +0.000 A 
BRANCH  33  36
ATOM     36  O   UNL     1     -38.366 107.292   2.989  0.00  0.00    +0.000 OA
ATOM     37  H   UNL     1     -39.229 107.387   3.419  0.00  0.00    +0.000 HD
ENDBRANCH  33  36
BRANCH  34  38
ATOM     38  O   UNL     1     -36.234 104.829  -0.465  0.00  0.00    +0.000 OA
ATOM     39  H   UNL     1     -36.481 104.378  -1.292  0.00  0.00    +0.000 HD
ENDBRANCH  34  38
BRANCH  35  40
ATOM     40  O   UNL     1     -36.134 106.708   1.464  0.00  0.00    +0.000 OA
ATOM     41  H   UNL     1     -36.008 106.706   2.432  0.00  0.00    +0.000 HD
ENDBRANCH  35  40
ENDBRANCH  29  30
ENDBRANCH  27  29
ENDBRANCH   2  27
TORSDOF 12
ENDMDL
MODEL 5
REMARK VINA RESULT:      -6.8     13.814     17.121
REMARK  Name = 
REMARK  12 active torsions:
REMARK  status: ('A' for Active; 'I' for Inactive)
REMARK    1  A    between atoms: O_2  and  C_12
REMARK    2  A    between atoms: O_2  and  C_24
REMARK    3  A    between atoms: O_3  and  C_18
REMARK    4  A    between atoms: O_4  and  C_23
REMARK    5  A    between atoms: O_5  and  C_25
REMARK    6  A    between atoms: O_6  and  C_26
REMARK    7  A    between atoms: O_8  and  C_27
REMARK    8  A    between atoms: O_9  and  C_31
REMARK    9  A    between atoms: O_10  and  C_32
REMARK   10  A    between atoms: O_11  and  C_33
REMARK   11  A    between atoms: C_13  and  C_16
REMARK   12  A    between atoms: C_24  and  C_28
REMARK                            x       y       z     vdW  Elec       q    Type
REMARK                         _______ _______ _______ _____ _____    ______ ____
ROOT
ATOM      1  O   UNL     1     -43.206 101.485   4.259  0.00  0.00    +0.000 OA
ATOM      2  C   UNL     1     -42.553 101.680   1.884  0.00  0.00    +0.000 C 
ATOM      3  C   UNL     1     -42.171 101.212   3.299  0.00  0.00    +0.000 C 
ATOM      4  C   UNL     1     -43.790 100.902   1.436  0.00  0.00    +0.000 C 
ATOM      5  C   UNL     1     -44.808 100.803   2.544  0.00  0.00    +0.000 A 
ATOM      6  C   UNL     1     -44.459 101.091   3.870  0.00  0.00    +0.000 A 
ATOM      7  C   UNL     1     -46.120 100.398   2.271  0.00  0.00    +0.000 A 
ATOM      8  C   UNL     1     -45.410 101.020   4.889  0.00  0.00    +0.000 A 
ATOM      9  C   UNL     1     -47.074 100.313   3.283  0.00  0.00    +0.000 A 
ATOM     10  C   UNL     1     -46.710 100.630   4.586  0.00  0.00    +0.000 A 
ENDROOT
BRANCH   3  11
ATOM     11  C   UNL     1     -40.876 101.857   3.773  0.00  0.00    +0.000 A 
ATOM     12  C   UNL     1     -39.706 101.728   2.998  0.00  0.00    +0.000 A 
ATOM     13  C   UNL     1     -40.830 102.614   4.959  0.00  0.00    +0.000 A 
ATOM     14  C   UNL     1     -39.640 103.217   5.351  0.00  0.00    +0.000 A 
ATOM     15  C   UNL     1     -38.517 102.337   3.407  0.00  0.00    +0.000 A 
ATOM     16  C   UNL     1     -38.486 103.080   4.582  0.00  0.00    +0.000 A 
BRANCH  14  17
ATOM     17  O   UNL     1     -39.557 103.965   6.495  0.00  0.00    +0.000 OA
ATOM     18  H   UNL     1     -40.156 103.580   7.157  0.00  0.00    +0.000 HD
ENDBRANCH  14  17
BRANCH  15  19
ATOM     19  O   UNL     1     -37.381 102.212   2.660  0.00  0.00    +0.000 OA
ATOM     20  H   UNL     1     -37.458 102.749   1.858  0.00  0.00    +0.000 HD
ENDBRANCH  15  19
BRANCH  16  21
ATOM     21  O   UNL     1     -37.334 103.687   4.998  0.00  0.00    +0.000 OA
ATOM     22  H   UNL     1     -37.373 104.583   4.613  0.00  0.00    +0.000 HD
ENDBRANCH  16  21
ENDBRANCH   3  11
BRANCH   7  23
ATOM     23  O   UNL     1     -46.455 100.087   0.984  0.00  0.00    +0.000 OA
ATOM     24  H   UNL     1     -47.306  99.619   0.986  0.00  0.00    +0.000 HD
ENDBRANCH   7  23
BRANCH  10  25
ATOM     25  O   UNL     1     -47.669 100.539   5.551  0.00  0.00    +0.000 OA
ATOM     26  H   UNL     1     -47.239 100.367   6.406  0.00  0.00    +0.000 HD
ENDBRANCH  10  25
BRANCH   2  27
ATOM     27  O   UNL     1     -42.871 103.094   1.907  0.00  0.00    +0.000 OA
BRANCH  27  29
ATOM     28  O   UNL     1     -43.262 103.946  -0.188  0.00  0.00    +0.000 OA
ATOM     29  C   UNL     1     -42.559 103.800   0.799  0.00  0.00    +0.000 C 
BRANCH  29  30
ATOM     30  C   UNL     1     -41.190 104.361   0.929  0.00  0.00    +0.000 A 
ATOM     31  C   UNL     1     -40.885 105.090   2.089  0.00  0.00    +0.000 A 
ATOM     32  C   UNL     1     -40.215 104.169  -0.065  0.00  0.00    +0.000 A 
ATOM     33  C   UNL     1     -38.944 104.719   0.099  0.00  0.00    +0.000 A 
ATOM     34  C   UNL     1     -39.614 105.633   2.233  0.00  0.00    +0.000 A 
ATOM     35  C   UNL     1     -38.648 105.454   1.243  0.00  0.00    +0.000 A 
BRANCH  33  36
ATOM     36  O   UNL     1     -37.985 104.544  -0.858  0.00  0.00    +0.000 OA
ATOM     37  H   UNL     1     -38.405 104.445  -1.725  0.00  0.00    +0.000 HD
ENDBRANCH  33  36
BRANCH  34  38
ATOM     38  O   UNL     1     -39.264 106.357   3.340  0.00  0.00    +0.000 OA
ATOM     39  H   UNL     1     -40.064 106.776   3.704  0.00  0.00    +0.000 HD
ENDBRANCH  34  38
BRANCH  35  40
ATOM     40  O   UNL     1     -37.408 106.003   1.419  0.00  0.00    +0.000 OA
ATOM     41  H   UNL     1     -37.440 106.424   2.300  0.00  0.00    +0.000 HD
ENDBRANCH  35  40
ENDBRANCH  29  30
ENDBRANCH  27  29
ENDBRANCH   2  27
TORSDOF 12
ENDMDL
MODEL 6
REMARK VINA RESULT:      -6.7     13.644     18.181
REMARK  Name = 
REMARK  12 active torsions:
REMARK  status: ('A' for Active; 'I' for Inactive)
REMARK    1  A    between atoms: O_2  and  C_12
REMARK    2  A    between atoms: O_2  and  C_24
REMARK    3  A    between atoms: O_3  and  C_18
REMARK    4  A    between atoms: O_4  and  C_23
REMARK    5  A    between atoms: O_5  and  C_25
REMARK    6  A    between atoms: O_6  and  C_26
REMARK    7  A    between atoms: O_8  and  C_27
REMARK    8  A    between atoms: O_9  and  C_31
REMARK    9  A    between atoms: O_10  and  C_32
REMARK   10  A    between atoms: O_11  and  C_33
REMARK   11  A    between atoms: C_13  and  C_16
REMARK   12  A    between atoms: C_24  and  C_28
REMARK                            x       y       z     vdW  Elec       q    Type
REMARK                         _______ _______ _______ _____ _____    ______ ____
ROOT
ATOM      1  O   UNL     1     -41.619 102.325   4.346  0.00  0.00    +0.000 OA
ATOM      2  C   UNL     1     -41.015 101.709   2.030  0.00  0.00    +0.000 C 
ATOM      3  C   UNL     1     -40.620 101.707   3.517  0.00  0.00    +0.000 C 
ATOM      4  C   UNL     1     -42.294 100.888   1.870  0.00  0.00    +0.000 C 
ATOM      5  C   UNL     1     -43.288 101.202   2.959  0.00  0.00    +0.000 A 
ATOM      6  C   UNL     1     -42.897 101.886   4.117  0.00  0.00    +0.000 A 
ATOM      7  C   UNL     1     -44.623 100.793   2.844  0.00  0.00    +0.000 A 
ATOM      8  C   UNL     1     -43.826 102.195   5.112  0.00  0.00    +0.000 A 
ATOM      9  C   UNL     1     -45.555 101.086   3.837  0.00  0.00    +0.000 A 
ATOM     10  C   UNL     1     -45.148 101.790   4.963  0.00  0.00    +0.000 A 
ENDROOT
BRANCH   3  11
ATOM     11  C   UNL     1     -39.288 102.408   3.745  0.00  0.00    +0.000 A 
ATOM     12  C   UNL     1     -38.182 102.092   2.931  0.00  0.00    +0.000 A 
ATOM     13  C   UNL     1     -39.145 103.398   4.736  0.00  0.00    +0.000 A 
ATOM     14  C   UNL     1     -37.924 104.044   4.901  0.00  0.00    +0.000 A 
ATOM     15  C   UNL     1     -36.962 102.747   3.110  0.00  0.00    +0.000 A 
ATOM     16  C   UNL     1     -36.835 103.721   4.095  0.00  0.00    +0.000 A 
BRANCH  14  17
ATOM     17  O   UNL     1     -37.748 105.015   5.850  0.00  0.00    +0.000 OA
ATOM     18  H   UNL     1     -36.973 104.779   6.389  0.00  0.00    +0.000 HD
ENDBRANCH  14  17
BRANCH  15  19
ATOM     19  O   UNL     1     -35.888 102.441   2.325  0.00  0.00    +0.000 OA
ATOM     20  H   UNL     1     -36.157 102.433   1.394  0.00  0.00    +0.000 HD
ENDBRANCH  15  19
BRANCH  16  21
ATOM     21  O   UNL     1     -35.650 104.377   4.285  0.00  0.00    +0.000 OA
ATOM     22  H   UNL     1     -34.965 103.725   4.042  0.00  0.00    +0.000 HD
ENDBRANCH  16  21
ENDBRANCH   3  11
BRANCH   7  23
ATOM     23  O   UNL     1     -45.001 100.098   1.730  0.00  0.00    +0.000 OA
ATOM     24  H   UNL     1     -44.893  99.148   1.903  0.00  0.00    +0.000 HD
ENDBRANCH   7  23
BRANCH  10  25
ATOM     25  O   UNL     1     -46.086 102.062   5.914  0.00  0.00    +0.000 OA
ATOM     26  H   UNL     1     -46.966 102.056   5.498  0.00  0.00    +0.000 HD
ENDBRANCH  10  25
BRANCH   2  27
ATOM     27  O   UNL     1     -41.272 103.068   1.597  0.00  0.00    +0.000 OA
BRANCH  27  29
ATOM     28  O   UNL     1     -39.599 103.689   0.153  0.00  0.00    +0.000 OA
ATOM     29  C   UNL     1     -40.765 103.424   0.396  0.00  0.00    +0.000 C 
BRANCH  29  30
ATOM     30  C   UNL     1     -41.855 103.487  -0.611  0.00  0.00    +0.000 A 
ATOM     31  C   UNL     1     -42.474 104.727  -0.834  0.00  0.00    +0.000 A 
ATOM     32  C   UNL     1     -42.260 102.352  -1.335  0.00  0.00    +0.000 A 
ATOM     33  C   UNL     1     -43.291 102.459  -2.266  0.00  0.00    +0.000 A 
ATOM     34  C   UNL     1     -43.502 104.813  -1.765  0.00  0.00    +0.000 A 
ATOM     35  C   UNL     1     -43.913 103.686  -2.475  0.00  0.00    +0.000 A 
BRANCH  33  36
ATOM     36  O   UNL     1     -43.699 101.366  -2.977  0.00  0.00    +0.000 OA
ATOM     37  H   UNL     1     -44.550 101.551  -3.401  0.00  0.00    +0.000 HD
ENDBRANCH  33  36
BRANCH  34  38
ATOM     38  O   UNL     1     -44.145 105.995  -2.018  0.00  0.00    +0.000 OA
ATOM     39  H   UNL     1     -44.863 106.104  -1.369  0.00  0.00    +0.000 HD
ENDBRANCH  34  38
BRANCH  35  40
ATOM     40  O   UNL     1     -44.929 103.808  -3.383  0.00  0.00    +0.000 OA
ATOM     41  H   UNL     1     -45.425 102.969  -3.323  0.00  0.00    +0.000 HD
ENDBRANCH  35  40
ENDBRANCH  29  30
ENDBRANCH  27  29
ENDBRANCH   2  27
TORSDOF 12
ENDMDL
MODEL 7
REMARK VINA RESULT:      -6.6     11.864     15.540
REMARK  Name = 
REMARK  12 active torsions:
REMARK  status: ('A' for Active; 'I' for Inactive)
REMARK    1  A    between atoms: O_2  and  C_12
REMARK    2  A    between atoms: O_2  and  C_24
REMARK    3  A    between atoms: O_3  and  C_18
REMARK    4  A    between atoms: O_4  and  C_23
REMARK    5  A    between atoms: O_5  and  C_25
REMARK    6  A    between atoms: O_6  and  C_26
REMARK    7  A    between atoms: O_8  and  C_27
REMARK    8  A    between atoms: O_9  and  C_31
REMARK    9  A    between atoms: O_10  and  C_32
REMARK   10  A    between atoms: O_11  and  C_33
REMARK   11  A    between atoms: C_13  and  C_16
REMARK   12  A    between atoms: C_24  and  C_28
REMARK                            x       y       z     vdW  Elec       q    Type
REMARK                         _______ _______ _______ _____ _____    ______ ____
ROOT
ATOM      1  O   UNL     1     -34.774 106.226   2.532  0.00  0.00    +0.000 OA
ATOM      2  C   UNL     1     -36.945 105.092   2.862  0.00  0.00    +0.000 C 
ATOM      3  C   UNL     1     -36.073 106.329   3.140  0.00  0.00    +0.000 C 
ATOM      4  C   UNL     1     -37.169 104.990   1.353  0.00  0.00    +0.000 C 
ATOM      5  C   UNL     1     -35.896 105.255   0.590  0.00  0.00    +0.000 A 
ATOM      6  C   UNL     1     -34.793 105.853   1.214  0.00  0.00    +0.000 A 
ATOM      7  C   UNL     1     -35.799 104.929  -0.768  0.00  0.00    +0.000 A 
ATOM      8  C   UNL     1     -33.608 106.076   0.509  0.00  0.00    +0.000 A 
ATOM      9  C   UNL     1     -34.625 105.158  -1.484  0.00  0.00    +0.000 A 
ATOM     10  C   UNL     1     -33.536 105.727  -0.836  0.00  0.00    +0.000 A 
ENDROOT
BRANCH   3  11
ATOM     11  C   UNL     1     -35.900 106.569   4.634  0.00  0.00    +0.000 A 
ATOM     12  C   UNL     1     -37.035 106.685   5.460  0.00  0.00    +0.000 A 
ATOM     13  C   UNL     1     -34.621 106.644   5.217  0.00  0.00    +0.000 A 
ATOM     14  C   UNL     1     -34.494 106.834   6.589  0.00  0.00    +0.000 A 
ATOM     15  C   UNL     1     -36.892 106.878   6.835  0.00  0.00    +0.000 A 
ATOM     16  C   UNL     1     -35.622 106.952   7.397  0.00  0.00    +0.000 A 
BRANCH  14  17
ATOM     17  O   UNL     1     -33.267 106.906   7.194  0.00  0.00    +0.000 OA
ATOM     18  H   UNL     1     -33.095 107.835   7.426  0.00  0.00    +0.000 HD
ENDBRANCH  14  17
BRANCH  15  19
ATOM     19  O   UNL     1     -37.990 106.993   7.638  0.00  0.00    +0.000 OA
ATOM     20  H   UNL     1     -38.511 106.177   7.596  0.00  0.00    +0.000 HD
ENDBRANCH  15  19
BRANCH  16  21
ATOM     21  O   UNL     1     -35.459 107.137   8.743  0.00  0.00    +0.000 OA
ATOM     22  H   UNL     1     -34.495 107.085   8.885  0.00  0.00    +0.000 HD
ENDBRANCH  16  21
ENDBRANCH   3  11
BRANCH   7  23
ATOM     23  O   UNL     1     -36.883 104.375  -1.387  0.00  0.00    +0.000 OA
ATOM     24  H   UNL     1     -36.705 103.433  -1.549  0.00  0.00    +0.000 HD
ENDBRANCH   7  23
BRANCH  10  25
ATOM     25  O   UNL     1     -32.403 105.934  -1.564  0.00  0.00    +0.000 OA
ATOM     26  H   UNL     1     -32.146 105.098  -1.989  0.00  0.00    +0.000 HD
ENDBRANCH  10  25
BRANCH   2  27
ATOM     27  O   UNL     1     -36.258 103.900   3.317  0.00  0.00    +0.000 OA
BRANCH  27  29
ATOM     28  O   UNL     1     -36.461 101.787   2.442  0.00  0.00    +0.000 OA
ATOM     29  C   UNL     1     -36.886 102.723   3.099  0.00  0.00    +0.000 C 
BRANCH  29  30
ATOM     30  C   UNL     1     -38.219 102.736   3.753  0.00  0.00    +0.000 A 
ATOM     31  C   UNL     1     -39.311 102.229   3.031  0.00  0.00    +0.000 A 
ATOM     32  C   UNL     1     -38.398 103.228   5.058  0.00  0.00    +0.000 A 
ATOM     33  C   UNL     1     -39.670 103.225   5.628  0.00  0.00    +0.000 A 
ATOM     34  C   UNL     1     -40.572 102.237   3.615  0.00  0.00    +0.000 A 
ATOM     35  C   UNL     1     -40.754 102.736   4.905  0.00  0.00    +0.000 A 
BRANCH  33  36
ATOM     36  O   UNL     1     -39.862 103.701   6.894  0.00  0.00    +0.000 OA
ATOM     37  H   UNL     1     -40.802 103.649   7.122  0.00  0.00    +0.000 HD
ENDBRANCH  33  36
BRANCH  34  38
ATOM     38  O   UNL     1     -41.673 101.761   2.956  0.00  0.00    +0.000 OA
ATOM     39  H   UNL     1     -42.017 102.465   2.378  0.00  0.00    +0.000 HD
ENDBRANCH  34  38
BRANCH  35  40
ATOM     40  O   UNL     1     -42.010 102.727   5.449  0.00  0.00    +0.000 OA
ATOM     41  H   UNL     1     -42.596 103.048   4.736  0.00  0.00    +0.000 HD
ENDBRANCH  35  40
ENDBRANCH  29  30
ENDBRANCH  27  29
ENDBRANCH   2  27
TORSDOF 12
ENDMDL
MODEL 8
REMARK VINA RESULT:      -6.5     10.737     13.827
REMARK  Name = 
REMARK  12 active torsions:
REMARK  status: ('A' for Active; 'I' for Inactive)
REMARK    1  A    between atoms: O_2  and  C_12
REMARK    2  A    between atoms: O_2  and  C_24
REMARK    3  A    between atoms: O_3  and  C_18
REMARK    4  A    between atoms: O_4  and  C_23
REMARK    5  A    between atoms: O_5  and  C_25
REMARK    6  A    between atoms: O_6  and  C_26
REMARK    7  A    between atoms: O_8  and  C_27
REMARK    8  A    between atoms: O_9  and  C_31
REMARK    9  A    between atoms: O_10  and  C_32
REMARK   10  A    between atoms: O_11  and  C_33
REMARK   11  A    between atoms: C_13  and  C_16
REMARK   12  A    between atoms: C_24  and  C_28
REMARK                            x       y       z     vdW  Elec       q    Type
REMARK                         _______ _______ _______ _____ _____    ______ ____
ROOT
ATOM      1  O   UNL     1     -33.295  86.943  17.559  0.00  0.00    +0.000 OA
ATOM      2  C   UNL     1     -31.200  85.751  18.104  0.00  0.00    +0.000 C 
ATOM      3  C   UNL     1     -32.226  86.823  18.513  0.00  0.00    +0.000 C 
ATOM      4  C   UNL     1     -31.908  84.398  18.059  0.00  0.00    +0.000 C 
ATOM      5  C   UNL     1     -33.256  84.506  17.392  0.00  0.00    +0.000 A 
ATOM      6  C   UNL     1     -33.862  85.752  17.189  0.00  0.00    +0.000 A 
ATOM      7  C   UNL     1     -33.942  83.356  16.981  0.00  0.00    +0.000 A 
ATOM      8  C   UNL     1     -35.101  85.849  16.551  0.00  0.00    +0.000 A 
ATOM      9  C   UNL     1     -35.183  83.440  16.353  0.00  0.00    +0.000 A 
ATOM     10  C   UNL     1     -35.750  84.690  16.140  0.00  0.00    +0.000 A 
ENDROOT
BRANCH   3  11
ATOM     11  C   UNL     1     -31.572  88.186  18.695  0.00  0.00    +0.000 A 
ATOM     12  C   UNL     1     -31.789  89.199  17.741  0.00  0.00    +0.000 A 
ATOM     13  C   UNL     1     -30.777  88.468  19.822  0.00  0.00    +0.000 A 
ATOM     14  C   UNL     1     -30.217  89.731  19.978  0.00  0.00    +0.000 A 
ATOM     15  C   UNL     1     -31.217  90.462  17.909  0.00  0.00    +0.000 A 
ATOM     16  C   UNL     1     -30.433  90.726  19.027  0.00  0.00    +0.000 A 
BRANCH  14  17
ATOM     17  O   UNL     1     -29.443  90.046  21.062  0.00  0.00    +0.000 OA
ATOM     18  H   UNL     1     -29.366  89.255  21.623  0.00  0.00    +0.000 HD
ENDBRANCH  14  17
BRANCH  15  19
ATOM     19  O   UNL     1     -31.424  91.446  16.985  0.00  0.00    +0.000 OA
ATOM     20  H   UNL     1     -30.602  91.616  16.501  0.00  0.00    +0.000 HD
ENDBRANCH  15  19
BRANCH  16  21
ATOM     21  O   UNL     1     -29.867  91.957  19.212  0.00  0.00    +0.000 OA
ATOM     22  H   UNL     1     -29.573  92.231  18.322  0.00  0.00    +0.000 HD
ENDBRANCH  16  21
ENDBRANCH   3  11
BRANCH   7  23
ATOM     23  O   UNL     1     -33.367  82.137  17.205  0.00  0.00    +0.000 OA
ATOM     24  H   UNL     1     -32.449  82.271  17.493  0.00  0.00    +0.000 HD
ENDBRANCH   7  23
BRANCH  10  25
ATOM     25  O   UNL     1     -36.964  84.737  15.520  0.00  0.00    +0.000 OA
ATOM     26  H   UNL     1     -37.662  84.612  16.186  0.00  0.00    +0.000 HD
ENDBRANCH  10  25
BRANCH   2  27
ATOM     27  O   UNL     1     -30.679  86.053  16.785  0.00  0.00    +0.000 OA
BRANCH  27  29
ATOM     28  O   UNL     1     -28.713  84.893  17.024  0.00  0.00    +0.000 OA
ATOM     29  C   UNL     1     -29.360  85.834  16.593  0.00  0.00    +0.000 C 
BRANCH  29  30
ATOM     30  C   UNL     1     -28.776  86.943  15.797  0.00  0.00    +0.000 A 
ATOM     31  C   UNL     1     -29.030  88.258  16.217  0.00  0.00    +0.000 A 
ATOM     32  C   UNL     1     -27.984  86.701  14.662  0.00  0.00    +0.000 A 
ATOM     33  C   UNL     1     -27.461  87.775  13.943  0.00  0.00    +0.000 A 
ATOM     34  C   UNL     1     -28.503  89.316  15.486  0.00  0.00    +0.000 A 
ATOM     35  C   UNL     1     -27.726  89.078  14.352  0.00  0.00    +0.000 A 
BRANCH  33  36
ATOM     36  O   UNL     1     -26.691  87.558  12.836  0.00  0.00    +0.000 OA
ATOM     37  H   UNL     1     -27.071  88.026  12.078  0.00  0.00    +0.000 HD
ENDBRANCH  33  36
BRANCH  34  38
ATOM     38  O   UNL     1     -28.723  90.618  15.845  0.00  0.00    +0.000 OA
ATOM     39  H   UNL     1     -28.985  91.120  15.053  0.00  0.00    +0.000 HD
ENDBRANCH  34  38
BRANCH  35  40
ATOM     40  O   UNL     1     -27.224  90.145  13.657  0.00  0.00    +0.000 OA
ATOM     41  H   UNL     1     -27.142  90.861  14.316  0.00  0.00    +0.000 HD
ENDBRANCH  35  40
ENDBRANCH  29  30
ENDBRANCH  27  29
ENDBRANCH   2  27
TORSDOF 12
ENDMDL
MODEL 9
REMARK VINA RESULT:      -6.5     27.234     30.664
REMARK  Name = 
REMARK  12 active torsions:
REMARK  status: ('A' for Active; 'I' for Inactive)
REMARK    1  A    between atoms: O_2  and  C_12
REMARK    2  A    between atoms: O_2  and  C_24
REMARK    3  A    between atoms: O_3  and  C_18
REMARK    4  A    between atoms: O_4  and  C_23
REMARK    5  A    between atoms: O_5  and  C_25
REMARK    6  A    between atoms: O_6  and  C_26
REMARK    7  A    between atoms: O_8  and  C_27
REMARK    8  A    between atoms: O_9  and  C_31
REMARK    9  A    between atoms: O_10  and  C_32
REMARK   10  A    between atoms: O_11  and  C_33
REMARK   11  A    between atoms: C_13  and  C_16
REMARK   12  A    between atoms: C_24  and  C_28
REMARK                            x       y       z     vdW  Elec       q    Type
REMARK                         _______ _______ _______ _____ _____    ______ ____
ROOT
ATOM      1  O   UNL     1     -32.010  94.872 -14.814  0.00  0.00    +0.000 OA
ATOM      2  C   UNL     1     -32.370  97.175 -15.635  0.00  0.00    +0.000 C 
ATOM      3  C   UNL     1     -31.511  95.899 -15.688  0.00  0.00    +0.000 C 
ATOM      4  C   UNL     1     -33.778  96.829 -16.116  0.00  0.00    +0.000 C 
ATOM      5  C   UNL     1     -34.254  95.524 -15.529  0.00  0.00    +0.000 A 
ATOM      6  C   UNL     1     -33.354  94.634 -14.927  0.00  0.00    +0.000 A 
ATOM      7  C   UNL     1     -35.605  95.164 -15.595  0.00  0.00    +0.000 A 
ATOM      8  C   UNL     1     -33.803  93.437 -14.364  0.00  0.00    +0.000 A 
ATOM      9  C   UNL     1     -36.061  93.966 -15.047  0.00  0.00    +0.000 A 
ATOM     10  C   UNL     1     -35.154  93.114 -14.431  0.00  0.00    +0.000 A 
ENDROOT
BRANCH   3  11
ATOM     11  C   UNL     1     -30.058  96.185 -15.334  0.00  0.00    +0.000 A 
ATOM     12  C   UNL     1     -29.506  97.450 -15.614  0.00  0.00    +0.000 A 
ATOM     13  C   UNL     1     -29.259  95.217 -14.697  0.00  0.00    +0.000 A 
ATOM     14  C   UNL     1     -27.944  95.516 -14.359  0.00  0.00    +0.000 A 
ATOM     15  C   UNL     1     -28.183  97.736 -15.271  0.00  0.00    +0.000 A 
ATOM     16  C   UNL     1     -27.404  96.769 -14.644  0.00  0.00    +0.000 A 
BRANCH  14  17
ATOM     17  O   UNL     1     -27.137  94.604 -13.733  0.00  0.00    +0.000 OA
ATOM     18  H   UNL     1     -26.713  94.053 -14.414  0.00  0.00    +0.000 HD
ENDBRANCH  14  17
BRANCH  15  19
ATOM     19  O   UNL     1     -27.644  98.960 -15.544  0.00  0.00    +0.000 OA
ATOM     20  H   UNL     1     -26.906  99.133 -14.940  0.00  0.00    +0.000 HD
ENDBRANCH  15  19
BRANCH  16  21
ATOM     21  O   UNL     1     -26.107  97.029 -14.296  0.00  0.00    +0.000 OA
ATOM     22  H   UNL     1     -26.161  97.801 -13.701  0.00  0.00    +0.000 HD
ENDBRANCH  16  21
ENDBRANCH   3  11
BRANCH   7  23
ATOM     23  O   UNL     1     -36.480  96.015 -16.210  0.00  0.00    +0.000 OA
ATOM     24  H   UNL     1     -36.540  95.777 -17.150  0.00  0.00    +0.000 HD
ENDBRANCH   7  23
BRANCH  10  25
ATOM     25  O   UNL     1     -35.633  91.952 -13.903  0.00  0.00    +0.000 OA
ATOM     26  H   UNL     1     -35.501  91.236 -14.547  0.00  0.00    +0.000 HD
ENDBRANCH  10  25
BRANCH   2  27
ATOM     27  O   UNL     1     -32.444  97.655 -14.269  0.00  0.00    +0.000 OA
BRANCH  27  29
ATOM     28  O   UNL     1     -32.322  99.901 -14.729  0.00  0.00    +0.000 OA
ATOM     29  C   UNL     1     -32.775  98.955 -14.105  0.00  0.00    +0.000 C 
BRANCH  29  30
ATOM     30  C   UNL     1     -33.763  99.087 -13.006  0.00  0.00    +0.000 A 
ATOM     31  C   UNL     1     -34.945  99.800 -13.265  0.00  0.00    +0.000 A 
ATOM     32  C   UNL     1     -33.544  98.514 -11.741  0.00  0.00    +0.000 A 
ATOM     33  C   UNL     1     -34.499  98.669 -10.738  0.00  0.00    +0.000 A 
ATOM     34  C   UNL     1     -35.884  99.946 -12.251  0.00  0.00    +0.000 A 
ATOM     35  C   UNL     1     -35.663  99.389 -10.992  0.00  0.00    +0.000 A 
BRANCH  33  36
ATOM     36  O   UNL     1     -34.301  98.121  -9.502  0.00  0.00    +0.000 OA
ATOM     37  H   UNL     1     -34.183  97.163  -9.586  0.00  0.00    +0.000 HD
ENDBRANCH  33  36
BRANCH  34  38
ATOM     38  O   UNL     1     -37.050 100.636 -12.446  0.00  0.00    +0.000 OA
ATOM     39  H   UNL     1     -37.513 100.711 -11.593  0.00  0.00    +0.000 HD
ENDBRANCH  34  38
BRANCH  35  40
ATOM     40  O   UNL     1     -36.610  99.554 -10.018  0.00  0.00    +0.000 OA
ATOM     41  H   UNL     1     -37.074  98.696  -9.969  0.00  0.00    +0.000 HD
ENDBRANCH  35  40
ENDBRANCH  29  30
ENDBRANCH  27  29
ENDBRANCH   2  27
TORSDOF 12
ENDMDL
