MODEL 1
REMARK VINA RESULT:      -6.7      0.000      0.000
REMARK  Name = Estradiol.pdbqt.pdb
REMARK  2 active torsions:
REMARK  status: ('A' for Active; 'I' for Inactive)
REMARK    1  A    between atoms: C_5  and  O_19
REMARK    2  A    between atoms: C_18  and  O_21
REMARK                            x       y       z     vdW  Elec       q    Type
REMARK                         _______ _______ _______ _____ _____    ______ ____
ROOT
ATOM      1  C   UNL     1     -36.636 100.508  14.807  0.00  0.00    +0.000 C 
ATOM      2  C   UNL     1     -35.227 100.760  14.079  0.00  0.00    +0.000 C 
ATOM      3  C   UNL     1     -33.957 100.352  14.700  0.00  0.00    +0.000 A 
ATOM      4  C   UNL     1     -33.797  99.462  15.914  0.00  0.00    +0.000 A 
ATOM      5  C   UNL     1     -37.522  99.981  13.659  0.00  0.00    +0.000 C 
ATOM      6  C   UNL     1     -36.376  99.524  15.859  0.00  0.00    +0.000 C 
ATOM      7  C   UNL     1     -35.439 100.552  12.678  0.00  0.00    +0.000 C 
ATOM      8  C   UNL     1     -35.056  99.042  16.411  0.00  0.00    +0.000 C 
ATOM      9  C   UNL     1     -36.835 100.044  12.417  0.00  0.00    +0.000 C 
ATOM     10  C   UNL     1     -32.699 100.734  14.168  0.00  0.00    +0.000 A 
ATOM     11  C   UNL     1     -37.174 101.864  15.334  0.00  0.00    +0.000 C 
ATOM     12  C   UNL     1     -32.475  99.072  16.508  0.00  0.00    +0.000 A 
ATOM     13  C   UNL     1     -31.372 100.329  14.761  0.00  0.00    +0.000 A 
ATOM     14  C   UNL     1     -31.250  99.513  15.923  0.00  0.00    +0.000 A 
ATOM     15  C   UNL     1     -32.412  98.273  17.650  0.00  0.00    +0.000 A 
ATOM     16  C   UNL     1     -30.017  99.171  16.463  0.00  0.00    +0.000 A 
ATOM     17  C   UNL     1     -31.177  97.925  18.198  0.00  0.00    +0.000 A 
ATOM     18  C   UNL     1     -29.998  98.376  17.603  0.00  0.00    +0.000 A 
ENDROOT
BRANCH   5  19
ATOM     19  O   UNL     1     -38.596  99.143  13.867  0.00  0.00    +0.000 OA
ATOM     20  H   UNL     1     -39.175  99.470  14.579  0.00  0.00    +0.000 HD
ENDBRANCH   5  19
BRANCH  18  21
ATOM     21  O   UNL     1     -28.785  98.044  18.136  0.00  0.00    +0.000 OA
ATOM     22  H   UNL     1     -28.094  98.264  17.487  0.00  0.00    +0.000 HD
ENDBRANCH  18  21
TORSDOF 2
ENDMDL
MODEL 2
REMARK VINA RESULT:      -6.6     16.070     17.664
REMARK  Name = Estradiol.pdbqt.pdb
REMARK  2 active torsions:
REMARK  status: ('A' for Active; 'I' for Inactive)
REMARK    1  A    between atoms: C_5  and  O_19
REMARK    2  A    between atoms: C_18  and  O_21
REMARK                            x       y       z     vdW  Elec       q    Type
REMARK                         _______ _______ _______ _____ _____    ______ ____
ROOT
ATOM      1  C   UNL     1     -26.195 107.353   0.186  0.00  0.00    +0.000 C 
ATOM      2  C   UNL     1     -25.537 106.119  -0.604  0.00  0.00    +0.000 C 
ATOM      3  C   UNL     1     -24.996 104.952   0.109  0.00  0.00    +0.000 A 
ATOM      4  C   UNL     1     -25.190 104.626   1.574  0.00  0.00    +0.000 A 
ATOM      5  C   UNL     1     -27.463 107.649  -0.644  0.00  0.00    +0.000 C 
ATOM      6  C   UNL     1     -26.470 106.866   1.538  0.00  0.00    +0.000 C 
ATOM      7  C   UNL     1     -26.300 105.938  -1.803  0.00  0.00    +0.000 C 
ATOM      8  C   UNL     1     -25.985 105.608   2.217  0.00  0.00    +0.000 C 
ATOM      9  C   UNL     1     -27.499 106.850  -1.818  0.00  0.00    +0.000 C 
ATOM     10  C   UNL     1     -24.242 103.947  -0.550  0.00  0.00    +0.000 A 
ATOM     11  C   UNL     1     -25.217 108.556   0.137  0.00  0.00    +0.000 C 
ATOM     12  C   UNL     1     -24.617 103.417   2.255  0.00  0.00    +0.000 A 
ATOM     13  C   UNL     1     -23.679 102.726   0.135  0.00  0.00    +0.000 A 
ATOM     14  C   UNL     1     -23.852 102.458   1.524  0.00  0.00    +0.000 A 
ATOM     15  C   UNL     1     -24.814 103.204   3.620  0.00  0.00    +0.000 A 
ATOM     16  C   UNL     1     -23.306 101.338   2.137  0.00  0.00    +0.000 A 
ATOM     17  C   UNL     1     -24.268 102.081   4.242  0.00  0.00    +0.000 A 
ATOM     18  C   UNL     1     -23.523 101.164   3.499  0.00  0.00    +0.000 A 
ENDROOT
BRANCH   5  19
ATOM     19  O   UNL     1     -28.595 108.219  -0.102  0.00  0.00    +0.000 OA
ATOM     20  H   UNL     1     -28.651 109.171  -0.305  0.00  0.00    +0.000 HD
ENDBRANCH   5  19
BRANCH  18  21
ATOM     21  O   UNL     1     -22.981 100.064   4.102  0.00  0.00    +0.000 OA
ATOM     22  H   UNL     1     -23.382  99.969   4.984  0.00  0.00    +0.000 HD
ENDBRANCH  18  21
TORSDOF 2
ENDMDL
MODEL 3
REMARK VINA RESULT:      -6.2     13.461     15.311
REMARK  Name = Estradiol.pdbqt.pdb
REMARK  2 active torsions:
REMARK  status: ('A' for Active; 'I' for Inactive)
REMARK    1  A    between atoms: C_5  and  O_19
REMARK    2  A    between atoms: C_18  and  O_21
REMARK                            x       y       z     vdW  Elec       q    Type
REMARK                         _______ _______ _______ _____ _____    ______ ____
ROOT
ATOM      1  C   UNL     1     -42.794 101.480   2.256  0.00  0.00    +0.000 C 
ATOM      2  C   UNL     1     -41.576 101.371   3.296  0.00  0.00    +0.000 C 
ATOM      3  C   UNL     1     -40.268 101.983   3.015  0.00  0.00    +0.000 A 
ATOM      4  C   UNL     1     -39.956 102.961   1.903  0.00  0.00    +0.000 A 
ATOM      5  C   UNL     1     -43.993 101.811   3.170  0.00  0.00    +0.000 C 
ATOM      6  C   UNL     1     -42.439 102.555   1.329  0.00  0.00    +0.000 C 
ATOM      7  C   UNL     1     -42.141 101.460   4.610  0.00  0.00    +0.000 C 
ATOM      8  C   UNL     1     -41.109 103.241   1.128  0.00  0.00    +0.000 C 
ATOM      9  C   UNL     1     -43.616 101.761   4.539  0.00  0.00    +0.000 C 
ATOM     10  C   UNL     1     -39.129 101.737   3.824  0.00  0.00    +0.000 A 
ATOM     11  C   UNL     1     -42.992 100.101   1.574  0.00  0.00    +0.000 C 
ATOM     12  C   UNL     1     -38.601 103.560   1.659  0.00  0.00    +0.000 A 
ATOM     13  C   UNL     1     -37.772 102.351   3.583  0.00  0.00    +0.000 A 
ATOM     14  C   UNL     1     -37.498 103.249   2.510  0.00  0.00    +0.000 A 
ATOM     15  C   UNL     1     -38.386 104.432   0.591  0.00  0.00    +0.000 A 
ATOM     16  C   UNL     1     -36.235 103.785   2.296  0.00  0.00    +0.000 A 
ATOM     17  C   UNL     1     -37.120 104.974   0.370  0.00  0.00    +0.000 A 
ATOM     18  C   UNL     1     -36.062 104.646   1.219  0.00  0.00    +0.000 A 
ENDROOT
BRANCH   5  19
ATOM     19  O   UNL     1     -45.096 102.511   2.733  0.00  0.00    +0.000 OA
ATOM     20  H   UNL     1     -45.063 103.445   3.007  0.00  0.00    +0.000 HD
ENDBRANCH   5  19
BRANCH  18  21
ATOM     21  O   UNL     1     -34.818 105.169   1.006  0.00  0.00    +0.000 OA
ATOM     22  H   UNL     1     -34.723 105.969   1.554  0.00  0.00    +0.000 HD
ENDBRANCH  18  21
TORSDOF 2
ENDMDL
MODEL 4
REMARK VINA RESULT:      -5.9     12.256     14.637
REMARK  Name = Estradiol.pdbqt.pdb
REMARK  2 active torsions:
REMARK  status: ('A' for Active; 'I' for Inactive)
REMARK    1  A    between atoms: C_5  and  O_19
REMARK    2  A    between atoms: C_18  and  O_21
REMARK                            x       y       z     vdW  Elec       q    Type
REMARK                         _______ _______ _______ _____ _____    ______ ____
ROOT
ATOM      1  C   UNL     1     -44.921 102.768   4.138  0.00  0.00    +0.000 C 
ATOM      2  C   UNL     1     -44.048 102.097   2.970  0.00  0.00    +0.000 C 
ATOM      3  C   UNL     1     -42.578 102.163   2.973  0.00  0.00    +0.000 A 
ATOM      4  C   UNL     1     -41.703 102.614   4.123  0.00  0.00    +0.000 A 
ATOM      5  C   UNL     1     -45.977 101.683   4.439  0.00  0.00    +0.000 C 
ATOM      6  C   UNL     1     -43.993 103.017   5.243  0.00  0.00    +0.000 C 
ATOM      7  C   UNL     1     -44.709 100.881   2.602  0.00  0.00    +0.000 C 
ATOM      8  C   UNL     1     -42.484 102.979   5.249  0.00  0.00    +0.000 C 
ATOM      9  C   UNL     1     -45.873 100.605   3.519  0.00  0.00    +0.000 C 
ATOM     10  C   UNL     1     -41.800 101.749   1.862  0.00  0.00    +0.000 A 
ATOM     11  C   UNL     1     -45.597 104.049   3.583  0.00  0.00    +0.000 C 
ATOM     12  C   UNL     1     -40.204 102.661   4.078  0.00  0.00    +0.000 A 
ATOM     13  C   UNL     1     -40.292 101.786   1.824  0.00  0.00    +0.000 A 
ATOM     14  C   UNL     1     -39.493 102.243   2.912  0.00  0.00    +0.000 A 
ATOM     15  C   UNL     1     -39.469 103.121   5.171  0.00  0.00    +0.000 A 
ATOM     16  C   UNL     1     -38.107 102.288   2.846  0.00  0.00    +0.000 A 
ATOM     17  C   UNL     1     -38.076 103.168   5.111  0.00  0.00    +0.000 A 
ATOM     18  C   UNL     1     -37.411 102.754   3.955  0.00  0.00    +0.000 A 
ENDROOT
BRANCH   5  19
ATOM     19  O   UNL     1     -46.581 101.548   5.670  0.00  0.00    +0.000 OA
ATOM     20  H   UNL     1     -46.424 100.666   6.054  0.00  0.00    +0.000 HD
ENDBRANCH   5  19
BRANCH  18  21
ATOM     21  O   UNL     1     -36.048 102.803   3.888  0.00  0.00    +0.000 OA
ATOM     22  H   UNL     1     -35.749 103.631   4.304  0.00  0.00    +0.000 HD
ENDBRANCH  18  21
TORSDOF 2
ENDMDL
MODEL 5
REMARK VINA RESULT:      -5.8     19.684     21.394
REMARK  Name = Estradiol.pdbqt.pdb
REMARK  2 active torsions:
REMARK  status: ('A' for Active; 'I' for Inactive)
REMARK    1  A    between atoms: C_5  and  O_19
REMARK    2  A    between atoms: C_18  and  O_21
REMARK                            x       y       z     vdW  Elec       q    Type
REMARK                         _______ _______ _______ _____ _____    ______ ____
ROOT
ATOM      1  C   UNL     1     -18.214  90.776   5.888  0.00  0.00    +0.000 C 
ATOM      2  C   UNL     1     -18.307  90.673   4.288  0.00  0.00    +0.000 C 
ATOM      3  C   UNL     1     -19.233  89.738   3.630  0.00  0.00    +0.000 A 
ATOM      4  C   UNL     1     -20.351  88.966   4.296  0.00  0.00    +0.000 A 
ATOM      5  C   UNL     1     -18.170  92.299   6.128  0.00  0.00    +0.000 C 
ATOM      6  C   UNL     1     -19.419  90.126   6.404  0.00  0.00    +0.000 C 
ATOM      7  C   UNL     1     -18.143  92.001   3.775  0.00  0.00    +0.000 C 
ATOM      8  C   UNL     1     -20.416  89.252   5.683  0.00  0.00    +0.000 C 
ATOM      9  C   UNL     1     -18.091  93.005   4.898  0.00  0.00    +0.000 C 
ATOM     10  C   UNL     1     -19.195  89.494   2.233  0.00  0.00    +0.000 A 
ATOM     11  C   UNL     1     -16.892  90.111   6.354  0.00  0.00    +0.000 C 
ATOM     12  C   UNL     1     -21.274  88.024   3.578  0.00  0.00    +0.000 A 
ATOM     13  C   UNL     1     -20.132  88.556   1.513  0.00  0.00    +0.000 A 
ATOM     14  C   UNL     1     -21.159  87.818   2.170  0.00  0.00    +0.000 A 
ATOM     15  C   UNL     1     -22.261  87.323   4.271  0.00  0.00    +0.000 A 
ATOM     16  C   UNL     1     -21.996  86.945   1.488  0.00  0.00    +0.000 A 
ATOM     17  C   UNL     1     -23.105  86.443   3.592  0.00  0.00    +0.000 A 
ATOM     18  C   UNL     1     -22.965  86.263   2.215  0.00  0.00    +0.000 A 
ENDROOT
BRANCH   5  19
ATOM     19  O   UNL     1     -18.624  92.887   7.289  0.00  0.00    +0.000 OA
ATOM     20  H   UNL     1     -19.583  92.766   7.403  0.00  0.00    +0.000 HD
ENDBRANCH   5  19
BRANCH  18  21
ATOM     21  O   UNL     1     -23.785  85.400   1.545  0.00  0.00    +0.000 OA
ATOM     22  H   UNL     1     -23.247  84.902   0.903  0.00  0.00    +0.000 HD
ENDBRANCH  18  21
TORSDOF 2
ENDMDL
MODEL 6
REMARK VINA RESULT:      -5.7      2.765      3.671
REMARK  Name = Estradiol.pdbqt.pdb
REMARK  2 active torsions:
REMARK  status: ('A' for Active; 'I' for Inactive)
REMARK    1  A    between atoms: C_5  and  O_19
REMARK    2  A    between atoms: C_18  and  O_21
REMARK                            x       y       z     vdW  Elec       q    Type
REMARK                         _______ _______ _______ _____ _____    ______ ____
ROOT
ATOM      1  C   UNL     1     -34.831 102.876  14.157  0.00  0.00    +0.000 C 
ATOM      2  C   UNL     1     -33.953 101.546  13.961  0.00  0.00    +0.000 C 
ATOM      3  C   UNL     1     -32.559 101.469  14.426  0.00  0.00    +0.000 A 
ATOM      4  C   UNL     1     -31.859 102.462  15.329  0.00  0.00    +0.000 A 
ATOM      5  C   UNL     1     -36.187 102.319  14.640  0.00  0.00    +0.000 C 
ATOM      6  C   UNL     1     -34.128 103.680  15.158  0.00  0.00    +0.000 C 
ATOM      7  C   UNL     1     -34.834 100.433  14.152  0.00  0.00    +0.000 C 
ATOM      8  C   UNL     1     -32.727 103.520  15.698  0.00  0.00    +0.000 C 
ATOM      9  C   UNL     1     -36.196 100.899  14.599  0.00  0.00    +0.000 C 
ATOM     10  C   UNL     1     -31.710 100.383  14.094  0.00  0.00    +0.000 A 
ATOM     11  C   UNL     1     -34.987 103.577  12.783  0.00  0.00    +0.000 C 
ATOM     12  C   UNL     1     -30.432 102.338  15.778  0.00  0.00    +0.000 A 
ATOM     13  C   UNL     1     -30.280 100.254  14.558  0.00  0.00    +0.000 A 
ATOM     14  C   UNL     1     -29.635 101.219  15.385  0.00  0.00    +0.000 A 
ATOM     15  C   UNL     1     -29.848 103.314  16.585  0.00  0.00    +0.000 A 
ATOM     16  C   UNL     1     -28.311 101.090  15.782  0.00  0.00    +0.000 A 
ATOM     17  C   UNL     1     -28.518 103.190  16.988  0.00  0.00    +0.000 A 
ATOM     18  C   UNL     1     -27.766 102.085  16.584  0.00  0.00    +0.000 A 
ENDROOT
BRANCH   5  19
ATOM     19  O   UNL     1     -37.052 103.041  15.433  0.00  0.00    +0.000 OA
ATOM     20  H   UNL     1     -37.936 103.112  15.030  0.00  0.00    +0.000 HD
ENDBRANCH   5  19
BRANCH  18  21
ATOM     21  O   UNL     1     -26.462 101.960  16.970  0.00  0.00    +0.000 OA
ATOM     22  H   UNL     1     -25.960 101.567  16.233  0.00  0.00    +0.000 HD
ENDBRANCH  18  21
TORSDOF 2
ENDMDL
MODEL 7
REMARK VINA RESULT:      -5.6     15.116     17.973
REMARK  Name = Estradiol.pdbqt.pdb
REMARK  2 active torsions:
REMARK  status: ('A' for Active; 'I' for Inactive)
REMARK    1  A    between atoms: C_5  and  O_19
REMARK    2  A    between atoms: C_18  and  O_21
REMARK                            x       y       z     vdW  Elec       q    Type
REMARK                         _______ _______ _______ _____ _____    ______ ____
ROOT
ATOM      1  C   UNL     1     -18.286  96.146   3.852  0.00  0.00    +0.000 C 
ATOM      2  C   UNL     1     -18.304  96.458   5.427  0.00  0.00    +0.000 C 
ATOM      3  C   UNL     1     -19.241  97.434   6.007  0.00  0.00    +0.000 A 
ATOM      4  C   UNL     1     -20.426  98.064   5.308  0.00  0.00    +0.000 A 
ATOM      5  C   UNL     1     -18.181  94.607   3.812  0.00  0.00    +0.000 C 
ATOM      6  C   UNL     1     -19.546  96.670   3.322  0.00  0.00    +0.000 C 
ATOM      7  C   UNL     1     -18.052  95.219   6.100  0.00  0.00    +0.000 C 
ATOM      8  C   UNL     1     -20.547  97.592   3.977  0.00  0.00    +0.000 C 
ATOM      9  C   UNL     1     -18.007  94.076   5.118  0.00  0.00    +0.000 C 
ATOM     10  C   UNL     1     -19.145  97.864   7.355  0.00  0.00    +0.000 A 
ATOM     11  C   UNL     1     -17.023  96.796   3.229  0.00  0.00    +0.000 C 
ATOM     12  C   UNL     1     -21.356  99.055   5.946  0.00  0.00    +0.000 A 
ATOM     13  C   UNL     1     -20.088  98.851   7.997  0.00  0.00    +0.000 A 
ATOM     14  C   UNL     1     -21.181  99.452   7.307  0.00  0.00    +0.000 A 
ATOM     15  C   UNL     1     -22.409  99.616   5.224  0.00  0.00    +0.000 A 
ATOM     16  C   UNL     1     -22.024 100.374   7.913  0.00  0.00    +0.000 A 
ATOM     17  C   UNL     1     -23.260 100.543   5.826  0.00  0.00    +0.000 A 
ATOM     18  C   UNL     1     -23.060 100.912   7.158  0.00  0.00    +0.000 A 
ENDROOT
BRANCH   5  19
ATOM     19  O   UNL     1     -18.664  93.851   2.765  0.00  0.00    +0.000 OA
ATOM     20  H   UNL     1     -18.384  94.209   1.904  0.00  0.00    +0.000 HD
ENDBRANCH   5  19
BRANCH  18  21
ATOM     21  O   UNL     1     -23.885 101.822   7.753  0.00  0.00    +0.000 OA
ATOM     22  H   UNL     1     -24.265 102.391   7.061  0.00  0.00    +0.000 HD
ENDBRANCH  18  21
TORSDOF 2
ENDMDL
MODEL 8
REMARK VINA RESULT:      -5.5     12.593     15.291
REMARK  Name = Estradiol.pdbqt.pdb
REMARK  2 active torsions:
REMARK  status: ('A' for Active; 'I' for Inactive)
REMARK    1  A    between atoms: C_5  and  O_19
REMARK    2  A    between atoms: C_18  and  O_21
REMARK                            x       y       z     vdW  Elec       q    Type
REMARK                         _______ _______ _______ _____ _____    ______ ____
ROOT
ATOM      1  C   UNL     1     -40.024 103.299   3.261  0.00  0.00    +0.000 C 
ATOM      2  C   UNL     1     -40.655 103.936   4.593  0.00  0.00    +0.000 C 
ATOM      3  C   UNL     1     -41.993 103.553   5.068  0.00  0.00    +0.000 A 
ATOM      4  C   UNL     1     -42.826 102.392   4.567  0.00  0.00    +0.000 A 
ATOM      5  C   UNL     1     -38.572 102.992   3.686  0.00  0.00    +0.000 C 
ATOM      6  C   UNL     1     -40.821 102.107   2.966  0.00  0.00    +0.000 C 
ATOM      7  C   UNL     1     -39.581 104.097   5.527  0.00  0.00    +0.000 C 
ATOM      8  C   UNL     1     -42.149 101.680   3.545  0.00  0.00    +0.000 C 
ATOM      9  C   UNL     1     -38.309 103.492   4.990  0.00  0.00    +0.000 C 
ATOM     10  C   UNL     1     -42.645 104.239   6.125  0.00  0.00    +0.000 A 
ATOM     11  C   UNL     1     -40.050 104.367   2.136  0.00  0.00    +0.000 C 
ATOM     12  C   UNL     1     -44.189 102.041   5.088  0.00  0.00    +0.000 A 
ATOM     13  C   UNL     1     -44.010 103.875   6.656  0.00  0.00    +0.000 A 
ATOM     14  C   UNL     1     -44.785 102.793   6.145  0.00  0.00    +0.000 A 
ATOM     15  C   UNL     1     -44.907 100.973   4.550  0.00  0.00    +0.000 A 
ATOM     16  C   UNL     1     -46.048 102.490   6.635  0.00  0.00    +0.000 A 
ATOM     17  C   UNL     1     -46.177 100.663   5.038  0.00  0.00    +0.000 A 
ATOM     18  C   UNL     1     -46.733 101.421   6.070  0.00  0.00    +0.000 A 
ENDROOT
BRANCH   5  19
ATOM     19  O   UNL     1     -37.821 101.988   3.114  0.00  0.00    +0.000 OA
ATOM     20  H   UNL     1     -37.572 101.309   3.766  0.00  0.00    +0.000 HD
ENDBRANCH   5  19
BRANCH  18  21
ATOM     21  O   UNL     1     -47.977 101.126   6.550  0.00  0.00    +0.000 OA
ATOM     22  H   UNL     1     -47.884 100.465   7.259  0.00  0.00    +0.000 HD
ENDBRANCH  18  21
TORSDOF 2
ENDMDL
MODEL 9
REMARK VINA RESULT:      -5.5     18.948     21.061
REMARK  Name = Estradiol.pdbqt.pdb
REMARK  2 active torsions:
REMARK  status: ('A' for Active; 'I' for Inactive)
REMARK    1  A    between atoms: C_5  and  O_19
REMARK    2  A    between atoms: C_18  and  O_21
REMARK                            x       y       z     vdW  Elec       q    Type
REMARK                         _______ _______ _______ _____ _____    ______ ____
ROOT
ATOM      1  C   UNL     1     -52.107  95.069   4.320  0.00  0.00    +0.000 C 
ATOM      2  C   UNL     1     -51.451  94.924   2.862  0.00  0.00    +0.000 C 
ATOM      3  C   UNL     1     -50.501  95.921   2.343  0.00  0.00    +0.000 A 
ATOM      4  C   UNL     1     -49.835  97.023   3.138  0.00  0.00    +0.000 A 
ATOM      5  C   UNL     1     -52.005  93.636   4.882  0.00  0.00    +0.000 C 
ATOM      6  C   UNL     1     -51.287  96.048   5.036  0.00  0.00    +0.000 C 
ATOM      7  C   UNL     1     -51.213  93.528   2.649  0.00  0.00    +0.000 C 
ATOM      8  C   UNL     1     -50.240  96.993   4.496  0.00  0.00    +0.000 C 
ATOM      9  C   UNL     1     -51.520  92.737   3.895  0.00  0.00    +0.000 C 
ATOM     10  C   UNL     1     -50.062  95.916   0.994  0.00  0.00    +0.000 A 
ATOM     11  C   UNL     1     -53.592  95.489   4.160  0.00  0.00    +0.000 C 
ATOM     12  C   UNL     1     -48.868  98.016   2.561  0.00  0.00    +0.000 A 
ATOM     13  C   UNL     1     -49.080  96.907   0.421  0.00  0.00    +0.000 A 
ATOM     14  C   UNL     1     -48.489  97.955   1.186  0.00  0.00    +0.000 A 
ATOM     15  C   UNL     1     -48.321  99.025   3.354  0.00  0.00    +0.000 A 
ATOM     16  C   UNL     1     -47.603  98.869   0.631  0.00  0.00    +0.000 A 
ATOM     17  C   UNL     1     -47.431  99.947   2.803  0.00  0.00    +0.000 A 
ATOM     18  C   UNL     1     -47.082  99.861   1.454  0.00  0.00    +0.000 A 
ENDROOT
BRANCH   5  19
ATOM     19  O   UNL     1     -51.924  93.365   6.231  0.00  0.00    +0.000 OA
ATOM     20  H   UNL     1     -51.495  94.091   6.720  0.00  0.00    +0.000 HD
ENDBRANCH   5  19
BRANCH  18  21
ATOM     21  O   UNL     1     -46.215 100.763   0.906  0.00  0.00    +0.000 OA
ATOM     22  H   UNL     1     -46.726 101.391   0.365  0.00  0.00    +0.000 HD
ENDBRANCH  18  21
TORSDOF 2
ENDMDL
