MODEL 1
REMARK VINA RESULT:      -7.1      0.000      0.000
REMARK  Name = 
REMARK  11 active torsions:
REMARK  status: ('A' for Active; 'I' for Inactive)
REMARK    1  A    between atoms: O_1  and  C_16
REMARK    2  A    between atoms: O_1  and  C_22
REMARK    3  A    between atoms: O_6  and  C_24
REMARK    4  A    between atoms: O_8  and  C_26
REMARK    5  A    between atoms: O_11  and  C_36
REMARK    6  A    between atoms: O_11  and  C_41
REMARK    7  A    between atoms: O_12  and  C_37
REMARK    8  A    between atoms: O_12  and  C_42
REMARK    9  A    between atoms: O_13  and  C_39
REMARK   10  A    between atoms: C_17  and  C_23
REMARK   11  A    between atoms: C_35  and  C_40
REMARK                            x       y       z     vdW  Elec       q    Type
REMARK                         _______ _______ _______ _____ _____    ______ ____
ROOT
ATOM      1  O   UNL     1     -34.693 100.945  12.841  0.00  0.00    +0.000 OA
ATOM      2  O   UNL     1     -36.690 100.440  11.835  0.00  0.00    +0.000 OA
ATOM      3  O   UNL     1     -38.036  98.443  20.143  0.00  0.00    +0.000 OA
ATOM      4  O   UNL     1     -40.060  98.529  18.834  0.00  0.00    +0.000 OA
ATOM      5  C   UNL     1     -35.295 100.621  15.055  0.00  0.00    +0.000 C 
ATOM      6  C   UNL     1     -36.314  99.917  14.179  0.00  0.00    +0.000 C 
ATOM      7  C   UNL     1     -35.149  99.897  16.387  0.00  0.00    +0.000 C 
ATOM      8  C   UNL     1     -37.725 100.091  14.740  0.00  0.00    +0.000 C 
ATOM      9  C   UNL     1     -36.519  99.573  16.982  0.00  0.00    +0.000 A 
ATOM     10  C   UNL     1     -37.723  99.624  16.206  0.00  0.00    +0.000 A 
ATOM     11  C   UNL     1     -34.109 100.668  14.125  0.00  0.00    +0.000 C 
ATOM     12  C   UNL     1     -35.982 100.474  12.828  0.00  0.00    +0.000 C 
ATOM     13  C   UNL     1     -36.583  99.174  18.331  0.00  0.00    +0.000 A 
ATOM     14  C   UNL     1     -38.955  99.277  16.797  0.00  0.00    +0.000 A 
ATOM     15  C   UNL     1     -37.811  98.844  18.864  0.00  0.00    +0.000 A 
ATOM     16  C   UNL     1     -38.962  98.893  18.119  0.00  0.00    +0.000 A 
ATOM     17  C   UNL     1     -39.466  98.247  20.118  0.00  0.00    +0.000 C 
ENDROOT
BRANCH   8  18
ATOM     18  C   UNL     1     -38.326 101.486  14.555  0.00  0.00    +0.000 A 
ATOM     19  C   UNL     1     -37.712 102.653  15.046  0.00  0.00    +0.000 A 
ATOM     20  C   UNL     1     -39.536 101.624  13.854  0.00  0.00    +0.000 A 
ATOM     21  C   UNL     1     -40.096 102.882  13.632  0.00  0.00    +0.000 A 
ATOM     22  C   UNL     1     -38.267 103.926  14.854  0.00  0.00    +0.000 A 
ATOM     23  C   UNL     1     -39.463 104.028  14.142  0.00  0.00    +0.000 A 
BRANCH  21  24
ATOM     24  O   UNL     1     -41.260 103.126  12.941  0.00  0.00    +0.000 OA
ATOM     25  C   UNL     1     -42.460 102.631  13.531  0.00  0.00    +0.000 C 
ENDBRANCH  21  24
BRANCH  22  26
ATOM     26  O   UNL     1     -37.513 104.925  15.408  0.00  0.00    +0.000 OA
ATOM     27  C   UNL     1     -36.306 105.291  14.755  0.00  0.00    +0.000 C 
ENDBRANCH  22  26
BRANCH  23  28
ATOM     28  O   UNL     1     -40.064 105.238  13.898  0.00  0.00    +0.000 OA
ATOM     29  H   UNL     1     -39.929 105.398  12.944  0.00  0.00    +0.000 HD
ENDBRANCH  23  28
ENDBRANCH   8  18
BRANCH   7  30
ATOM     30  O   UNL     1     -34.488  98.648  16.179  0.00  0.00    +0.000 OA
BRANCH  30  34
ATOM     31  O   UNL     1     -33.061  99.710  17.696  0.00  0.00    +0.000 OA
ATOM     32  O   UNL     1     -29.421  99.551  18.198  0.00  0.00    +0.000 OA
ATOM     33  O   UNL     1     -30.379 100.796  19.964  0.00  0.00    +0.000 OA
ATOM     34  C   UNL     1     -33.275  98.522  16.931  0.00  0.00    +0.000 C 
ATOM     35  C   UNL     1     -32.140  98.273  15.911  0.00  0.00    +0.000 C 
ATOM     36  C   UNL     1     -30.649  99.579  17.462  0.00  0.00    +0.000 C 
ATOM     37  C   UNL     1     -30.763  98.329  16.589  0.00  0.00    +0.000 C 
ATOM     38  C   UNL     1     -31.836  99.639  18.420  0.00  0.00    +0.000 C 
ATOM     39  C   UNL     1     -31.646 100.862  19.311  0.00  0.00    +0.000 C 
ATOM     40  C   UNL     1     -29.309 100.715  19.022  0.00  0.00    +0.000 C 
ATOM     41  C   UNL     1     -28.008 100.617  19.796  0.00  0.00    +0.000 C 
BRANCH  35  42
ATOM     42  O   UNL     1     -32.333  96.988  15.296  0.00  0.00    +0.000 OA
ATOM     43  H   UNL     1     -33.064  97.101  14.659  0.00  0.00    +0.000 HD
ENDBRANCH  35  42
BRANCH  37  44
ATOM     44  O   UNL     1     -29.724  98.370  15.598  0.00  0.00    +0.000 OA
ATOM     45  H   UNL     1     -28.938  97.970  16.018  0.00  0.00    +0.000 HD
ENDBRANCH  37  44
ENDBRANCH  30  34
ENDBRANCH   7  30
TORSDOF 8
ENDMDL
MODEL 2
REMARK VINA RESULT:      -7.0      2.753      7.339
REMARK  Name = 
REMARK  11 active torsions:
REMARK  status: ('A' for Active; 'I' for Inactive)
REMARK    1  A    between atoms: O_1  and  C_16
REMARK    2  A    between atoms: O_1  and  C_22
REMARK    3  A    between atoms: O_6  and  C_24
REMARK    4  A    between atoms: O_8  and  C_26
REMARK    5  A    between atoms: O_11  and  C_36
REMARK    6  A    between atoms: O_11  and  C_41
REMARK    7  A    between atoms: O_12  and  C_37
REMARK    8  A    between atoms: O_12  and  C_42
REMARK    9  A    between atoms: O_13  and  C_39
REMARK   10  A    between atoms: C_17  and  C_23
REMARK   11  A    between atoms: C_35  and  C_40
REMARK                            x       y       z     vdW  Elec       q    Type
REMARK                         _______ _______ _______ _____ _____    ______ ____
ROOT
ATOM      1  O   UNL     1     -31.330  97.998  17.493  0.00  0.00    +0.000 OA
ATOM      2  O   UNL     1     -30.369  98.256  15.427  0.00  0.00    +0.000 OA
ATOM      3  O   UNL     1     -37.996 102.260  14.637  0.00  0.00    +0.000 OA
ATOM      4  O   UNL     1     -36.467 102.739  12.835  0.00  0.00    +0.000 OA
ATOM      5  C   UNL     1     -33.202  99.331  17.206  0.00  0.00    +0.000 C 
ATOM      6  C   UNL     1     -32.651  98.988  15.835  0.00  0.00    +0.000 C 
ATOM      7  C   UNL     1     -34.713  99.518  17.139  0.00  0.00    +0.000 C 
ATOM      8  C   UNL     1     -32.737 100.191  14.897  0.00  0.00    +0.000 C 
ATOM      9  C   UNL     1     -35.099 100.405  15.957  0.00  0.00    +0.000 A 
ATOM     10  C   UNL     1     -34.192 100.692  14.885  0.00  0.00    +0.000 A 
ATOM     11  C   UNL     1     -32.651  98.192  18.025  0.00  0.00    +0.000 C 
ATOM     12  C   UNL     1     -31.310  98.419  16.186  0.00  0.00    +0.000 C 
ATOM     13  C   UNL     1     -36.408 100.922  15.910  0.00  0.00    +0.000 A 
ATOM     14  C   UNL     1     -34.615 101.485  13.799  0.00  0.00    +0.000 A 
ATOM     15  C   UNL     1     -36.775 101.692  14.827  0.00  0.00    +0.000 A 
ATOM     16  C   UNL     1     -35.905 101.964  13.802  0.00  0.00    +0.000 A 
ATOM     17  C   UNL     1     -37.792 102.925  13.373  0.00  0.00    +0.000 C 
ENDROOT
BRANCH   8  18
ATOM     18  C   UNL     1     -31.722 101.302  15.178  0.00  0.00    +0.000 A 
ATOM     19  C   UNL     1     -31.988 102.379  16.042  0.00  0.00    +0.000 A 
ATOM     20  C   UNL     1     -30.460 101.247  14.563  0.00  0.00    +0.000 A 
ATOM     21  C   UNL     1     -29.494 102.221  14.822  0.00  0.00    +0.000 A 
ATOM     22  C   UNL     1     -31.042 103.381  16.301  0.00  0.00    +0.000 A 
ATOM     23  C   UNL     1     -29.794 103.289  15.684  0.00  0.00    +0.000 A 
BRANCH  21  24
ATOM     24  O   UNL     1     -28.226 102.247  14.291  0.00  0.00    +0.000 OA
ATOM     25  C   UNL     1     -27.297 101.307  14.826  0.00  0.00    +0.000 C 
ENDBRANCH  21  24
BRANCH  22  26
ATOM     26  O   UNL     1     -31.500 104.334  17.169  0.00  0.00    +0.000 OA
ATOM     27  C   UNL     1     -32.307 105.380  16.647  0.00  0.00    +0.000 C 
ENDBRANCH  22  26
BRANCH  23  28
ATOM     28  O   UNL     1     -28.807 104.220  15.896  0.00  0.00    +0.000 OA
ATOM     29  H   UNL     1     -29.270 104.998  16.263  0.00  0.00    +0.000 HD
ENDBRANCH  23  28
ENDBRANCH   8  18
BRANCH   7  30
ATOM     30  O   UNL     1     -35.339  98.252  16.922  0.00  0.00    +0.000 OA
BRANCH  30  34
ATOM     31  O   UNL     1     -36.457  99.032  18.821  0.00  0.00    +0.000 OA
ATOM     32  O   UNL     1     -37.877  97.305  21.742  0.00  0.00    +0.000 OA
ATOM     33  O   UNL     1     -38.512  99.580  21.820  0.00  0.00    +0.000 OA
ATOM     34  C   UNL     1     -36.336  97.943  17.904  0.00  0.00    +0.000 C 
ATOM     35  C   UNL     1     -35.889  96.638  18.602  0.00  0.00    +0.000 C 
ATOM     36  C   UNL     1     -36.935  97.565  20.695  0.00  0.00    +0.000 C 
ATOM     37  C   UNL     1     -36.778  96.326  19.814  0.00  0.00    +0.000 C 
ATOM     38  C   UNL     1     -37.409  98.738  19.841  0.00  0.00    +0.000 C 
ATOM     39  C   UNL     1     -37.613  99.930  20.770  0.00  0.00    +0.000 C 
ATOM     40  C   UNL     1     -38.032  98.462  22.568  0.00  0.00    +0.000 C 
ATOM     41  C   UNL     1     -39.058  98.137  23.639  0.00  0.00    +0.000 C 
BRANCH  35  42
ATOM     42  O   UNL     1     -35.946  95.556  17.658  0.00  0.00    +0.000 OA
ATOM     43  H   UNL     1     -35.826  94.738  18.178  0.00  0.00    +0.000 HD
ENDBRANCH  35  42
BRANCH  37  44
ATOM     44  O   UNL     1     -36.191  95.278  20.603  0.00  0.00    +0.000 OA
ATOM     45  H   UNL     1     -36.097  94.513  20.004  0.00  0.00    +0.000 HD
ENDBRANCH  37  44
ENDBRANCH  30  34
ENDBRANCH   7  30
TORSDOF 8
ENDMDL
MODEL 3
REMARK VINA RESULT:      -6.6     28.123     32.247
REMARK  Name = 
REMARK  11 active torsions:
REMARK  status: ('A' for Active; 'I' for Inactive)
REMARK    1  A    between atoms: O_1  and  C_16
REMARK    2  A    between atoms: O_1  and  C_22
REMARK    3  A    between atoms: O_6  and  C_24
REMARK    4  A    between atoms: O_8  and  C_26
REMARK    5  A    between atoms: O_11  and  C_36
REMARK    6  A    between atoms: O_11  and  C_41
REMARK    7  A    between atoms: O_12  and  C_37
REMARK    8  A    between atoms: O_12  and  C_42
REMARK    9  A    between atoms: O_13  and  C_39
REMARK   10  A    between atoms: C_17  and  C_23
REMARK   11  A    between atoms: C_35  and  C_40
REMARK                            x       y       z     vdW  Elec       q    Type
REMARK                         _______ _______ _______ _____ _____    ______ ____
ROOT
ATOM      1  O   UNL     1     -29.559  99.497 -14.201  0.00  0.00    +0.000 OA
ATOM      2  O   UNL     1     -27.909  97.982 -13.713  0.00  0.00    +0.000 OA
ATOM      3  O   UNL     1     -34.971  93.072 -14.636  0.00  0.00    +0.000 OA
ATOM      4  O   UNL     1     -32.917  91.808 -14.612  0.00  0.00    +0.000 OA
ATOM      5  C   UNL     1     -31.287  98.030 -14.678  0.00  0.00    +0.000 C 
ATOM      6  C   UNL     1     -30.228  97.275 -13.898  0.00  0.00    +0.000 C 
ATOM      7  C   UNL     1     -32.668  97.453 -14.393  0.00  0.00    +0.000 C 
ATOM      8  C   UNL     1     -30.052  95.860 -14.448  0.00  0.00    +0.000 C 
ATOM      9  C   UNL     1     -32.649  95.928 -14.481  0.00  0.00    +0.000 A 
ATOM     10  C   UNL     1     -31.429  95.175 -14.468  0.00  0.00    +0.000 A 
ATOM     11  C   UNL     1     -30.995  99.447 -14.254  0.00  0.00    +0.000 C 
ATOM     12  C   UNL     1     -29.078  98.236 -13.949  0.00  0.00    +0.000 C 
ATOM     13  C   UNL     1     -33.880  95.247 -14.538  0.00  0.00    +0.000 A 
ATOM     14  C   UNL     1     -31.472  93.766 -14.512  0.00  0.00    +0.000 A 
ATOM     15  C   UNL     1     -33.871  93.869 -14.579  0.00  0.00    +0.000 A 
ATOM     16  C   UNL     1     -32.702  93.150 -14.565  0.00  0.00    +0.000 A 
ATOM     17  C   UNL     1     -34.358  91.765 -14.659  0.00  0.00    +0.000 C 
ENDROOT
BRANCH   8  18
ATOM     18  C   UNL     1     -29.320  95.776 -15.790  0.00  0.00    +0.000 A 
ATOM     19  C   UNL     1     -29.873  96.251 -16.992  0.00  0.00    +0.000 A 
ATOM     20  C   UNL     1     -28.033  95.214 -15.833  0.00  0.00    +0.000 A 
ATOM     21  C   UNL     1     -27.318  95.153 -17.030  0.00  0.00    +0.000 A 
ATOM     22  C   UNL     1     -29.183  96.181 -18.211  0.00  0.00    +0.000 A 
ATOM     23  C   UNL     1     -27.902  95.629 -18.217  0.00  0.00    +0.000 A 
BRANCH  21  24
ATOM     24  O   UNL     1     -26.048  94.645 -17.176  0.00  0.00    +0.000 OA
ATOM     25  C   UNL     1     -25.335  94.375 -15.972  0.00  0.00    +0.000 C 
ENDBRANCH  21  24
BRANCH  22  26
ATOM     26  O   UNL     1     -29.897  96.698 -19.258  0.00  0.00    +0.000 OA
ATOM     27  C   UNL     1     -30.716  95.814 -20.009  0.00  0.00    +0.000 C 
ENDBRANCH  22  26
BRANCH  23  28
ATOM     28  O   UNL     1     -27.154  95.537 -19.364  0.00  0.00    +0.000 OA
ATOM     29  H   UNL     1     -27.696  95.001 -19.976  0.00  0.00    +0.000 HD
ENDBRANCH  23  28
ENDBRANCH   8  18
BRANCH   7  30
ATOM     30  O   UNL     1     -33.053  97.780 -13.057  0.00  0.00    +0.000 OA
BRANCH  30  34
ATOM     31  O   UNL     1     -34.431  99.488 -13.865  0.00  0.00    +0.000 OA
ATOM     32  O   UNL     1     -37.163 101.405 -12.320  0.00  0.00    +0.000 OA
ATOM     33  O   UNL     1     -37.072 101.931 -14.622  0.00  0.00    +0.000 OA
ATOM     34  C   UNL     1     -34.356  98.371 -12.977  0.00  0.00    +0.000 C 
ATOM     35  C   UNL     1     -34.572  98.783 -11.502  0.00  0.00    +0.000 C 
ATOM     36  C   UNL     1     -35.903 100.727 -12.387  0.00  0.00    +0.000 C 
ATOM     37  C   UNL     1     -35.854  99.613 -11.341  0.00  0.00    +0.000 C 
ATOM     38  C   UNL     1     -35.701 100.129 -13.776  0.00  0.00    +0.000 C 
ATOM     39  C   UNL     1     -35.822 101.263 -14.787  0.00  0.00    +0.000 C 
ATOM     40  C   UNL     1     -37.218 102.447 -13.299  0.00  0.00    +0.000 C 
ATOM     41  C   UNL     1     -38.580 103.109 -13.200  0.00  0.00    +0.000 C 
BRANCH  35  42
ATOM     42  O   UNL     1     -34.648  97.599 -10.689  0.00  0.00    +0.000 OA
ATOM     43  H   UNL     1     -34.086  97.773  -9.909  0.00  0.00    +0.000 HD
ENDBRANCH  35  42
BRANCH  37  44
ATOM     44  O   UNL     1     -35.895 100.212 -10.036  0.00  0.00    +0.000 OA
ATOM     45  H   UNL     1     -34.970 100.420  -9.807  0.00  0.00    +0.000 HD
ENDBRANCH  37  44
ENDBRANCH  30  34
ENDBRANCH   7  30
TORSDOF 8
ENDMDL
MODEL 4
REMARK VINA RESULT:      -6.6      2.692      8.512
REMARK  Name = 
REMARK  11 active torsions:
REMARK  status: ('A' for Active; 'I' for Inactive)
REMARK    1  A    between atoms: O_1  and  C_16
REMARK    2  A    between atoms: O_1  and  C_22
REMARK    3  A    between atoms: O_6  and  C_24
REMARK    4  A    between atoms: O_8  and  C_26
REMARK    5  A    between atoms: O_11  and  C_36
REMARK    6  A    between atoms: O_11  and  C_41
REMARK    7  A    between atoms: O_12  and  C_37
REMARK    8  A    between atoms: O_12  and  C_42
REMARK    9  A    between atoms: O_13  and  C_39
REMARK   10  A    between atoms: C_17  and  C_23
REMARK   11  A    between atoms: C_35  and  C_40
REMARK                            x       y       z     vdW  Elec       q    Type
REMARK                         _______ _______ _______ _____ _____    ______ ____
ROOT
ATOM      1  O   UNL     1     -38.553  98.384  18.660  0.00  0.00    +0.000 OA
ATOM      2  O   UNL     1     -37.571  96.526  19.577  0.00  0.00    +0.000 OA
ATOM      3  O   UNL     1     -31.382  99.797  14.495  0.00  0.00    +0.000 OA
ATOM      4  O   UNL     1     -30.580  98.115  16.027  0.00  0.00    +0.000 OA
ATOM      5  C   UNL     1     -36.717  99.277  17.565  0.00  0.00    +0.000 C 
ATOM      6  C   UNL     1     -36.424  97.820  17.868  0.00  0.00    +0.000 C 
ATOM      7  C   UNL     1     -36.000  99.709  16.292  0.00  0.00    +0.000 C 
ATOM      8  C   UNL     1     -34.970  97.635  18.298  0.00  0.00    +0.000 C 
ATOM      9  C   UNL     1     -34.543  99.247  16.306  0.00  0.00    +0.000 A 
ATOM     10  C   UNL     1     -34.064  98.249  17.216  0.00  0.00    +0.000 A 
ATOM     11  C   UNL     1     -38.225  99.271  17.577  0.00  0.00    +0.000 C 
ATOM     12  C   UNL     1     -37.527  97.487  18.828  0.00  0.00    +0.000 C 
ATOM     13  C   UNL     1     -33.659  99.801  15.361  0.00  0.00    +0.000 A 
ATOM     14  C   UNL     1     -32.719  97.832  17.158  0.00  0.00    +0.000 A 
ATOM     15  C   UNL     1     -32.352  99.361  15.342  0.00  0.00    +0.000 A 
ATOM     16  C   UNL     1     -31.896  98.404  16.214  0.00  0.00    +0.000 A 
ATOM     17  C   UNL     1     -30.260  99.004  14.936  0.00  0.00    +0.000 C 
ENDROOT
BRANCH   8  18
ATOM     18  C   UNL     1     -34.645  98.135  19.708  0.00  0.00    +0.000 A 
ATOM     19  C   UNL     1     -34.572  99.501  20.035  0.00  0.00    +0.000 A 
ATOM     20  C   UNL     1     -34.422  97.200  20.732  0.00  0.00    +0.000 A 
ATOM     21  C   UNL     1     -34.160  97.617  22.037  0.00  0.00    +0.000 A 
ATOM     22  C   UNL     1     -34.289  99.944  21.335  0.00  0.00    +0.000 A 
ATOM     23  C   UNL     1     -34.085  98.989  22.331  0.00  0.00    +0.000 A 
BRANCH  21  24
ATOM     24  O   UNL     1     -33.950  96.785  23.113  0.00  0.00    +0.000 OA
ATOM     25  C   UNL     1     -35.079  96.043  23.568  0.00  0.00    +0.000 C 
ENDBRANCH  21  24
BRANCH  22  26
ATOM     26  O   UNL     1     -34.266 101.309  21.440  0.00  0.00    +0.000 OA
ATOM     27  C   UNL     1     -33.148 102.000  20.901  0.00  0.00    +0.000 C 
ENDBRANCH  22  26
BRANCH  23  28
ATOM     28  O   UNL     1     -33.818  99.339  23.631  0.00  0.00    +0.000 OA
ATOM     29  H   UNL     1     -33.406 100.223  23.574  0.00  0.00    +0.000 HD
ENDBRANCH  23  28
ENDBRANCH   8  18
BRANCH   7  30
ATOM     30  O   UNL     1     -36.616  99.085  15.164  0.00  0.00    +0.000 OA
BRANCH  30  34
ATOM     31  O   UNL     1     -36.259 101.237  14.322  0.00  0.00    +0.000 OA
ATOM     32  O   UNL     1     -38.450 103.591  12.538  0.00  0.00    +0.000 OA
ATOM     33  O   UNL     1     -36.247 104.448  12.532  0.00  0.00    +0.000 OA
ATOM     34  C   UNL     1     -36.976 100.015  14.136  0.00  0.00    +0.000 C 
ATOM     35  C   UNL     1     -38.506 100.216  14.230  0.00  0.00    +0.000 C 
ATOM     36  C   UNL     1     -38.098 102.590  13.499  0.00  0.00    +0.000 C 
ATOM     37  C   UNL     1     -38.973 101.351  13.307  0.00  0.00    +0.000 C 
ATOM     38  C   UNL     1     -36.630 102.202  13.342  0.00  0.00    +0.000 C 
ATOM     39  C   UNL     1     -35.802 103.476  13.476  0.00  0.00    +0.000 C 
ATOM     40  C   UNL     1     -37.631 104.752  12.708  0.00  0.00    +0.000 C 
ATOM     41  C   UNL     1     -38.029 105.763  11.649  0.00  0.00    +0.000 C 
BRANCH  35  42
ATOM     42  O   UNL     1     -39.166  98.990  13.873  0.00  0.00    +0.000 OA
ATOM     43  H   UNL     1     -39.437  98.575  14.714  0.00  0.00    +0.000 HD
ENDBRANCH  35  42
BRANCH  37  44
ATOM     44  O   UNL     1     -40.333 101.705  13.606  0.00  0.00    +0.000 OA
ATOM     45  H   UNL     1     -40.800 101.724  12.749  0.00  0.00    +0.000 HD
ENDBRANCH  37  44
ENDBRANCH  30  34
ENDBRANCH   7  30
TORSDOF 8
ENDMDL
MODEL 5
REMARK VINA RESULT:      -6.5     10.992     13.480
REMARK  Name = 
REMARK  11 active torsions:
REMARK  status: ('A' for Active; 'I' for Inactive)
REMARK    1  A    between atoms: O_1  and  C_16
REMARK    2  A    between atoms: O_1  and  C_22
REMARK    3  A    between atoms: O_6  and  C_24
REMARK    4  A    between atoms: O_8  and  C_26
REMARK    5  A    between atoms: O_11  and  C_36
REMARK    6  A    between atoms: O_11  and  C_41
REMARK    7  A    between atoms: O_12  and  C_37
REMARK    8  A    between atoms: O_12  and  C_42
REMARK    9  A    between atoms: O_13  and  C_39
REMARK   10  A    between atoms: C_17  and  C_23
REMARK   11  A    between atoms: C_35  and  C_40
REMARK                            x       y       z     vdW  Elec       q    Type
REMARK                         _______ _______ _______ _____ _____    ______ ____
ROOT
ATOM      1  O   UNL     1     -35.395 104.016   2.501  0.00  0.00    +0.000 OA
ATOM      2  O   UNL     1     -36.295 101.908   2.525  0.00  0.00    +0.000 OA
ATOM      3  O   UNL     1     -41.536 106.418   7.723  0.00  0.00    +0.000 OA
ATOM      4  O   UNL     1     -42.430 104.270   7.085  0.00  0.00    +0.000 OA
ATOM      5  C   UNL     1     -37.034 105.139   3.693  0.00  0.00    +0.000 C 
ATOM      6  C   UNL     1     -37.184 103.654   3.965  0.00  0.00    +0.000 C 
ATOM      7  C   UNL     1     -37.491 105.948   4.900  0.00  0.00    +0.000 C 
ATOM      8  C   UNL     1     -38.659 103.258   4.017  0.00  0.00    +0.000 C 
ATOM      9  C   UNL     1     -38.833 105.437   5.421  0.00  0.00    +0.000 A 
ATOM     10  C   UNL     1     -39.367 104.161   5.042  0.00  0.00    +0.000 A 
ATOM     11  C   UNL     1     -35.584 105.206   3.286  0.00  0.00    +0.000 C 
ATOM     12  C   UNL     1     -36.298 103.066   2.909  0.00  0.00    +0.000 C 
ATOM     13  C   UNL     1     -39.544 106.238   6.335  0.00  0.00    +0.000 A 
ATOM     14  C   UNL     1     -40.591 103.722   5.584  0.00  0.00    +0.000 A 
ATOM     15  C   UNL     1     -40.737 105.765   6.838  0.00  0.00    +0.000 A 
ATOM     16  C   UNL     1     -41.245 104.544   6.475  0.00  0.00    +0.000 A 
ATOM     17  C   UNL     1     -42.609 105.465   7.874  0.00  0.00    +0.000 C 
ENDROOT
BRANCH   8  18
ATOM     18  C   UNL     1     -39.366 103.220   2.660  0.00  0.00    +0.000 A 
ATOM     19  C   UNL     1     -39.363 104.307   1.768  0.00  0.00    +0.000 A 
ATOM     20  C   UNL     1     -40.039 102.050   2.270  0.00  0.00    +0.000 A 
ATOM     21  C   UNL     1     -40.664 101.964   1.026  0.00  0.00    +0.000 A 
ATOM     22  C   UNL     1     -40.002 104.252   0.521  0.00  0.00    +0.000 A 
ATOM     23  C   UNL     1     -40.650 103.071   0.160  0.00  0.00    +0.000 A 
BRANCH  21  24
ATOM     24  O   UNL     1     -41.328 100.861   0.541  0.00  0.00    +0.000 OA
ATOM     25  C   UNL     1     -42.557 100.532   1.182  0.00  0.00    +0.000 C 
ENDBRANCH  21  24
BRANCH  22  26
ATOM     26  O   UNL     1     -39.879 105.414  -0.193  0.00  0.00    +0.000 OA
ATOM     27  C   UNL     1     -38.593 105.762  -0.684  0.00  0.00    +0.000 C 
ENDBRANCH  22  26
BRANCH  23  28
ATOM     28  O   UNL     1     -41.287 102.930  -1.048  0.00  0.00    +0.000 OA
ATOM     29  H   UNL     1     -41.013 103.710  -1.569  0.00  0.00    +0.000 HD
ENDBRANCH  23  28
ENDBRANCH   8  18
BRANCH   7  30
ATOM     30  O   UNL     1     -36.552 105.787   5.964  0.00  0.00    +0.000 OA
BRANCH  30  34
ATOM     31  O   UNL     1     -34.765 107.266   5.671  0.00  0.00    +0.000 OA
ATOM     32  O   UNL     1     -33.029 109.541   7.983  0.00  0.00    +0.000 OA
ATOM     33  O   UNL     1     -32.252 109.947   5.788  0.00  0.00    +0.000 OA
ATOM     34  C   UNL     1     -35.973 107.025   6.395  0.00  0.00    +0.000 C 
ATOM     35  C   UNL     1     -35.728 106.900   7.916  0.00  0.00    +0.000 C 
ATOM     36  C   UNL     1     -33.696 108.345   7.565  0.00  0.00    +0.000 C 
ATOM     37  C   UNL     1     -34.920 108.093   8.446  0.00  0.00    +0.000 C 
ATOM     38  C   UNL     1     -34.137 108.468   6.109  0.00  0.00    +0.000 C 
ATOM     39  C   UNL     1     -32.897 108.782   5.278  0.00  0.00    +0.000 C 
ATOM     40  C   UNL     1     -31.886 109.784   7.158  0.00  0.00    +0.000 C 
ATOM     41  C   UNL     1     -31.238 111.074   7.628  0.00  0.00    +0.000 C 
BRANCH  35  42
ATOM     42  O   UNL     1     -36.994 106.824   8.592  0.00  0.00    +0.000 OA
ATOM     43  H   UNL     1     -36.924 106.069   9.209  0.00  0.00    +0.000 HD
ENDBRANCH  35  42
BRANCH  37  44
ATOM     44  O   UNL     1     -34.469 107.831   9.785  0.00  0.00    +0.000 OA
ATOM     45  H   UNL     1     -34.704 108.622  10.307  0.00  0.00    +0.000 HD
ENDBRANCH  37  44
ENDBRANCH  30  34
ENDBRANCH   7  30
TORSDOF 8
ENDMDL
MODEL 6
REMARK VINA RESULT:      -6.5     13.310     17.750
REMARK  Name = 
REMARK  11 active torsions:
REMARK  status: ('A' for Active; 'I' for Inactive)
REMARK    1  A    between atoms: O_1  and  C_16
REMARK    2  A    between atoms: O_1  and  C_22
REMARK    3  A    between atoms: O_6  and  C_24
REMARK    4  A    between atoms: O_8  and  C_26
REMARK    5  A    between atoms: O_11  and  C_36
REMARK    6  A    between atoms: O_11  and  C_41
REMARK    7  A    between atoms: O_12  and  C_37
REMARK    8  A    between atoms: O_12  and  C_42
REMARK    9  A    between atoms: O_13  and  C_39
REMARK   10  A    between atoms: C_17  and  C_23
REMARK   11  A    between atoms: C_35  and  C_40
REMARK                            x       y       z     vdW  Elec       q    Type
REMARK                         _______ _______ _______ _____ _____    ______ ____
ROOT
ATOM      1  O   UNL     1     -38.111 103.087   4.453  0.00  0.00    +0.000 OA
ATOM      2  O   UNL     1     -35.860 102.815   4.116  0.00  0.00    +0.000 OA
ATOM      3  O   UNL     1     -38.540 106.745  -3.109  0.00  0.00    +0.000 OA
ATOM      4  O   UNL     1     -36.142 106.733  -2.853  0.00  0.00    +0.000 OA
ATOM      5  C   UNL     1     -38.618 104.369   2.592  0.00  0.00    +0.000 C 
ATOM      6  C   UNL     1     -37.283 103.692   2.350  0.00  0.00    +0.000 C 
ATOM      7  C   UNL     1     -39.352 104.580   1.274  0.00  0.00    +0.000 C 
ATOM      8  C   UNL     1     -36.312 104.639   1.645  0.00  0.00    +0.000 C 
ATOM      9  C   UNL     1     -38.418 105.171   0.220  0.00  0.00    +0.000 A 
ATOM     10  C   UNL     1     -36.992 105.166   0.370  0.00  0.00    +0.000 A 
ATOM     11  C   UNL     1     -39.224 103.442   3.615  0.00  0.00    +0.000 C 
ATOM     12  C   UNL     1     -36.953 103.183   3.721  0.00  0.00    +0.000 C 
ATOM     13  C   UNL     1     -38.986 105.701  -0.955  0.00  0.00    +0.000 A 
ATOM     14  C   UNL     1     -36.175 105.690  -0.653  0.00  0.00    +0.000 A 
ATOM     15  C   UNL     1     -38.146 106.201  -1.927  0.00  0.00    +0.000 A 
ATOM     16  C   UNL     1     -36.782 106.195  -1.781  0.00  0.00    +0.000 A 
ATOM     17  C   UNL     1     -37.263 107.082  -3.691  0.00  0.00    +0.000 C 
ENDROOT
BRANCH   8  18
ATOM     18  C   UNL     1     -35.743 105.753   2.527  0.00  0.00    +0.000 A 
ATOM     19  C   UNL     1     -36.540 106.772   3.078  0.00  0.00    +0.000 A 
ATOM     20  C   UNL     1     -34.368 105.762   2.818  0.00  0.00    +0.000 A 
ATOM     21  C   UNL     1     -33.818 106.739   3.647  0.00  0.00    +0.000 A 
ATOM     22  C   UNL     1     -36.006 107.778   3.898  0.00  0.00    +0.000 A 
ATOM     23  C   UNL     1     -34.639 107.749   4.177  0.00  0.00    +0.000 A 
BRANCH  21  24
ATOM     24  O   UNL     1     -32.494 106.824   4.011  0.00  0.00    +0.000 OA
ATOM     25  C   UNL     1     -31.568 107.100   2.963  0.00  0.00    +0.000 C 
ENDBRANCH  21  24
BRANCH  22  26
ATOM     26  O   UNL     1     -36.949 108.669   4.330  0.00  0.00    +0.000 OA
ATOM     27  C   UNL     1     -37.670 108.357   5.514  0.00  0.00    +0.000 C 
ENDBRANCH  22  26
BRANCH  23  28
ATOM     28  O   UNL     1     -34.041 108.687   4.981  0.00  0.00    +0.000 OA
ATOM     29  H   UNL     1     -34.513 109.521   4.790  0.00  0.00    +0.000 HD
ENDBRANCH  23  28
ENDBRANCH   8  18
BRANCH   7  30
ATOM     30  O   UNL     1     -39.793 103.319   0.768  0.00  0.00    +0.000 OA
BRANCH  30  34
ATOM     31  O   UNL     1     -41.590 102.335   1.895  0.00  0.00    +0.000 OA
ATOM     32  O   UNL     1     -44.865 101.118   0.745  0.00  0.00    +0.000 OA
ATOM     33  O   UNL     1     -44.819 101.060   3.107  0.00  0.00    +0.000 OA
ATOM     34  C   UNL     1     -41.218 103.170   0.796  0.00  0.00    +0.000 C 
ATOM     35  C   UNL     1     -41.632 102.563  -0.564  0.00  0.00    +0.000 C 
ATOM     36  C   UNL     1     -43.455 101.360   0.686  0.00  0.00    +0.000 C 
ATOM     37  C   UNL     1     -43.116 102.169  -0.566  0.00  0.00    +0.000 C 
ATOM     38  C   UNL     1     -43.000 102.127   1.924  0.00  0.00    +0.000 C 
ATOM     39  C   UNL     1     -43.415 101.315   3.146  0.00  0.00    +0.000 C 
ATOM     40  C   UNL     1     -45.191 100.365   1.917  0.00  0.00    +0.000 C 
ATOM     41  C   UNL     1     -46.695 100.165   1.941  0.00  0.00    +0.000 C 
BRANCH  35  42
ATOM     42  O   UNL     1     -41.377 103.522  -1.605  0.00  0.00    +0.000 OA
ATOM     43  H   UNL     1     -40.410 103.515  -1.746  0.00  0.00    +0.000 HD
ENDBRANCH  35  42
BRANCH  37  44
ATOM     44  O   UNL     1     -43.414 101.367  -1.720  0.00  0.00    +0.000 OA
ATOM     45  H   UNL     1     -42.673 100.737  -1.808  0.00  0.00    +0.000 HD
ENDBRANCH  37  44
ENDBRANCH  30  34
ENDBRANCH   7  30
TORSDOF 8
ENDMDL
MODEL 7
REMARK VINA RESULT:      -6.1     11.688     14.899
REMARK  Name = 
REMARK  11 active torsions:
REMARK  status: ('A' for Active; 'I' for Inactive)
REMARK    1  A    between atoms: O_1  and  C_16
REMARK    2  A    between atoms: O_1  and  C_22
REMARK    3  A    between atoms: O_6  and  C_24
REMARK    4  A    between atoms: O_8  and  C_26
REMARK    5  A    between atoms: O_11  and  C_36
REMARK    6  A    between atoms: O_11  and  C_41
REMARK    7  A    between atoms: O_12  and  C_37
REMARK    8  A    between atoms: O_12  and  C_42
REMARK    9  A    between atoms: O_13  and  C_39
REMARK   10  A    between atoms: C_17  and  C_23
REMARK   11  A    between atoms: C_35  and  C_40
REMARK                            x       y       z     vdW  Elec       q    Type
REMARK                         _______ _______ _______ _____ _____    ______ ____
ROOT
ATOM      1  O   UNL     1     -31.760 108.322   3.176  0.00  0.00    +0.000 OA
ATOM      2  O   UNL     1     -31.108 106.616   1.790  0.00  0.00    +0.000 OA
ATOM      3  O   UNL     1     -38.475 103.709   5.271  0.00  0.00    +0.000 OA
ATOM      4  O   UNL     1     -37.732 102.418   3.375  0.00  0.00    +0.000 OA
ATOM      5  C   UNL     1     -33.840 107.521   3.807  0.00  0.00    +0.000 C 
ATOM      6  C   UNL     1     -33.035 106.362   3.252  0.00  0.00    +0.000 C 
ATOM      7  C   UNL     1     -34.817 107.029   4.867  0.00  0.00    +0.000 C 
ATOM      8  C   UNL     1     -33.916 105.444   2.406  0.00  0.00    +0.000 C 
ATOM      9  C   UNL     1     -35.567 105.789   4.381  0.00  0.00    +0.000 A 
ATOM     10  C   UNL     1     -35.128 105.021   3.254  0.00  0.00    +0.000 A 
ATOM     11  C   UNL     1     -32.735 108.458   4.224  0.00  0.00    +0.000 C 
ATOM     12  C   UNL     1     -31.884 107.077   2.612  0.00  0.00    +0.000 C 
ATOM     13  C   UNL     1     -36.706 105.374   5.097  0.00  0.00    +0.000 A 
ATOM     14  C   UNL     1     -35.836 103.863   2.873  0.00  0.00    +0.000 A 
ATOM     15  C   UNL     1     -37.365 104.235   4.687  0.00  0.00    +0.000 A 
ATOM     16  C   UNL     1     -36.942 103.501   3.609  0.00  0.00    +0.000 A 
ATOM     17  C   UNL     1     -38.703 102.557   4.432  0.00  0.00    +0.000 C 
ENDROOT
BRANCH   8  18
ATOM     18  C   UNL     1     -34.307 106.006   1.037  0.00  0.00    +0.000 A 
ATOM     19  C   UNL     1     -35.245 107.041   0.877  0.00  0.00    +0.000 A 
ATOM     20  C   UNL     1     -33.700 105.484  -0.117  0.00  0.00    +0.000 A 
ATOM     21  C   UNL     1     -34.002 105.995  -1.379  0.00  0.00    +0.000 A 
ATOM     22  C   UNL     1     -35.582 107.557  -0.383  0.00  0.00    +0.000 A 
ATOM     23  C   UNL     1     -34.950 107.025  -1.507  0.00  0.00    +0.000 A 
BRANCH  21  24
ATOM     24  O   UNL     1     -33.449 105.571  -2.566  0.00  0.00    +0.000 OA
ATOM     25  C   UNL     1     -33.678 104.209  -2.918  0.00  0.00    +0.000 C 
ENDBRANCH  21  24
BRANCH  22  26
ATOM     26  O   UNL     1     -36.512 108.559  -0.317  0.00  0.00    +0.000 OA
ATOM     27  C   UNL     1     -37.884 108.201  -0.390  0.00  0.00    +0.000 C 
ENDBRANCH  22  26
BRANCH  23  28
ATOM     28  O   UNL     1     -35.212 107.483  -2.774  0.00  0.00    +0.000 OA
ATOM     29  H   UNL     1     -35.031 108.442  -2.737  0.00  0.00    +0.000 HD
ENDBRANCH  23  28
ENDBRANCH   8  18
BRANCH   7  30
ATOM     30  O   UNL     1     -34.095 106.637   6.035  0.00  0.00    +0.000 OA
BRANCH  30  34
ATOM     31  O   UNL     1     -35.478 108.328   6.867  0.00  0.00    +0.000 OA
ATOM     32  O   UNL     1     -35.142 110.622   9.723  0.00  0.00    +0.000 OA
ATOM     33  O   UNL     1     -37.313 110.848   8.816  0.00  0.00    +0.000 OA
ATOM     34  C   UNL     1     -34.519 107.328   7.216  0.00  0.00    +0.000 C 
ATOM     35  C   UNL     1     -33.252 107.935   7.861  0.00  0.00    +0.000 C 
ATOM     36  C   UNL     1     -34.712 109.848   8.597  0.00  0.00    +0.000 C 
ATOM     37  C   UNL     1     -33.615 108.872   9.022  0.00  0.00    +0.000 C 
ATOM     38  C   UNL     1     -35.887 109.068   8.014  0.00  0.00    +0.000 C 
ATOM     39  C   UNL     1     -36.979 110.074   7.665  0.00  0.00    +0.000 C 
ATOM     40  C   UNL     1     -36.173 111.534   9.333  0.00  0.00    +0.000 C 
ATOM     41  C   UNL     1     -36.606 112.303  10.568  0.00  0.00    +0.000 C 
BRANCH  35  42
ATOM     42  O   UNL     1     -32.408 106.871   8.333  0.00  0.00    +0.000 OA
ATOM     43  H   UNL     1     -32.779 106.596   9.194  0.00  0.00    +0.000 HD
ENDBRANCH  35  42
BRANCH  37  44
ATOM     44  O   UNL     1     -32.463 109.631   9.426  0.00  0.00    +0.000 OA
ATOM     45  H   UNL     1     -32.346 110.322   8.746  0.00  0.00    +0.000 HD
ENDBRANCH  37  44
ENDBRANCH  30  34
ENDBRANCH   7  30
TORSDOF 8
ENDMDL
MODEL 8
REMARK VINA RESULT:      -6.1     15.360     18.338
REMARK  Name = 
REMARK  11 active torsions:
REMARK  status: ('A' for Active; 'I' for Inactive)
REMARK    1  A    between atoms: O_1  and  C_16
REMARK    2  A    between atoms: O_1  and  C_22
REMARK    3  A    between atoms: O_6  and  C_24
REMARK    4  A    between atoms: O_8  and  C_26
REMARK    5  A    between atoms: O_11  and  C_36
REMARK    6  A    between atoms: O_11  and  C_41
REMARK    7  A    between atoms: O_12  and  C_37
REMARK    8  A    between atoms: O_12  and  C_42
REMARK    9  A    between atoms: O_13  and  C_39
REMARK   10  A    between atoms: C_17  and  C_23
REMARK   11  A    between atoms: C_35  and  C_40
REMARK                            x       y       z     vdW  Elec       q    Type
REMARK                         _______ _______ _______ _____ _____    ______ ____
ROOT
ATOM      1  O   UNL     1     -22.379 100.498   3.176  0.00  0.00    +0.000 OA
ATOM      2  O   UNL     1     -24.092 100.546   1.652  0.00  0.00    +0.000 OA
ATOM      3  O   UNL     1     -25.056 107.944   6.030  0.00  0.00    +0.000 OA
ATOM      4  O   UNL     1     -26.360 107.849   4.004  0.00  0.00    +0.000 OA
ATOM      5  C   UNL     1     -22.607 102.625   4.064  0.00  0.00    +0.000 C 
ATOM      6  C   UNL     1     -23.901 102.265   3.361  0.00  0.00    +0.000 C 
ATOM      7  C   UNL     1     -22.881 103.563   5.233  0.00  0.00    +0.000 C 
ATOM      8  C   UNL     1     -24.468 103.473   2.615  0.00  0.00    +0.000 C 
ATOM      9  C   UNL     1     -23.819 104.694   4.814  0.00  0.00    +0.000 A 
ATOM     10  C   UNL     1     -24.594 104.640   3.609  0.00  0.00    +0.000 A 
ATOM     11  C   UNL     1     -22.052 101.253   4.354  0.00  0.00    +0.000 C 
ATOM     12  C   UNL     1     -23.494 101.046   2.590  0.00  0.00    +0.000 C 
ATOM     13  C   UNL     1     -23.948 105.806   5.668  0.00  0.00    +0.000 A 
ATOM     14  C   UNL     1     -25.474 105.694   3.292  0.00  0.00    +0.000 A 
ATOM     15  C   UNL     1     -24.822 106.811   5.315  0.00  0.00    +0.000 A 
ATOM     16  C   UNL     1     -25.563 106.757   4.162  0.00  0.00    +0.000 A 
ATOM     17  C   UNL     1     -26.031 108.598   5.192  0.00  0.00    +0.000 C 
ENDROOT
BRANCH   8  18
ATOM     18  C   UNL     1     -23.718 103.852   1.336  0.00  0.00    +0.000 A 
ATOM     19  C   UNL     1     -22.492 104.540   1.346  0.00  0.00    +0.000 A 
ATOM     20  C   UNL     1     -24.260 103.490   0.091  0.00  0.00    +0.000 A 
ATOM     21  C   UNL     1     -23.588 103.785  -1.096  0.00  0.00    +0.000 A 
ATOM     22  C   UNL     1     -21.809 104.867   0.165  0.00  0.00    +0.000 A 
ATOM     23  C   UNL     1     -22.369 104.482  -1.053  0.00  0.00    +0.000 A 
BRANCH  21  24
ATOM     24  O   UNL     1     -24.021 103.457  -2.360  0.00  0.00    +0.000 OA
ATOM     25  C   UNL     1     -25.178 104.143  -2.830  0.00  0.00    +0.000 C 
ENDBRANCH  21  24
BRANCH  22  26
ATOM     26  O   UNL     1     -20.636 105.534   0.396  0.00  0.00    +0.000 OA
ATOM     27  C   UNL     1     -19.434 104.779   0.428  0.00  0.00    +0.000 C 
ENDBRANCH  22  26
BRANCH  23  28
ATOM     28  O   UNL     1     -21.757 104.749  -2.252  0.00  0.00    +0.000 OA
ATOM     29  H   UNL     1     -20.909 104.265  -2.216  0.00  0.00    +0.000 HD
ENDBRANCH  23  28
ENDBRANCH   8  18
BRANCH   7  30
ATOM     30  O   UNL     1     -23.546 102.845   6.273  0.00  0.00    +0.000 OA
BRANCH  30  34
ATOM     31  O   UNL     1     -21.559 103.461   7.340  0.00  0.00    +0.000 OA
ATOM     32  O   UNL     1     -19.853 102.172  10.333  0.00  0.00    +0.000 OA
ATOM     33  O   UNL     1     -18.755 104.139   9.619  0.00  0.00    +0.000 OA
ATOM     34  C   UNL     1     -22.871 102.930   7.535  0.00  0.00    +0.000 C 
ATOM     35  C   UNL     1     -22.841 101.501   8.124  0.00  0.00    +0.000 C 
ATOM     36  C   UNL     1     -20.611 102.110   9.120  0.00  0.00    +0.000 C 
ATOM     37  C   UNL     1     -21.960 101.438   9.380  0.00  0.00    +0.000 C 
ATOM     38  C   UNL     1     -20.842 103.515   8.571  0.00  0.00    +0.000 C 
ATOM     39  C   UNL     1     -19.476 104.167   8.388  0.00  0.00    +0.000 C 
ATOM     40  C   UNL     1     -18.592 102.804  10.098  0.00  0.00    +0.000 C 
ATOM     41  C   UNL     1     -17.847 102.866  11.419  0.00  0.00    +0.000 C 
BRANCH  35  42
ATOM     42  O   UNL     1     -24.182 101.095   8.444  0.00  0.00    +0.000 OA
ATOM     43  H   UNL     1     -24.286 101.241   9.405  0.00  0.00    +0.000 HD
ENDBRANCH  35  42
BRANCH  37  44
ATOM     44  O   UNL     1     -21.722 100.071   9.751  0.00  0.00    +0.000 OA
ATOM     45  H   UNL     1     -22.348  99.877  10.475  0.00  0.00    +0.000 HD
ENDBRANCH  37  44
ENDBRANCH  30  34
ENDBRANCH   7  30
TORSDOF 8
ENDMDL
MODEL 9
REMARK VINA RESULT:      -6.0     15.513     18.447
REMARK  Name = 
REMARK  11 active torsions:
REMARK  status: ('A' for Active; 'I' for Inactive)
REMARK    1  A    between atoms: O_1  and  C_16
REMARK    2  A    between atoms: O_1  and  C_22
REMARK    3  A    between atoms: O_6  and  C_24
REMARK    4  A    between atoms: O_8  and  C_26
REMARK    5  A    between atoms: O_11  and  C_36
REMARK    6  A    between atoms: O_11  and  C_41
REMARK    7  A    between atoms: O_12  and  C_37
REMARK    8  A    between atoms: O_12  and  C_42
REMARK    9  A    between atoms: O_13  and  C_39
REMARK   10  A    between atoms: C_17  and  C_23
REMARK   11  A    between atoms: C_35  and  C_40
REMARK                            x       y       z     vdW  Elec       q    Type
REMARK                         _______ _______ _______ _____ _____    ______ ____
ROOT
ATOM      1  O   UNL     1     -22.444 100.695   3.025  0.00  0.00    +0.000 OA
ATOM      2  O   UNL     1     -24.200 100.666   1.550  0.00  0.00    +0.000 OA
ATOM      3  O   UNL     1     -25.330 108.048   5.917  0.00  0.00    +0.000 OA
ATOM      4  O   UNL     1     -26.686 107.889   3.928  0.00  0.00    +0.000 OA
ATOM      5  C   UNL     1     -22.730 102.817   3.909  0.00  0.00    +0.000 C 
ATOM      6  C   UNL     1     -24.029 102.403   3.244  0.00  0.00    +0.000 C 
ATOM      7  C   UNL     1     -23.009 103.750   5.081  0.00  0.00    +0.000 C 
ATOM      8  C   UNL     1     -24.663 103.582   2.508  0.00  0.00    +0.000 C 
ATOM      9  C   UNL     1     -24.002 104.841   4.682  0.00  0.00    +0.000 A 
ATOM     10  C   UNL     1     -24.807 104.749   3.500  0.00  0.00    +0.000 A 
ATOM     11  C   UNL     1     -22.115 101.469   4.190  0.00  0.00    +0.000 C 
ATOM     12  C   UNL     1     -23.595 101.195   2.468  0.00  0.00    +0.000 C 
ATOM     13  C   UNL     1     -24.150 105.952   5.534  0.00  0.00    +0.000 A 
ATOM     14  C   UNL     1     -25.737 105.767   3.202  0.00  0.00    +0.000 A 
ATOM     15  C   UNL     1     -25.072 106.921   5.201  0.00  0.00    +0.000 A 
ATOM     16  C   UNL     1     -25.843 106.831   4.069  0.00  0.00    +0.000 A 
ATOM     17  C   UNL     1     -26.353 108.658   5.103  0.00  0.00    +0.000 C 
ENDROOT
BRANCH   8  18
ATOM     18  C   UNL     1     -23.965 103.982   1.207  0.00  0.00    +0.000 A 
ATOM     19  C   UNL     1     -24.638 104.073  -0.024  0.00  0.00    +0.000 A 
ATOM     20  C   UNL     1     -22.593 104.287   1.231  0.00  0.00    +0.000 A 
ATOM     21  C   UNL     1     -21.929 104.691   0.072  0.00  0.00    +0.000 A 
ATOM     22  C   UNL     1     -23.988 104.456  -1.206  0.00  0.00    +0.000 A 
ATOM     23  C   UNL     1     -22.628 104.765  -1.144  0.00  0.00    +0.000 A 
BRANCH  21  24
ATOM     24  O   UNL     1     -20.599 105.033  -0.006  0.00  0.00    +0.000 OA
ATOM     25  C   UNL     1     -19.664 104.017   0.349  0.00  0.00    +0.000 C 
ENDBRANCH  21  24
BRANCH  22  26
ATOM     26  O   UNL     1     -24.823 104.483  -2.290  0.00  0.00    +0.000 OA
ATOM     27  C   UNL     1     -24.788 103.382  -3.186  0.00  0.00    +0.000 C 
ENDBRANCH  22  26
BRANCH  23  28
ATOM     28  O   UNL     1     -21.921 105.162  -2.251  0.00  0.00    +0.000 OA
ATOM     29  H   UNL     1     -21.149 105.644  -1.897  0.00  0.00    +0.000 HD
ENDBRANCH  23  28
ENDBRANCH   8  18
BRANCH   7  30
ATOM     30  O   UNL     1     -23.616 103.013   6.142  0.00  0.00    +0.000 OA
BRANCH  30  34
ATOM     31  O   UNL     1     -21.752 103.939   7.207  0.00  0.00    +0.000 OA
ATOM     32  O   UNL     1     -19.837 102.920  10.178  0.00  0.00    +0.000 OA
ATOM     33  O   UNL     1     -19.084 105.049   9.481  0.00  0.00    +0.000 OA
ATOM     34  C   UNL     1     -22.957 103.195   7.402  0.00  0.00    +0.000 C 
ATOM     35  C   UNL     1     -22.686 101.785   7.975  0.00  0.00    +0.000 C 
ATOM     36  C   UNL     1     -20.582 102.746   8.967  0.00  0.00    +0.000 C 
ATOM     37  C   UNL     1     -21.799 101.857   9.226  0.00  0.00    +0.000 C 
ATOM     38  C   UNL     1     -21.046 104.098   8.435  0.00  0.00    +0.000 C 
ATOM     39  C   UNL     1     -19.808 104.970   8.254  0.00  0.00    +0.000 C 
ATOM     40  C   UNL     1     -18.699 103.755   9.944  0.00  0.00    +0.000 C 
ATOM     41  C   UNL     1     -17.967 103.926  11.263  0.00  0.00    +0.000 C 
BRANCH  35  42
ATOM     42  O   UNL     1     -23.940 101.159   8.297  0.00  0.00    +0.000 OA
ATOM     43  H   UNL     1     -24.060 101.277   9.259  0.00  0.00    +0.000 HD
ENDBRANCH  35  42
BRANCH  37  44
ATOM     44  O   UNL     1     -21.336 100.544   9.581  0.00  0.00    +0.000 OA
ATOM     45  H   UNL     1     -20.386 100.525   9.355  0.00  0.00    +0.000 HD
ENDBRANCH  37  44
ENDBRANCH  30  34
ENDBRANCH   7  30
TORSDOF 8
ENDMDL
