MODEL 1
REMARK VINA RESULT:      -7.2      0.000      0.000
REMARK  Name = Foretinib.pdbqt.pdb
REMARK  11 active torsions:
REMARK  status: ('A' for Active; 'I' for Inactive)
REMARK    1  A    between atoms: C_2  and  N_31
REMARK    2  A    between atoms: C_7  and  O_8
REMARK    3  A    between atoms: O_8  and  C_9
REMARK    4  A    between atoms: C_17  and  O_19
REMARK    5  A    between atoms: C_18  and  O_29
REMARK    6  A    between atoms: O_19  and  C_20
REMARK    7  A    between atoms: C_21  and  C_22
REMARK    8  A    between atoms: C_22  and  N_23
REMARK    9  A    between atoms: C_32  and  C_35
REMARK   10  A    between atoms: C_35  and  C_38
REMARK   11  A    between atoms: N_40  and  C_42
REMARK                            x       y       z     vdW  Elec       q    Type
REMARK                         _______ _______ _______ _____ _____    ______ ____
ROOT
ATOM      1  F   UNL     1     -33.755  76.943   3.785  0.00  0.00    +0.000 F 
ATOM      2  C   UNL     1     -36.302  79.526   3.833  0.00  0.00    +0.000 A 
ATOM      3  C   UNL     1     -35.413  78.560   3.361  0.00  0.00    +0.000 A 
ATOM      4  C   UNL     1     -36.393  79.767   5.205  0.00  0.00    +0.000 A 
ATOM      5  C   UNL     1     -34.628  77.843   4.259  0.00  0.00    +0.000 A 
ATOM      6  C   UNL     1     -35.605  79.050   6.104  0.00  0.00    +0.000 A 
ATOM      7  C   UNL     1     -34.738  78.067   5.631  0.00  0.00    +0.000 A 
ENDROOT
BRANCH   2   8
ATOM      8  N   UNL     1     -37.124  80.288   2.981  0.00  0.00    +0.000 N 
ATOM      9  C   UNL     1     -38.297  79.848   2.391  0.00  0.00    +0.000 C 
ATOM     10  O   UNL     1     -38.786  78.730   2.497  0.00  0.00    +0.000 OA
ATOM     11  H   UNL     1     -36.801  81.223   2.752  0.00  0.00    +0.000 HD
BRANCH   9  12
ATOM     12  C   UNL     1     -38.967  80.858   1.506  0.00  0.00    +0.000 C 
ATOM     13  C   UNL     1     -40.373  81.155   1.757  0.00  0.00    +0.000 C 
ATOM     14  C   UNL     1     -39.967  80.368   0.564  0.00  0.00    +0.000 C 
BRANCH  12  15
ATOM     15  C   UNL     1     -38.090  81.997   1.080  0.00  0.00    +0.000 C 
ATOM     16  O   UNL     1     -37.726  82.810   1.922  0.00  0.00    +0.000 OA
ATOM     17  N   UNL     1     -37.729  81.983  -0.257  0.00  0.00    +0.000 N 
ATOM     18  H   UNL     1     -38.060  81.213  -0.831  0.00  0.00    +0.000 HD
BRANCH  17  19
ATOM     19  C   UNL     1     -36.905  82.932  -0.890  0.00  0.00    +0.000 A 
ATOM     20  C   UNL     1     -37.402  84.228  -1.036  0.00  0.00    +0.000 A 
ATOM     21  C   UNL     1     -36.635  85.213  -1.655  0.00  0.00    +0.000 A 
ATOM     22  C   UNL     1     -35.366  84.891  -2.124  0.00  0.00    +0.000 A 
ATOM     23  F   UNL     1     -34.625  85.836  -2.717  0.00  0.00    +0.000 F 
ATOM     24  C   UNL     1     -34.854  83.606  -1.984  0.00  0.00    +0.000 A 
ATOM     25  C   UNL     1     -35.628  82.628  -1.366  0.00  0.00    +0.000 A 
ENDBRANCH  17  19
ENDBRANCH  12  15
ENDBRANCH   9  12
ENDBRANCH   2   8
BRANCH   7  26
ATOM     26  O   UNL     1     -33.941  77.438   6.556  0.00  0.00    +0.000 OA
BRANCH  26  27
ATOM     27  C   UNL     1     -33.705  78.103   7.743  0.00  0.00    +0.000 A 
ATOM     28  C   UNL     1     -32.591  78.954   7.814  0.00  0.00    +0.000 A 
ATOM     29  C   UNL     1     -32.389  79.671   9.006  0.00  0.00    +0.000 A 
ATOM     30  C   UNL     1     -31.686  79.101   6.751  0.00  0.00    +0.000 A 
ATOM     31  N   UNL     1     -33.224  79.574  10.052  0.00  0.00    +0.000 NA
ATOM     32  C   UNL     1     -31.286  80.508   9.084  0.00  0.00    +0.000 A 
ATOM     33  C   UNL     1     -34.292  78.753   9.940  0.00  0.00    +0.000 A 
ATOM     34  C   UNL     1     -34.585  78.009   8.816  0.00  0.00    +0.000 A 
ATOM     35  C   UNL     1     -30.380  80.661   8.026  0.00  0.00    +0.000 A 
ATOM     36  C   UNL     1     -30.581  79.948   6.844  0.00  0.00    +0.000 A 
BRANCH  36  37
ATOM     37  O   UNL     1     -29.660  80.126   5.838  0.00  0.00    +0.000 OA
ATOM     38  C   UNL     1     -28.678  79.132   5.731  0.00  0.00    +0.000 C 
ENDBRANCH  36  37
BRANCH  35  39
ATOM     39  O   UNL     1     -29.279  81.482   8.090  0.00  0.00    +0.000 OA
BRANCH  39  40
ATOM     40  C   UNL     1     -29.123  82.126   9.244  0.00  0.00    +0.000 C 
ATOM     41  C   UNL     1     -28.929  82.856  10.577  0.00  0.00    +0.000 C 
BRANCH  41  42
ATOM     42  C   UNL     1     -28.729  83.587  11.910  0.00  0.00    +0.000 C 
BRANCH  42  43
ATOM     43  N   UNL     1     -28.539  84.281  13.175  0.00  0.00    +0.000 N 
ATOM     44  C   UNL     1     -27.157  84.851  13.151  0.00  0.00    +0.000 C 
ATOM     45  C   UNL     1     -26.715  86.347  13.048  0.00  0.00    +0.000 C 
ATOM     46  O   UNL     1     -27.368  87.526  12.948  0.00  0.00    +0.000 OA
ATOM     47  C   UNL     1     -28.615  87.012  12.963  0.00  0.00    +0.000 C 
ATOM     48  C   UNL     1     -29.248  85.591  13.058  0.00  0.00    +0.000 C 
ENDBRANCH  42  43
ENDBRANCH  41  42
ENDBRANCH  39  40
ENDBRANCH  35  39
ENDBRANCH  26  27
ENDBRANCH   7  26
TORSDOF 11
ENDMDL
MODEL 2
REMARK VINA RESULT:      -7.0      4.754     12.585
REMARK  Name = Foretinib.pdbqt.pdb
REMARK  11 active torsions:
REMARK  status: ('A' for Active; 'I' for Inactive)
REMARK    1  A    between atoms: C_2  and  N_31
REMARK    2  A    between atoms: C_7  and  O_8
REMARK    3  A    between atoms: O_8  and  C_9
REMARK    4  A    between atoms: C_17  and  O_19
REMARK    5  A    between atoms: C_18  and  O_29
REMARK    6  A    between atoms: O_19  and  C_20
REMARK    7  A    between atoms: C_21  and  C_22
REMARK    8  A    between atoms: C_22  and  N_23
REMARK    9  A    between atoms: C_32  and  C_35
REMARK   10  A    between atoms: C_35  and  C_38
REMARK   11  A    between atoms: N_40  and  C_42
REMARK                            x       y       z     vdW  Elec       q    Type
REMARK                         _______ _______ _______ _____ _____    ______ ____
ROOT
ATOM      1  F   UNL     1     -33.723  80.268   8.143  0.00  0.00    +0.000 F 
ATOM      2  C   UNL     1     -30.239  79.630   8.934  0.00  0.00    +0.000 A 
ATOM      3  C   UNL     1     -31.494  80.239   8.903  0.00  0.00    +0.000 A 
ATOM      4  C   UNL     1     -30.037  78.434   8.241  0.00  0.00    +0.000 A 
ATOM      5  C   UNL     1     -32.533  79.651   8.189  0.00  0.00    +0.000 A 
ATOM      6  C   UNL     1     -31.078  77.846   7.525  0.00  0.00    +0.000 A 
ATOM      7  C   UNL     1     -32.337  78.443   7.519  0.00  0.00    +0.000 A 
ENDROOT
BRANCH   2   8
ATOM      8  N   UNL     1     -29.145  80.171   9.634  0.00  0.00    +0.000 N 
ATOM      9  C   UNL     1     -27.996  80.684   9.057  0.00  0.00    +0.000 C 
ATOM     10  O   UNL     1     -27.743  80.723   7.859  0.00  0.00    +0.000 OA
ATOM     11  H   UNL     1     -29.194  80.142  10.649  0.00  0.00    +0.000 HD
BRANCH   9  12
ATOM     12  C   UNL     1     -26.972  81.176  10.037  0.00  0.00    +0.000 C 
ATOM     13  C   UNL     1     -25.592  81.289   9.580  0.00  0.00    +0.000 C 
ATOM     14  C   UNL     1     -25.991  80.214  10.525  0.00  0.00    +0.000 C 
BRANCH  12  15
ATOM     15  C   UNL     1     -27.468  82.225  10.987  0.00  0.00    +0.000 C 
ATOM     16  O   UNL     1     -27.830  81.884  12.108  0.00  0.00    +0.000 OA
ATOM     17  N   UNL     1     -27.415  83.521  10.502  0.00  0.00    +0.000 N 
ATOM     18  H   UNL     1     -27.037  83.664   9.570  0.00  0.00    +0.000 HD
BRANCH  17  19
ATOM     19  C   UNL     1     -27.808  84.673  11.206  0.00  0.00    +0.000 A 
ATOM     20  C   UNL     1     -26.907  85.212  12.126  0.00  0.00    +0.000 A 
ATOM     21  C   UNL     1     -27.238  86.352  12.854  0.00  0.00    +0.000 A 
ATOM     22  C   UNL     1     -28.477  86.951  12.654  0.00  0.00    +0.000 A 
ATOM     23  F   UNL     1     -28.798  88.049  13.351  0.00  0.00    +0.000 F 
ATOM     24  C   UNL     1     -29.386  86.430  11.740  0.00  0.00    +0.000 A 
ATOM     25  C   UNL     1     -29.047  85.289  11.017  0.00  0.00    +0.000 A 
ENDBRANCH  17  19
ENDBRANCH  12  15
ENDBRANCH   9  12
ENDBRANCH   2   8
BRANCH   7  26
ATOM     26  O   UNL     1     -33.306  77.854   6.745  0.00  0.00    +0.000 OA
BRANCH  26  27
ATOM     27  C   UNL     1     -34.485  77.499   7.371  0.00  0.00    +0.000 A 
ATOM     28  C   UNL     1     -35.688  77.999   6.848  0.00  0.00    +0.000 A 
ATOM     29  C   UNL     1     -36.887  77.589   7.455  0.00  0.00    +0.000 A 
ATOM     30  C   UNL     1     -35.726  78.887   5.761  0.00  0.00    +0.000 A 
ATOM     31  N   UNL     1     -36.912  76.738   8.494  0.00  0.00    +0.000 NA
ATOM     32  C   UNL     1     -38.078  78.085   6.948  0.00  0.00    +0.000 A 
ATOM     33  C   UNL     1     -35.733  76.269   8.959  0.00  0.00    +0.000 A 
ATOM     34  C   UNL     1     -34.501  76.604   8.435  0.00  0.00    +0.000 A 
ATOM     35  C   UNL     1     -38.123  78.970   5.862  0.00  0.00    +0.000 A 
ATOM     36  C   UNL     1     -36.932  79.378   5.260  0.00  0.00    +0.000 A 
BRANCH  36  37
ATOM     37  O   UNL     1     -37.030  80.252   4.203  0.00  0.00    +0.000 OA
ATOM     38  C   UNL     1     -36.649  79.740   2.956  0.00  0.00    +0.000 C 
ENDBRANCH  36  37
BRANCH  35  39
ATOM     39  O   UNL     1     -39.295  79.475   5.350  0.00  0.00    +0.000 OA
BRANCH  39  40
ATOM     40  C   UNL     1     -40.406  78.991   5.901  0.00  0.00    +0.000 C 
ATOM     41  C   UNL     1     -41.679  78.417   6.531  0.00  0.00    +0.000 C 
BRANCH  41  42
ATOM     42  C   UNL     1     -42.949  77.838   7.164  0.00  0.00    +0.000 C 
BRANCH  42  43
ATOM     43  N   UNL     1     -44.156  77.286   7.764  0.00  0.00    +0.000 N 
ATOM     44  C   UNL     1     -44.253  77.860   9.141  0.00  0.00    +0.000 C 
ATOM     45  C   UNL     1     -45.275  78.904   9.699  0.00  0.00    +0.000 C 
ATOM     46  O   UNL     1     -46.317  79.585   9.176  0.00  0.00    +0.000 OA
ATOM     47  C   UNL     1     -46.227  79.073   7.932  0.00  0.00    +0.000 C 
ATOM     48  C   UNL     1     -45.307  78.051   7.197  0.00  0.00    +0.000 C 
ENDBRANCH  42  43
ENDBRANCH  41  42
ENDBRANCH  39  40
ENDBRANCH  35  39
ENDBRANCH  26  27
ENDBRANCH   7  26
TORSDOF 11
ENDMDL
MODEL 3
REMARK VINA RESULT:      -7.0     20.967     23.155
REMARK  Name = Foretinib.pdbqt.pdb
REMARK  11 active torsions:
REMARK  status: ('A' for Active; 'I' for Inactive)
REMARK    1  A    between atoms: C_2  and  N_31
REMARK    2  A    between atoms: C_7  and  O_8
REMARK    3  A    between atoms: O_8  and  C_9
REMARK    4  A    between atoms: C_17  and  O_19
REMARK    5  A    between atoms: C_18  and  O_29
REMARK    6  A    between atoms: O_19  and  C_20
REMARK    7  A    between atoms: C_21  and  C_22
REMARK    8  A    between atoms: C_22  and  N_23
REMARK    9  A    between atoms: C_32  and  C_35
REMARK   10  A    between atoms: C_35  and  C_38
REMARK   11  A    between atoms: N_40  and  C_42
REMARK                            x       y       z     vdW  Elec       q    Type
REMARK                         _______ _______ _______ _____ _____    ______ ____
ROOT
ATOM      1  F   UNL     1     -34.549 100.706  16.919  0.00  0.00    +0.000 F 
ATOM      2  C   UNL     1     -37.231 101.439  14.589  0.00  0.00    +0.000 A 
ATOM      3  C   UNL     1     -36.425 101.482  15.727  0.00  0.00    +0.000 A 
ATOM      4  C   UNL     1     -36.895 100.583  13.538  0.00  0.00    +0.000 A 
ATOM      5  C   UNL     1     -35.293 100.677  15.804  0.00  0.00    +0.000 A 
ATOM      6  C   UNL     1     -35.761  99.776  13.617  0.00  0.00    +0.000 A 
ATOM      7  C   UNL     1     -34.944  99.841  14.743  0.00  0.00    +0.000 A 
ENDROOT
BRANCH   2   8
ATOM      8  N   UNL     1     -38.390 102.224  14.445  0.00  0.00    +0.000 N 
ATOM      9  C   UNL     1     -38.534 103.294  13.576  0.00  0.00    +0.000 C 
ATOM     10  O   UNL     1     -37.675 103.735  12.824  0.00  0.00    +0.000 OA
ATOM     11  H   UNL     1     -39.168 102.007  15.062  0.00  0.00    +0.000 HD
BRANCH   9  12
ATOM     12  C   UNL     1     -39.870 103.975  13.642  0.00  0.00    +0.000 C 
ATOM     13  C   UNL     1     -39.991 105.293  13.028  0.00  0.00    +0.000 C 
ATOM     14  C   UNL     1     -39.987 105.143  14.507  0.00  0.00    +0.000 C 
BRANCH  12  15
ATOM     15  C   UNL     1     -41.048 103.055  13.531  0.00  0.00    +0.000 C 
ATOM     16  O   UNL     1     -40.865 101.902  13.158  0.00  0.00    +0.000 OA
ATOM     17  N   UNL     1     -42.255 103.607  13.923  0.00  0.00    +0.000 N 
ATOM     18  H   UNL     1     -42.251 104.564  14.266  0.00  0.00    +0.000 HD
BRANCH  17  19
ATOM     19  C   UNL     1     -43.496 102.944  13.924  0.00  0.00    +0.000 A 
ATOM     20  C   UNL     1     -44.222 102.924  12.731  0.00  0.00    +0.000 A 
ATOM     21  C   UNL     1     -45.457 102.282  12.668  0.00  0.00    +0.000 A 
ATOM     22  C   UNL     1     -45.959 101.660  13.805  0.00  0.00    +0.000 A 
ATOM     23  F   UNL     1     -47.146 101.041  13.747  0.00  0.00    +0.000 F 
ATOM     24  C   UNL     1     -45.249 101.668  15.000  0.00  0.00    +0.000 A 
ATOM     25  C   UNL     1     -44.016 102.312  15.055  0.00  0.00    +0.000 A 
ENDBRANCH  17  19
ENDBRANCH  12  15
ENDBRANCH   9  12
ENDBRANCH   2   8
BRANCH   7  26
ATOM     26  O   UNL     1     -33.878  98.977  14.794  0.00  0.00    +0.000 OA
BRANCH  26  27
ATOM     27  C   UNL     1     -32.634  99.524  15.044  0.00  0.00    +0.000 A 
ATOM     28  C   UNL     1     -31.868  98.974  16.084  0.00  0.00    +0.000 A 
ATOM     29  C   UNL     1     -30.581  99.497  16.296  0.00  0.00    +0.000 A 
ATOM     30  C   UNL     1     -32.343  97.940  16.905  0.00  0.00    +0.000 A 
ATOM     31  N   UNL     1     -30.071 100.482  15.539  0.00  0.00    +0.000 NA
ATOM     32  C   UNL     1     -29.821  98.963  17.326  0.00  0.00    +0.000 A 
ATOM     33  C   UNL     1     -30.837 100.975  14.540  0.00  0.00    +0.000 A 
ATOM     34  C   UNL     1     -32.109 100.532  14.244  0.00  0.00    +0.000 A 
ATOM     35  C   UNL     1     -30.289  97.930  18.149  0.00  0.00    +0.000 A 
ATOM     36  C   UNL     1     -31.568  97.411  17.938  0.00  0.00    +0.000 A 
BRANCH  36  37
ATOM     37  O   UNL     1     -31.983  96.404  18.777  0.00  0.00    +0.000 OA
ATOM     38  C   UNL     1     -33.085  96.707  19.588  0.00  0.00    +0.000 C 
ENDBRANCH  36  37
BRANCH  35  39
ATOM     39  O   UNL     1     -29.551  97.392  19.177  0.00  0.00    +0.000 OA
BRANCH  39  40
ATOM     40  C   UNL     1     -29.412  98.179  20.241  0.00  0.00    +0.000 C 
ATOM     41  C   UNL     1     -29.247  99.072  21.476  0.00  0.00    +0.000 C 
BRANCH  41  42
ATOM     42  C   UNL     1     -29.076  99.961  22.713  0.00  0.00    +0.000 C 
BRANCH  42  43
ATOM     43  N   UNL     1     -28.915 100.804  23.889  0.00  0.00    +0.000 N 
ATOM     44  C   UNL     1     -28.147 100.004  24.891  0.00  0.00    +0.000 C 
ATOM     45  C   UNL     1     -26.679 100.205  25.389  0.00  0.00    +0.000 C 
ATOM     46  O   UNL     1     -25.692 101.083  25.106  0.00  0.00    +0.000 OA
ATOM     47  C   UNL     1     -26.381 101.802  24.198  0.00  0.00    +0.000 C 
ATOM     48  C   UNL     1     -27.813 101.765  23.581  0.00  0.00    +0.000 C 
ENDBRANCH  42  43
ENDBRANCH  41  42
ENDBRANCH  39  40
ENDBRANCH  35  39
ENDBRANCH  26  27
ENDBRANCH   7  26
TORSDOF 11
ENDMDL
MODEL 4
REMARK VINA RESULT:      -6.9     11.318     17.805
REMARK  Name = Foretinib.pdbqt.pdb
REMARK  11 active torsions:
REMARK  status: ('A' for Active; 'I' for Inactive)
REMARK    1  A    between atoms: C_2  and  N_31
REMARK    2  A    between atoms: C_7  and  O_8
REMARK    3  A    between atoms: O_8  and  C_9
REMARK    4  A    between atoms: C_17  and  O_19
REMARK    5  A    between atoms: C_18  and  O_29
REMARK    6  A    between atoms: O_19  and  C_20
REMARK    7  A    between atoms: C_21  and  C_22
REMARK    8  A    between atoms: C_22  and  N_23
REMARK    9  A    between atoms: C_32  and  C_35
REMARK   10  A    between atoms: C_35  and  C_38
REMARK   11  A    between atoms: N_40  and  C_42
REMARK                            x       y       z     vdW  Elec       q    Type
REMARK                         _______ _______ _______ _____ _____    ______ ____
ROOT
ATOM      1  F   UNL     1     -26.933  85.326  -5.159  0.00  0.00    +0.000 F 
ATOM      2  C   UNL     1     -24.023  85.101  -3.003  0.00  0.00    +0.000 A 
ATOM      3  C   UNL     1     -25.326  84.950  -3.479  0.00  0.00    +0.000 A 
ATOM      4  C   UNL     1     -23.074  85.757  -3.790  0.00  0.00    +0.000 A 
ATOM      5  C   UNL     1     -25.667  85.450  -4.732  0.00  0.00    +0.000 A 
ATOM      6  C   UNL     1     -23.417  86.258  -5.044  0.00  0.00    +0.000 A 
ATOM      7  C   UNL     1     -24.711  86.082  -5.527  0.00  0.00    +0.000 A 
ENDROOT
BRANCH   2   8
ATOM      8  N   UNL     1     -23.611  84.622  -1.746  0.00  0.00    +0.000 N 
ATOM      9  C   UNL     1     -23.118  83.352  -1.492  0.00  0.00    +0.000 C 
ATOM     10  O   UNL     1     -22.990  82.449  -2.308  0.00  0.00    +0.000 OA
ATOM     11  H   UNL     1     -23.724  85.252  -0.957  0.00  0.00    +0.000 HD
BRANCH   9  12
ATOM     12  C   UNL     1     -22.774  83.094  -0.054  0.00  0.00    +0.000 C 
ATOM     13  C   UNL     1     -22.242  81.780   0.292  0.00  0.00    +0.000 C 
ATOM     14  C   UNL     1     -23.623  82.166   0.684  0.00  0.00    +0.000 C 
BRANCH  12  15
ATOM     15  C   UNL     1     -22.213  84.276   0.679  0.00  0.00    +0.000 C 
ATOM     16  O   UNL     1     -21.300  84.912   0.164  0.00  0.00    +0.000 OA
ATOM     17  N   UNL     1     -22.840  84.567   1.879  0.00  0.00    +0.000 N 
ATOM     18  H   UNL     1     -23.624  83.985   2.158  0.00  0.00    +0.000 HD
BRANCH  17  19
ATOM     19  C   UNL     1     -22.506  85.629   2.738  0.00  0.00    +0.000 A 
ATOM     20  C   UNL     1     -22.829  86.924   2.325  0.00  0.00    +0.000 A 
ATOM     21  C   UNL     1     -22.524  88.018   3.131  0.00  0.00    +0.000 A 
ATOM     22  C   UNL     1     -21.896  87.808   4.354  0.00  0.00    +0.000 A 
ATOM     23  F   UNL     1     -21.604  88.858   5.132  0.00  0.00    +0.000 F 
ATOM     24  C   UNL     1     -21.569  86.527   4.782  0.00  0.00    +0.000 A 
ATOM     25  C   UNL     1     -21.877  85.439   3.969  0.00  0.00    +0.000 A 
ENDBRANCH  17  19
ENDBRANCH  12  15
ENDBRANCH   9  12
ENDBRANCH   2   8
BRANCH   7  26
ATOM     26  O   UNL     1     -25.010  86.652  -6.741  0.00  0.00    +0.000 OA
BRANCH  26  27
ATOM     27  C   UNL     1     -25.710  87.842  -6.723  0.00  0.00    +0.000 A 
ATOM     28  C   UNL     1     -26.886  87.929  -7.486  0.00  0.00    +0.000 A 
ATOM     29  C   UNL     1     -27.624  89.123  -7.419  0.00  0.00    +0.000 A 
ATOM     30  C   UNL     1     -27.332  86.879  -8.304  0.00  0.00    +0.000 A 
ATOM     31  N   UNL     1     -27.248  90.158  -6.651  0.00  0.00    +0.000 NA
ATOM     32  C   UNL     1     -28.782  89.217  -8.177  0.00  0.00    +0.000 A 
ATOM     33  C   UNL     1     -26.117  90.030  -5.922  0.00  0.00    +0.000 A 
ATOM     34  C   UNL     1     -25.322  88.902  -5.911  0.00  0.00    +0.000 A 
ATOM     35  C   UNL     1     -29.234  88.172  -8.993  0.00  0.00    +0.000 A 
ATOM     36  C   UNL     1     -28.500  86.987  -9.060  0.00  0.00    +0.000 A 
BRANCH  36  37
ATOM     37  O   UNL     1     -28.982  85.995  -9.881  0.00  0.00    +0.000 OA
ATOM     38  C   UNL     1     -29.539  84.886  -9.230  0.00  0.00    +0.000 C 
ENDBRANCH  36  37
BRANCH  35  39
ATOM     39  O   UNL     1     -30.377  88.251  -9.754  0.00  0.00    +0.000 OA
BRANCH  39  40
ATOM     40  C   UNL     1     -31.515  88.224  -9.064  0.00  0.00    +0.000 C 
ATOM     41  C   UNL     1     -32.833  88.182  -8.283  0.00  0.00    +0.000 C 
BRANCH  41  42
ATOM     42  C   UNL     1     -34.151  88.134  -7.502  0.00  0.00    +0.000 C 
BRANCH  42  43
ATOM     43  N   UNL     1     -35.404  88.089  -6.763  0.00  0.00    +0.000 N 
ATOM     44  C   UNL     1     -35.118  88.624  -5.397  0.00  0.00    +0.000 C 
ATOM     45  C   UNL     1     -35.580  89.973  -4.756  0.00  0.00    +0.000 C 
ATOM     46  O   UNL     1     -36.321  91.021  -5.178  0.00  0.00    +0.000 OA
ATOM     47  C   UNL     1     -36.575  90.541  -6.412  0.00  0.00    +0.000 C 
ATOM     48  C   UNL     1     -36.217  89.256  -7.219  0.00  0.00    +0.000 C 
ENDBRANCH  42  43
ENDBRANCH  41  42
ENDBRANCH  39  40
ENDBRANCH  35  39
ENDBRANCH  26  27
ENDBRANCH   7  26
TORSDOF 11
ENDMDL
MODEL 5
REMARK VINA RESULT:      -6.7      1.816      2.724
REMARK  Name = Foretinib.pdbqt.pdb
REMARK  11 active torsions:
REMARK  status: ('A' for Active; 'I' for Inactive)
REMARK    1  A    between atoms: C_2  and  N_31
REMARK    2  A    between atoms: C_7  and  O_8
REMARK    3  A    between atoms: O_8  and  C_9
REMARK    4  A    between atoms: C_17  and  O_19
REMARK    5  A    between atoms: C_18  and  O_29
REMARK    6  A    between atoms: O_19  and  C_20
REMARK    7  A    between atoms: C_21  and  C_22
REMARK    8  A    between atoms: C_22  and  N_23
REMARK    9  A    between atoms: C_32  and  C_35
REMARK   10  A    between atoms: C_35  and  C_38
REMARK   11  A    between atoms: N_40  and  C_42
REMARK                            x       y       z     vdW  Elec       q    Type
REMARK                         _______ _______ _______ _____ _____    ______ ____
ROOT
ATOM      1  F   UNL     1     -34.611  76.383   3.448  0.00  0.00    +0.000 F 
ATOM      2  C   UNL     1     -36.600  79.404   3.723  0.00  0.00    +0.000 A 
ATOM      3  C   UNL     1     -35.998  78.267   3.184  0.00  0.00    +0.000 A 
ATOM      4  C   UNL     1     -36.401  79.718   5.069  0.00  0.00    +0.000 A 
ATOM      5  C   UNL     1     -35.209  77.453   3.991  0.00  0.00    +0.000 A 
ATOM      6  C   UNL     1     -35.609  78.902   5.876  0.00  0.00    +0.000 A 
ATOM      7  C   UNL     1     -35.031  77.753   5.341  0.00  0.00    +0.000 A 
ENDROOT
BRANCH   2   8
ATOM      8  N   UNL     1     -37.409  80.271   2.964  0.00  0.00    +0.000 N 
ATOM      9  C   UNL     1     -37.412  80.364   1.582  0.00  0.00    +0.000 C 
ATOM     10  O   UNL     1     -36.701  79.730   0.813  0.00  0.00    +0.000 OA
ATOM     11  H   UNL     1     -38.008  80.907   3.483  0.00  0.00    +0.000 HD
BRANCH   9  12
ATOM     12  C   UNL     1     -38.357  81.390   1.029  0.00  0.00    +0.000 C 
ATOM     13  C   UNL     1     -39.721  81.407   1.546  0.00  0.00    +0.000 C 
ATOM     14  C   UNL     1     -39.438  80.916   0.172  0.00  0.00    +0.000 C 
BRANCH  12  15
ATOM     15  C   UNL     1     -37.728  82.713   0.709  0.00  0.00    +0.000 C 
ATOM     16  O   UNL     1     -37.020  83.251   1.553  0.00  0.00    +0.000 OA
ATOM     17  N   UNL     1     -37.979  83.181  -0.570  0.00  0.00    +0.000 N 
ATOM     18  H   UNL     1     -38.540  82.602  -1.187  0.00  0.00    +0.000 HD
BRANCH  17  19
ATOM     19  C   UNL     1     -37.490  84.386  -1.109  0.00  0.00    +0.000 A 
ATOM     20  C   UNL     1     -38.355  85.482  -1.137  0.00  0.00    +0.000 A 
ATOM     21  C   UNL     1     -37.930  86.702  -1.658  0.00  0.00    +0.000 A 
ATOM     22  C   UNL     1     -36.635  86.818  -2.150  0.00  0.00    +0.000 A 
ATOM     23  F   UNL     1     -36.223  87.990  -2.649  0.00  0.00    +0.000 F 
ATOM     24  C   UNL     1     -35.760  85.738  -2.127  0.00  0.00    +0.000 A 
ATOM     25  C   UNL     1     -36.193  84.522  -1.605  0.00  0.00    +0.000 A 
ENDBRANCH  17  19
ENDBRANCH  12  15
ENDBRANCH   9  12
ENDBRANCH   2   8
BRANCH   7  26
ATOM     26  O   UNL     1     -34.210  77.024   6.165  0.00  0.00    +0.000 OA
BRANCH  26  27
ATOM     27  C   UNL     1     -32.903  77.453   6.295  0.00  0.00    +0.000 A 
ATOM     28  C   UNL     1     -32.491  77.949   7.541  0.00  0.00    +0.000 A 
ATOM     29  C   UNL     1     -31.146  78.331   7.682  0.00  0.00    +0.000 A 
ATOM     30  C   UNL     1     -33.369  78.080   8.628  0.00  0.00    +0.000 A 
ATOM     31  N   UNL     1     -30.260  78.224   6.679  0.00  0.00    +0.000 NA
ATOM     32  C   UNL     1     -30.735  78.830   8.909  0.00  0.00    +0.000 A 
ATOM     33  C   UNL     1     -30.693  77.728   5.498  0.00  0.00    +0.000 A 
ATOM     34  C   UNL     1     -31.989  77.321   5.255  0.00  0.00    +0.000 A 
ATOM     35  C   UNL     1     -31.605  78.961   9.998  0.00  0.00    +0.000 A 
ATOM     36  C   UNL     1     -32.941  78.583   9.858  0.00  0.00    +0.000 A 
BRANCH  36  37
ATOM     37  O   UNL     1     -33.757  78.738  10.953  0.00  0.00    +0.000 OA
ATOM     38  C   UNL     1     -34.358  77.566  11.433  0.00  0.00    +0.000 C 
ENDBRANCH  36  37
BRANCH  35  39
ATOM     39  O   UNL     1     -31.215  79.458  11.220  0.00  0.00    +0.000 OA
BRANCH  39  40
ATOM     40  C   UNL     1     -30.454  80.549  11.167  0.00  0.00    +0.000 C 
ATOM     41  C   UNL     1     -29.592  81.814  11.102  0.00  0.00    +0.000 C 
BRANCH  41  42
ATOM     42  C   UNL     1     -28.735  83.083  11.040  0.00  0.00    +0.000 C 
BRANCH  42  43
ATOM     43  N   UNL     1     -27.920  84.288  10.982  0.00  0.00    +0.000 N 
ATOM     44  C   UNL     1     -28.853  85.428  10.725  0.00  0.00    +0.000 C 
ATOM     45  C   UNL     1     -29.276  86.584  11.688  0.00  0.00    +0.000 C 
ATOM     46  O   UNL     1     -28.977  86.916  12.964  0.00  0.00    +0.000 OA
ATOM     47  C   UNL     1     -28.140  85.885  13.198  0.00  0.00    +0.000 C 
ATOM     48  C   UNL     1     -27.603  84.662  12.393  0.00  0.00    +0.000 C 
ENDBRANCH  42  43
ENDBRANCH  41  42
ENDBRANCH  39  40
ENDBRANCH  35  39
ENDBRANCH  26  27
ENDBRANCH   7  26
TORSDOF 11
ENDMDL
MODEL 6
REMARK VINA RESULT:      -6.7     12.585     14.760
REMARK  Name = Foretinib.pdbqt.pdb
REMARK  11 active torsions:
REMARK  status: ('A' for Active; 'I' for Inactive)
REMARK    1  A    between atoms: C_2  and  N_31
REMARK    2  A    between atoms: C_7  and  O_8
REMARK    3  A    between atoms: O_8  and  C_9
REMARK    4  A    between atoms: C_17  and  O_19
REMARK    5  A    between atoms: C_18  and  O_29
REMARK    6  A    between atoms: O_19  and  C_20
REMARK    7  A    between atoms: C_21  and  C_22
REMARK    8  A    between atoms: C_22  and  N_23
REMARK    9  A    between atoms: C_32  and  C_35
REMARK   10  A    between atoms: C_35  and  C_38
REMARK   11  A    between atoms: N_40  and  C_42
REMARK                            x       y       z     vdW  Elec       q    Type
REMARK                         _______ _______ _______ _____ _____    ______ ____
ROOT
ATOM      1  F   UNL     1     -27.636  86.161  -8.745  0.00  0.00    +0.000 F 
ATOM      2  C   UNL     1     -30.595  88.219  -9.166  0.00  0.00    +0.000 A 
ATOM      3  C   UNL     1     -29.748  87.110  -9.174  0.00  0.00    +0.000 A 
ATOM      4  C   UNL     1     -30.123  89.442  -8.684  0.00  0.00    +0.000 A 
ATOM      5  C   UNL     1     -28.446  87.229  -8.698  0.00  0.00    +0.000 A 
ATOM      6  C   UNL     1     -28.819  89.561  -8.209  0.00  0.00    +0.000 A 
ATOM      7  C   UNL     1     -27.985  88.445  -8.193  0.00  0.00    +0.000 A 
ENDROOT
BRANCH   2   8
ATOM      8  N   UNL     1     -31.921  88.169  -9.633  0.00  0.00    +0.000 N 
ATOM      9  C   UNL     1     -33.054  88.146  -8.836  0.00  0.00    +0.000 C 
ATOM     10  O   UNL     1     -33.077  88.139  -7.612  0.00  0.00    +0.000 OA
ATOM     11  H   UNL     1     -32.049  88.105 -10.639  0.00  0.00    +0.000 HD
BRANCH   9  12
ATOM     12  C   UNL     1     -34.347  88.068  -9.593  0.00  0.00    +0.000 C 
ATOM     13  C   UNL     1     -34.558  86.915 -10.461  0.00  0.00    +0.000 C 
ATOM     14  C   UNL     1     -34.292  88.258 -11.039  0.00  0.00    +0.000 C 
BRANCH  12  15
ATOM     15  C   UNL     1     -35.540  88.598  -8.855  0.00  0.00    +0.000 C 
ATOM     16  O   UNL     1     -36.454  87.829  -8.580  0.00  0.00    +0.000 OA
ATOM     17  N   UNL     1     -35.459  89.934  -8.503  0.00  0.00    +0.000 N 
ATOM     18  H   UNL     1     -34.613  90.440  -8.748  0.00  0.00    +0.000 HD
BRANCH  17  19
ATOM     19  C   UNL     1     -36.440  90.654  -7.797  0.00  0.00    +0.000 A 
ATOM     20  C   UNL     1     -37.381  91.370  -8.539  0.00  0.00    +0.000 A 
ATOM     21  C   UNL     1     -38.377  92.102  -7.898  0.00  0.00    +0.000 A 
ATOM     22  C   UNL     1     -38.427  92.111  -6.509  0.00  0.00    +0.000 A 
ATOM     23  F   UNL     1     -39.385  92.812  -5.889  0.00  0.00    +0.000 F 
ATOM     24  C   UNL     1     -37.500  91.402  -5.753  0.00  0.00    +0.000 A 
ATOM     25  C   UNL     1     -36.507  90.674  -6.402  0.00  0.00    +0.000 A 
ENDBRANCH  17  19
ENDBRANCH  12  15
ENDBRANCH   9  12
ENDBRANCH   2   8
BRANCH   7  26
ATOM     26  O   UNL     1     -26.691  88.635  -7.775  0.00  0.00    +0.000 OA
BRANCH  26  27
ATOM     27  C   UNL     1     -26.468  88.680  -6.412  0.00  0.00    +0.000 A 
ATOM     28  C   UNL     1     -25.885  87.560  -5.800  0.00  0.00    +0.000 A 
ATOM     29  C   UNL     1     -25.609  87.634  -4.424  0.00  0.00    +0.000 A 
ATOM     30  C   UNL     1     -25.582  86.387  -6.509  0.00  0.00    +0.000 A 
ATOM     31  N   UNL     1     -25.873  88.731  -3.697  0.00  0.00    +0.000 NA
ATOM     32  C   UNL     1     -25.040  86.527  -3.813  0.00  0.00    +0.000 A 
ATOM     33  C   UNL     1     -26.422  89.794  -4.327  0.00  0.00    +0.000 A 
ATOM     34  C   UNL     1     -26.729  89.828  -5.671  0.00  0.00    +0.000 A 
ATOM     35  C   UNL     1     -24.733  85.354  -4.514  0.00  0.00    +0.000 A 
ATOM     36  C   UNL     1     -25.008  85.281  -5.880  0.00  0.00    +0.000 A 
BRANCH  36  37
ATOM     37  O   UNL     1     -24.695  84.105  -6.522  0.00  0.00    +0.000 OA
ATOM     38  C   UNL     1     -25.777  83.415  -7.085  0.00  0.00    +0.000 C 
ENDBRANCH  36  37
BRANCH  35  39
ATOM     39  O   UNL     1     -24.173  84.247  -3.922  0.00  0.00    +0.000 OA
BRANCH  39  40
ATOM     40  C   UNL     1     -23.618  84.465  -2.732  0.00  0.00    +0.000 C 
ATOM     41  C   UNL     1     -22.981  84.733  -1.364  0.00  0.00    +0.000 C 
BRANCH  41  42
ATOM     42  C   UNL     1     -22.348  85.006   0.005  0.00  0.00    +0.000 C 
BRANCH  42  43
ATOM     43  N   UNL     1     -21.747  85.267   1.305  0.00  0.00    +0.000 N 
ATOM     44  C   UNL     1     -20.967  86.535   1.173  0.00  0.00    +0.000 C 
ATOM     45  C   UNL     1     -21.266  87.939   1.793  0.00  0.00    +0.000 C 
ATOM     46  O   UNL     1     -22.242  88.442   2.580  0.00  0.00    +0.000 OA
ATOM     47  C   UNL     1     -22.950  87.300   2.695  0.00  0.00    +0.000 C 
ATOM     48  C   UNL     1     -22.823  85.837   2.170  0.00  0.00    +0.000 C 
ENDBRANCH  42  43
ENDBRANCH  41  42
ENDBRANCH  39  40
ENDBRANCH  35  39
ENDBRANCH  26  27
ENDBRANCH   7  26
TORSDOF 11
ENDMDL
MODEL 7
REMARK VINA RESULT:      -6.6      5.625      8.395
REMARK  Name = Foretinib.pdbqt.pdb
REMARK  11 active torsions:
REMARK  status: ('A' for Active; 'I' for Inactive)
REMARK    1  A    between atoms: C_2  and  N_31
REMARK    2  A    between atoms: C_7  and  O_8
REMARK    3  A    between atoms: O_8  and  C_9
REMARK    4  A    between atoms: C_17  and  O_19
REMARK    5  A    between atoms: C_18  and  O_29
REMARK    6  A    between atoms: O_19  and  C_20
REMARK    7  A    between atoms: C_21  and  C_22
REMARK    8  A    between atoms: C_22  and  N_23
REMARK    9  A    between atoms: C_32  and  C_35
REMARK   10  A    between atoms: C_35  and  C_38
REMARK   11  A    between atoms: N_40  and  C_42
REMARK                            x       y       z     vdW  Elec       q    Type
REMARK                         _______ _______ _______ _____ _____    ______ ____
ROOT
ATOM      1  F   UNL     1     -41.604  78.305   1.892  0.00  0.00    +0.000 F 
ATOM      2  C   UNL     1     -43.289  80.492   4.245  0.00  0.00    +0.000 A 
ATOM      3  C   UNL     1     -42.992  79.795   3.074  0.00  0.00    +0.000 A 
ATOM      4  C   UNL     1     -42.476  80.329   5.370  0.00  0.00    +0.000 A 
ATOM      5  C   UNL     1     -41.894  78.941   3.036  0.00  0.00    +0.000 A 
ATOM      6  C   UNL     1     -41.377  79.473   5.330  0.00  0.00    +0.000 A 
ATOM      7  C   UNL     1     -41.099  78.759   4.168  0.00  0.00    +0.000 A 
ENDROOT
BRANCH   2   8
ATOM      8  N   UNL     1     -44.381  81.373   4.353  0.00  0.00    +0.000 N 
ATOM      9  C   UNL     1     -44.334  82.652   4.883  0.00  0.00    +0.000 C 
ATOM     10  O   UNL     1     -43.349  83.201   5.360  0.00  0.00    +0.000 OA
ATOM     11  H   UNL     1     -45.284  81.019   4.050  0.00  0.00    +0.000 HD
BRANCH   9  12
ATOM     12  C   UNL     1     -45.652  83.369   4.899  0.00  0.00    +0.000 C 
ATOM     13  C   UNL     1     -45.979  84.161   6.079  0.00  0.00    +0.000 C 
ATOM     14  C   UNL     1     -46.675  82.875   5.814  0.00  0.00    +0.000 C 
BRANCH  12  15
ATOM     15  C   UNL     1     -46.091  83.905   3.569  0.00  0.00    +0.000 C 
ATOM     16  O   UNL     1     -45.399  84.752   3.016  0.00  0.00    +0.000 OA
ATOM     17  N   UNL     1     -47.245  83.331   3.064  0.00  0.00    +0.000 N 
ATOM     18  H   UNL     1     -47.687  82.596   3.607  0.00  0.00    +0.000 HD
BRANCH  17  19
ATOM     19  C   UNL     1     -47.846  83.654   1.834  0.00  0.00    +0.000 A 
ATOM     20  C   UNL     1     -48.737  84.729   1.809  0.00  0.00    +0.000 A 
ATOM     21  C   UNL     1     -49.364  85.098   0.621  0.00  0.00    +0.000 A 
ATOM     22  C   UNL     1     -49.093  84.385  -0.541  0.00  0.00    +0.000 A 
ATOM     23  F   UNL     1     -49.694  84.739  -1.685  0.00  0.00    +0.000 F 
ATOM     24  C   UNL     1     -48.208  83.313  -0.536  0.00  0.00    +0.000 A 
ATOM     25  C   UNL     1     -47.586  82.951   0.656  0.00  0.00    +0.000 A 
ENDBRANCH  17  19
ENDBRANCH  12  15
ENDBRANCH   9  12
ENDBRANCH   2   8
BRANCH   7  26
ATOM     26  O   UNL     1     -39.967  77.981   4.166  0.00  0.00    +0.000 OA
BRANCH  26  27
ATOM     27  C   UNL     1     -38.752  78.635   4.096  0.00  0.00    +0.000 A 
ATOM     28  C   UNL     1     -37.860  78.489   5.170  0.00  0.00    +0.000 A 
ATOM     29  C   UNL     1     -36.604  79.110   5.068  0.00  0.00    +0.000 A 
ATOM     30  C   UNL     1     -38.184  77.759   6.325  0.00  0.00    +0.000 A 
ATOM     31  N   UNL     1     -36.238  79.815   3.986  0.00  0.00    +0.000 NA
ATOM     32  C   UNL     1     -35.721  78.975   6.129  0.00  0.00    +0.000 A 
ATOM     33  C   UNL     1     -37.120  79.922   2.967  0.00  0.00    +0.000 A 
ATOM     34  C   UNL     1     -38.375  79.349   2.964  0.00  0.00    +0.000 A 
ATOM     35  C   UNL     1     -36.037  78.247   7.283  0.00  0.00    +0.000 A 
ATOM     36  C   UNL     1     -37.286  77.631   7.385  0.00  0.00    +0.000 A 
BRANCH  36  37
ATOM     37  O   UNL     1     -37.550  76.935   8.540  0.00  0.00    +0.000 OA
ATOM     38  C   UNL     1     -38.697  76.129   8.514  0.00  0.00    +0.000 C 
ENDBRANCH  36  37
BRANCH  35  39
ATOM     39  O   UNL     1     -35.176  78.108   8.346  0.00  0.00    +0.000 OA
BRANCH  39  40
ATOM     40  C   UNL     1     -34.011  78.738   8.213  0.00  0.00    +0.000 C 
ATOM     41  C   UNL     1     -32.676  79.472   8.045  0.00  0.00    +0.000 C 
BRANCH  41  42
ATOM     42  C   UNL     1     -31.345  80.211   7.875  0.00  0.00    +0.000 C 
BRANCH  42  43
ATOM     43  N   UNL     1     -30.080  80.915   7.714  0.00  0.00    +0.000 N 
ATOM     44  C   UNL     1     -29.801  81.602   9.012  0.00  0.00    +0.000 C 
ATOM     45  C   UNL     1     -28.701  81.280  10.075  0.00  0.00    +0.000 C 
ATOM     46  O   UNL     1     -27.723  80.354  10.180  0.00  0.00    +0.000 OA
ATOM     47  C   UNL     1     -27.978  79.729   9.012  0.00  0.00    +0.000 C 
ATOM     48  C   UNL     1     -28.999  79.892   7.845  0.00  0.00    +0.000 C 
ENDBRANCH  42  43
ENDBRANCH  41  42
ENDBRANCH  39  40
ENDBRANCH  35  39
ENDBRANCH  26  27
ENDBRANCH   7  26
TORSDOF 11
ENDMDL
MODEL 8
REMARK VINA RESULT:      -6.5     22.705     24.314
REMARK  Name = Foretinib.pdbqt.pdb
REMARK  11 active torsions:
REMARK  status: ('A' for Active; 'I' for Inactive)
REMARK    1  A    between atoms: C_2  and  N_31
REMARK    2  A    between atoms: C_7  and  O_8
REMARK    3  A    between atoms: O_8  and  C_9
REMARK    4  A    between atoms: C_17  and  O_19
REMARK    5  A    between atoms: C_18  and  O_29
REMARK    6  A    between atoms: O_19  and  C_20
REMARK    7  A    between atoms: C_21  and  C_22
REMARK    8  A    between atoms: C_22  and  N_23
REMARK    9  A    between atoms: C_32  and  C_35
REMARK   10  A    between atoms: C_35  and  C_38
REMARK   11  A    between atoms: N_40  and  C_42
REMARK                            x       y       z     vdW  Elec       q    Type
REMARK                         _______ _______ _______ _____ _____    ______ ____
ROOT
ATOM      1  F   UNL     1     -24.737 102.768   3.915  0.00  0.00    +0.000 F 
ATOM      2  C   UNL     1     -23.265 103.069   0.613  0.00  0.00    +0.000 A 
ATOM      3  C   UNL     1     -24.217 102.958   1.626  0.00  0.00    +0.000 A 
ATOM      4  C   UNL     1     -21.909 103.123   0.944  0.00  0.00    +0.000 A 
ATOM      5  C   UNL     1     -23.810 102.908   2.956  0.00  0.00    +0.000 A 
ATOM      6  C   UNL     1     -21.503 103.072   2.276  0.00  0.00    +0.000 A 
ATOM      7  C   UNL     1     -22.457 102.989   3.287  0.00  0.00    +0.000 A 
ENDROOT
BRANCH   2   8
ATOM      8  N   UNL     1     -23.606 103.123  -0.752  0.00  0.00    +0.000 N 
ATOM      9  C   UNL     1     -23.410 104.211  -1.587  0.00  0.00    +0.000 C 
ATOM     10  O   UNL     1     -22.938 105.294  -1.265  0.00  0.00    +0.000 OA
ATOM     11  H   UNL     1     -24.070 102.306  -1.139  0.00  0.00    +0.000 HD
BRANCH   9  12
ATOM     12  C   UNL     1     -23.888 104.009  -2.995  0.00  0.00    +0.000 C 
ATOM     13  C   UNL     1     -24.572 105.121  -3.645  0.00  0.00    +0.000 C 
ATOM     14  C   UNL     1     -25.327 103.918  -3.209  0.00  0.00    +0.000 C 
BRANCH  12  15
ATOM     15  C   UNL     1     -22.990 103.163  -3.847  0.00  0.00    +0.000 C 
ATOM     16  O   UNL     1     -21.939 102.750  -3.369  0.00  0.00    +0.000 OA
ATOM     17  N   UNL     1     -23.481 102.886  -5.111  0.00  0.00    +0.000 N 
ATOM     18  H   UNL     1     -24.397 103.250  -5.355  0.00  0.00    +0.000 HD
BRANCH  17  19
ATOM     19  C   UNL     1     -22.833 102.105  -6.086  0.00  0.00    +0.000 A 
ATOM     20  C   UNL     1     -21.667 102.618  -6.658  0.00  0.00    +0.000 A 
ATOM     21  C   UNL     1     -20.980 101.893  -7.629  0.00  0.00    +0.000 A 
ATOM     22  C   UNL     1     -21.466 100.651  -8.021  0.00  0.00    +0.000 A 
ATOM     23  F   UNL     1     -20.806  99.950  -8.953  0.00  0.00    +0.000 F 
ATOM     24  C   UNL     1     -22.624 100.124  -7.461  0.00  0.00    +0.000 A 
ATOM     25  C   UNL     1     -23.305 100.856  -6.492  0.00  0.00    +0.000 A 
ENDBRANCH  17  19
ENDBRANCH  12  15
ENDBRANCH   9  12
ENDBRANCH   2   8
BRANCH   7  26
ATOM     26  O   UNL     1     -21.997 102.876   4.576  0.00  0.00    +0.000 OA
BRANCH  26  27
ATOM     27  C   UNL     1     -21.814 101.600   5.071  0.00  0.00    +0.000 A 
ATOM     28  C   UNL     1     -21.776 101.431   6.464  0.00  0.00    +0.000 A 
ATOM     29  C   UNL     1     -21.646 100.123   6.962  0.00  0.00    +0.000 A 
ATOM     30  C   UNL     1     -21.855 102.512   7.357  0.00  0.00    +0.000 A 
ATOM     31  N   UNL     1     -21.571  99.052   6.157  0.00  0.00    +0.000 NA
ATOM     32  C   UNL     1     -21.600  99.951   8.338  0.00  0.00    +0.000 A 
ATOM     33  C   UNL     1     -21.625  99.256   4.821  0.00  0.00    +0.000 A 
ATOM     34  C   UNL     1     -21.755 100.495   4.229  0.00  0.00    +0.000 A 
ATOM     35  C   UNL     1     -21.680 101.024   9.234  0.00  0.00    +0.000 A 
ATOM     36  C   UNL     1     -21.808 102.323   8.739  0.00  0.00    +0.000 A 
BRANCH  36  37
ATOM     37  O   UNL     1     -21.875 103.343   9.659  0.00  0.00    +0.000 OA
ATOM     38  C   UNL     1     -20.698 104.084   9.830  0.00  0.00    +0.000 C 
ENDBRANCH  36  37
BRANCH  35  39
ATOM     39  O   UNL     1     -21.631 100.871  10.600  0.00  0.00    +0.000 OA
BRANCH  39  40
ATOM     40  C   UNL     1     -20.514 100.318  11.064  0.00  0.00    +0.000 C 
ATOM     41  C   UNL     1     -19.223  99.674  11.583  0.00  0.00    +0.000 C 
BRANCH  41  42
ATOM     42  C   UNL     1     -17.929  99.033  12.097  0.00  0.00    +0.000 C 
BRANCH  42  43
ATOM     43  N   UNL     1     -16.699  98.426  12.585  0.00  0.00    +0.000 N 
ATOM     44  C   UNL     1     -16.204  99.292  13.698  0.00  0.00    +0.000 C 
ATOM     45  C   UNL     1     -16.156  98.987  15.231  0.00  0.00    +0.000 C 
ATOM     46  O   UNL     1     -16.518  97.939  16.003  0.00  0.00    +0.000 OA
ATOM     47  C   UNL     1     -16.971  97.159  15.000  0.00  0.00    +0.000 C 
ATOM     48  C   UNL     1     -17.101  97.277  13.451  0.00  0.00    +0.000 C 
ENDBRANCH  42  43
ENDBRANCH  41  42
ENDBRANCH  39  40
ENDBRANCH  35  39
ENDBRANCH  26  27
ENDBRANCH   7  26
TORSDOF 11
ENDMDL
MODEL 9
REMARK VINA RESULT:      -6.5     15.417     17.403
REMARK  Name = Foretinib.pdbqt.pdb
REMARK  11 active torsions:
REMARK  status: ('A' for Active; 'I' for Inactive)
REMARK    1  A    between atoms: C_2  and  N_31
REMARK    2  A    between atoms: C_7  and  O_8
REMARK    3  A    between atoms: O_8  and  C_9
REMARK    4  A    between atoms: C_17  and  O_19
REMARK    5  A    between atoms: C_18  and  O_29
REMARK    6  A    between atoms: O_19  and  C_20
REMARK    7  A    between atoms: C_21  and  C_22
REMARK    8  A    between atoms: C_22  and  N_23
REMARK    9  A    between atoms: C_32  and  C_35
REMARK   10  A    between atoms: C_35  and  C_38
REMARK   11  A    between atoms: N_40  and  C_42
REMARK                            x       y       z     vdW  Elec       q    Type
REMARK                         _______ _______ _______ _____ _____    ______ ____
ROOT
ATOM      1  F   UNL     1     -30.827  85.618  -9.059  0.00  0.00    +0.000 F 
ATOM      2  C   UNL     1     -32.477  88.812  -9.549  0.00  0.00    +0.000 A 
ATOM      3  C   UNL     1     -32.251  87.436  -9.521  0.00  0.00    +0.000 A 
ATOM      4  C   UNL     1     -31.480  89.683  -9.105  0.00  0.00    +0.000 A 
ATOM      5  C   UNL     1     -31.040  86.942  -9.047  0.00  0.00    +0.000 A 
ATOM      6  C   UNL     1     -30.266  89.188  -8.632  0.00  0.00    +0.000 A 
ATOM      7  C   UNL     1     -30.054  87.812  -8.580  0.00  0.00    +0.000 A 
ENDROOT
BRANCH   2   8
ATOM      8  N   UNL     1     -33.678  89.379 -10.016  0.00  0.00    +0.000 N 
ATOM      9  C   UNL     1     -34.780  89.684  -9.234  0.00  0.00    +0.000 C 
ATOM     10  O   UNL     1     -34.891  89.487  -8.031  0.00  0.00    +0.000 OA
ATOM     11  H   UNL     1     -33.749  89.537 -11.017  0.00  0.00    +0.000 HD
BRANCH   9  12
ATOM     12  C   UNL     1     -35.941  90.259  -9.992  0.00  0.00    +0.000 C 
ATOM     13  C   UNL     1     -36.579  89.418 -10.998  0.00  0.00    +0.000 C 
ATOM     14  C   UNL     1     -35.735  90.572 -11.401  0.00  0.00    +0.000 C 
BRANCH  12  15
ATOM     15  C   UNL     1     -36.829  91.162  -9.188  0.00  0.00    +0.000 C 
ATOM     16  O   UNL     1     -37.004  92.312  -9.573  0.00  0.00    +0.000 OA
ATOM     17  N   UNL     1     -37.418  90.566  -8.087  0.00  0.00    +0.000 N 
ATOM     18  H   UNL     1     -37.226  89.583  -7.918  0.00  0.00    +0.000 HD
BRANCH  17  19
ATOM     19  C   UNL     1     -38.298  91.199  -7.190  0.00  0.00    +0.000 A 
ATOM     20  C   UNL     1     -39.653  90.866  -7.265  0.00  0.00    +0.000 A 
ATOM     21  C   UNL     1     -40.574  91.459  -6.405  0.00  0.00    +0.000 A 
ATOM     22  C   UNL     1     -40.130  92.384  -5.467  0.00  0.00    +0.000 A 
ATOM     23  F   UNL     1     -41.013  92.954  -4.636  0.00  0.00    +0.000 F 
ATOM     24  C   UNL     1     -38.786  92.726  -5.375  0.00  0.00    +0.000 A 
ATOM     25  C   UNL     1     -37.872  92.129  -6.241  0.00  0.00    +0.000 A 
ENDBRANCH  17  19
ENDBRANCH  12  15
ENDBRANCH   9  12
ENDBRANCH   2   8
BRANCH   7  26
ATOM     26  O   UNL     1     -28.817  87.384  -8.166  0.00  0.00    +0.000 OA
BRANCH  26  27
ATOM     27  C   UNL     1     -27.833  87.273  -9.129  0.00  0.00    +0.000 A 
ATOM     28  C   UNL     1     -26.498  87.184  -8.703  0.00  0.00    +0.000 A 
ATOM     29  C   UNL     1     -25.507  87.014  -9.685  0.00  0.00    +0.000 A 
ATOM     30  C   UNL     1     -26.132  87.265  -7.350  0.00  0.00    +0.000 A 
ATOM     31  N   UNL     1     -25.798  86.926 -10.992  0.00  0.00    +0.000 NA
ATOM     32  C   UNL     1     -24.186  86.933  -9.270  0.00  0.00    +0.000 A 
ATOM     33  C   UNL     1     -27.097  87.003 -11.360  0.00  0.00    +0.000 A 
ATOM     34  C   UNL     1     -28.146  87.165 -10.479  0.00  0.00    +0.000 A 
ATOM     35  C   UNL     1     -23.814  87.011  -7.922  0.00  0.00    +0.000 A 
ATOM     36  C   UNL     1     -24.799  87.181  -6.948  0.00  0.00    +0.000 A 
BRANCH  36  37
ATOM     37  O   UNL     1     -24.382  87.259  -5.640  0.00  0.00    +0.000 OA
ATOM     38  C   UNL     1     -24.999  86.367  -4.752  0.00  0.00    +0.000 C 
ENDBRANCH  36  37
BRANCH  35  39
ATOM     39  O   UNL     1     -22.509  86.937  -7.495  0.00  0.00    +0.000 OA
BRANCH  39  40
ATOM     40  C   UNL     1     -21.908  88.111  -7.315  0.00  0.00    +0.000 C 
ATOM     41  C   UNL     1     -21.218  89.461  -7.091  0.00  0.00    +0.000 C 
BRANCH  41  42
ATOM     42  C   UNL     1     -20.525  90.809  -6.861  0.00  0.00    +0.000 C 
BRANCH  42  43
ATOM     43  N   UNL     1     -19.867  92.089  -6.642  0.00  0.00    +0.000 N 
ATOM     44  C   UNL     1     -20.651  92.801  -5.587  0.00  0.00    +0.000 C 
ATOM     45  C   UNL     1     -20.248  93.116  -4.110  0.00  0.00    +0.000 C 
ATOM     46  O   UNL     1     -19.160  92.870  -3.349  0.00  0.00    +0.000 OA
ATOM     47  C   UNL     1     -18.453  92.221  -4.298  0.00  0.00    +0.000 C 
ATOM     48  C   UNL     1     -18.672  91.818  -5.788  0.00  0.00    +0.000 C 
ENDBRANCH  42  43
ENDBRANCH  41  42
ENDBRANCH  39  40
ENDBRANCH  35  39
ENDBRANCH  26  27
ENDBRANCH   7  26
TORSDOF 11
ENDMDL
