MODEL 1
REMARK VINA RESULT:      -4.6      0.000      0.000
REMARK  Name = 
REMARK  7 active torsions:
REMARK  status: ('A' for Active; 'I' for Inactive)
REMARK    1  A    between atoms: S_1  and  O_3
REMARK    2  A    between atoms: S_1  and  O_6
REMARK    3  A    between atoms: O_3  and  C_9
REMARK    4  A    between atoms: O_4  and  C_10
REMARK    5  A    between atoms: O_5  and  C_11
REMARK    6  A    between atoms: C_12  and  C_14
REMARK    7  A    between atoms: C_13  and  C_15
REMARK                            x       y       z     vdW  Elec       q    Type
REMARK                         _______ _______ _______ _____ _____    ______ ____
ROOT
ATOM      1  O   UNL     1     -35.872  99.320  14.631  0.00  0.00    +0.000 OA
ATOM      2  C   UNL     1     -33.781 100.275  15.483  0.00  0.00    +0.000 C 
ATOM      3  C   UNL     1     -33.885 101.396  14.439  0.00  0.00    +0.000 C 
ATOM      4  C   UNL     1     -34.699 100.941  13.220  0.00  0.00    +0.000 C 
ATOM      5  C   UNL     1     -35.193  99.758  15.815  0.00  0.00    +0.000 C 
ATOM      6  C   UNL     1     -36.051 100.369  13.668  0.00  0.00    +0.000 C 
ATOM      7  C   UNL     1     -35.157  98.576  16.777  0.00  0.00    +0.000 C 
ATOM      8  C   UNL     1     -36.829  99.786  12.493  0.00  0.00    +0.000 C 
ENDROOT
BRANCH   3   9
ATOM      9  O   UNL     1     -32.606 101.847  13.969  0.00  0.00    +0.000 OA
ATOM     10  H   UNL     1     -32.574 102.825  14.015  0.00  0.00    +0.000 HD
ENDBRANCH   3   9
BRANCH   4  11
ATOM     11  O   UNL     1     -34.880 102.060  12.346  0.00  0.00    +0.000 OA
ATOM     12  H   UNL     1     -34.809 102.845  12.926  0.00  0.00    +0.000 HD
ENDBRANCH   4  11
BRANCH   2  13
ATOM     13  O   UNL     1     -32.990  99.206  14.958  0.00  0.00    +0.000 OA
BRANCH  13  14
ATOM     14  S   UNL     1     -31.495  98.989  15.545  0.00  0.00    +0.000 S 
ATOM     15  O   UNL     1     -31.358  99.787  16.740  0.00  0.00    +0.000 OA
ATOM     16  O   UNL     1     -31.179  97.578  15.510  0.00  0.00    +0.000 OA
BRANCH  14  17
ATOM     17  O   UNL     1     -30.596  99.723  14.432  0.00  0.00    +0.000 OA
ATOM     18  H   UNL     1     -30.605  99.154  13.634  0.00  0.00    +0.000 HD
ENDBRANCH  14  17
ENDBRANCH  13  14
ENDBRANCH   2  13
TORSDOF 5
ENDMDL
MODEL 2
REMARK VINA RESULT:      -4.5      2.879      5.197
REMARK  Name = 
REMARK  7 active torsions:
REMARK  status: ('A' for Active; 'I' for Inactive)
REMARK    1  A    between atoms: S_1  and  O_3
REMARK    2  A    between atoms: S_1  and  O_6
REMARK    3  A    between atoms: O_3  and  C_9
REMARK    4  A    between atoms: O_4  and  C_10
REMARK    5  A    between atoms: O_5  and  C_11
REMARK    6  A    between atoms: C_12  and  C_14
REMARK    7  A    between atoms: C_13  and  C_15
REMARK                            x       y       z     vdW  Elec       q    Type
REMARK                         _______ _______ _______ _____ _____    ______ ____
ROOT
ATOM      1  O   UNL     1     -35.545  99.512  14.942  0.00  0.00    +0.000 OA
ATOM      2  C   UNL     1     -36.302 100.907  13.072  0.00  0.00    +0.000 C 
ATOM      3  C   UNL     1     -34.840 101.272  12.773  0.00  0.00    +0.000 C 
ATOM      4  C   UNL     1     -33.974 101.156  14.035  0.00  0.00    +0.000 C 
ATOM      5  C   UNL     1     -36.350  99.528  13.755  0.00  0.00    +0.000 C 
ATOM      6  C   UNL     1     -34.159  99.776  14.681  0.00  0.00    +0.000 C 
ATOM      7  C   UNL     1     -37.767  99.144  14.166  0.00  0.00    +0.000 C 
ATOM      8  C   UNL     1     -33.416  99.676  16.008  0.00  0.00    +0.000 C 
ENDROOT
BRANCH   3   9
ATOM      9  O   UNL     1     -34.688 102.603  12.257  0.00  0.00    +0.000 OA
ATOM     10  H   UNL     1     -35.462 103.141  12.525  0.00  0.00    +0.000 HD
ENDBRANCH   3   9
BRANCH   4  11
ATOM     11  O   UNL     1     -32.606 101.373  13.673  0.00  0.00    +0.000 OA
ATOM     12  H   UNL     1     -32.614 102.195  13.142  0.00  0.00    +0.000 HD
ENDBRANCH   4  11
BRANCH   2  13
ATOM     13  O   UNL     1     -36.872 101.891  13.937  0.00  0.00    +0.000 OA
BRANCH  13  14
ATOM     14  S   UNL     1     -38.006 102.882  13.339  0.00  0.00    +0.000 S 
ATOM     15  O   UNL     1     -39.049 103.025  14.328  0.00  0.00    +0.000 OA
ATOM     16  O   UNL     1     -37.357 104.019  12.722  0.00  0.00    +0.000 OA
BRANCH  14  17
ATOM     17  O   UNL     1     -38.644 101.983  12.168  0.00  0.00    +0.000 OA
ATOM     18  H   UNL     1     -39.473 101.598  12.521  0.00  0.00    +0.000 HD
ENDBRANCH  14  17
ENDBRANCH  13  14
ENDBRANCH   2  13
TORSDOF 5
ENDMDL
MODEL 3
REMARK VINA RESULT:      -4.4     23.929     24.843
REMARK  Name = 
REMARK  7 active torsions:
REMARK  status: ('A' for Active; 'I' for Inactive)
REMARK    1  A    between atoms: S_1  and  O_3
REMARK    2  A    between atoms: S_1  and  O_6
REMARK    3  A    between atoms: O_3  and  C_9
REMARK    4  A    between atoms: O_4  and  C_10
REMARK    5  A    between atoms: O_5  and  C_11
REMARK    6  A    between atoms: C_12  and  C_14
REMARK    7  A    between atoms: C_13  and  C_15
REMARK                            x       y       z     vdW  Elec       q    Type
REMARK                         _______ _______ _______ _____ _____    ______ ____
ROOT
ATOM      1  O   UNL     1     -25.269  88.058  -6.264  0.00  0.00    +0.000 OA
ATOM      2  C   UNL     1     -23.753  89.450  -4.931  0.00  0.00    +0.000 C 
ATOM      3  C   UNL     1     -24.912  90.417  -4.650  0.00  0.00    +0.000 C 
ATOM      4  C   UNL     1     -25.968  90.351  -5.762  0.00  0.00    +0.000 C 
ATOM      5  C   UNL     1     -24.319  88.042  -5.190  0.00  0.00    +0.000 C 
ATOM      6  C   UNL     1     -26.402  88.897  -5.995  0.00  0.00    +0.000 C 
ATOM      7  C   UNL     1     -23.227  87.049  -5.570  0.00  0.00    +0.000 C 
ATOM      8  C   UNL     1     -27.350  88.780  -7.183  0.00  0.00    +0.000 C 
ENDROOT
BRANCH   3   9
ATOM      9  O   UNL     1     -24.488  91.783  -4.529  0.00  0.00    +0.000 OA
ATOM     10  H   UNL     1     -24.881  92.306  -5.259  0.00  0.00    +0.000 HD
ENDBRANCH   3   9
BRANCH   4  11
ATOM     11  O   UNL     1     -27.083  91.164  -5.385  0.00  0.00    +0.000 OA
ATOM     12  H   UNL     1     -27.636  91.222  -6.191  0.00  0.00    +0.000 HD
ENDBRANCH   4  11
BRANCH   2  13
ATOM     13  O   UNL     1     -23.028  89.895  -6.079  0.00  0.00    +0.000 OA
BRANCH  13  14
ATOM     14  S   UNL     1     -21.585  90.598  -5.858  0.00  0.00    +0.000 S 
ATOM     15  O   UNL     1     -21.782  92.026  -5.793  0.00  0.00    +0.000 OA
ATOM     16  O   UNL     1     -20.856  89.865  -4.846  0.00  0.00    +0.000 OA
BRANCH  14  17
ATOM     17  O   UNL     1     -20.869  90.327  -7.273  0.00  0.00    +0.000 OA
ATOM     18  H   UNL     1     -20.701  89.363  -7.330  0.00  0.00    +0.000 HD
ENDBRANCH  14  17
ENDBRANCH  13  14
ENDBRANCH   2  13
TORSDOF 5
ENDMDL
MODEL 4
REMARK VINA RESULT:      -4.3     20.225     21.413
REMARK  Name = 
REMARK  7 active torsions:
REMARK  status: ('A' for Active; 'I' for Inactive)
REMARK    1  A    between atoms: S_1  and  O_3
REMARK    2  A    between atoms: S_1  and  O_6
REMARK    3  A    between atoms: O_3  and  C_9
REMARK    4  A    between atoms: O_4  and  C_10
REMARK    5  A    between atoms: O_5  and  C_11
REMARK    6  A    between atoms: C_12  and  C_14
REMARK    7  A    between atoms: C_13  and  C_15
REMARK                            x       y       z     vdW  Elec       q    Type
REMARK                         _______ _______ _______ _____ _____    ______ ____
ROOT
ATOM      1  O   UNL     1     -20.324  88.302   3.676  0.00  0.00    +0.000 OA
ATOM      2  C   UNL     1     -22.205  87.554   2.291  0.00  0.00    +0.000 C 
ATOM      3  C   UNL     1     -23.169  87.928   3.426  0.00  0.00    +0.000 C 
ATOM      4  C   UNL     1     -22.464  87.879   4.788  0.00  0.00    +0.000 C 
ATOM      5  C   UNL     1     -20.942  88.431   2.389  0.00  0.00    +0.000 C 
ATOM      6  C   UNL     1     -21.179  88.717   4.751  0.00  0.00    +0.000 C 
ATOM      7  C   UNL     1     -19.898  88.046   1.346  0.00  0.00    +0.000 C 
ATOM      8  C   UNL     1     -20.385  88.582   6.045  0.00  0.00    +0.000 C 
ENDROOT
BRANCH   3   9
ATOM      9  O   UNL     1     -24.316  87.068   3.495  0.00  0.00    +0.000 OA
ATOM     10  H   UNL     1     -24.664  86.924   2.590  0.00  0.00    +0.000 HD
ENDBRANCH   3   9
BRANCH   4  11
ATOM     11  O   UNL     1     -23.364  88.366   5.789  0.00  0.00    +0.000 OA
ATOM     12  H   UNL     1     -24.233  88.419   5.340  0.00  0.00    +0.000 HD
ENDBRANCH   4  11
BRANCH   2  13
ATOM     13  O   UNL     1     -21.842  86.177   2.408  0.00  0.00    +0.000 OA
BRANCH  13  14
ATOM     14  S   UNL     1     -22.335  85.146   1.258  0.00  0.00    +0.000 S 
ATOM     15  O   UNL     1     -21.768  85.568  -0.001  0.00  0.00    +0.000 OA
ATOM     16  O   UNL     1     -22.209  83.794   1.756  0.00  0.00    +0.000 OA
BRANCH  14  17
ATOM     17  O   UNL     1     -23.904  85.491   1.160  0.00  0.00    +0.000 OA
ATOM     18  H   UNL     1     -24.380  84.638   1.081  0.00  0.00    +0.000 HD
ENDBRANCH  14  17
ENDBRANCH  13  14
ENDBRANCH   2  13
TORSDOF 5
ENDMDL
MODEL 5
REMARK VINA RESULT:      -4.3     23.052     24.473
REMARK  Name = 
REMARK  7 active torsions:
REMARK  status: ('A' for Active; 'I' for Inactive)
REMARK    1  A    between atoms: S_1  and  O_3
REMARK    2  A    between atoms: S_1  and  O_6
REMARK    3  A    between atoms: O_3  and  C_9
REMARK    4  A    between atoms: O_4  and  C_10
REMARK    5  A    between atoms: O_5  and  C_11
REMARK    6  A    between atoms: C_12  and  C_14
REMARK    7  A    between atoms: C_13  and  C_15
REMARK                            x       y       z     vdW  Elec       q    Type
REMARK                         _______ _______ _______ _____ _____    ______ ____
ROOT
ATOM      1  O   UNL     1     -22.609 101.147  -8.951  0.00  0.00    +0.000 OA
ATOM      2  C   UNL     1     -23.467 102.393  -7.021  0.00  0.00    +0.000 C 
ATOM      3  C   UNL     1     -22.107 102.226  -6.328  0.00  0.00    +0.000 C 
ATOM      4  C   UNL     1     -21.375 100.979  -6.843  0.00  0.00    +0.000 C 
ATOM      5  C   UNL     1     -23.267 102.356  -8.547  0.00  0.00    +0.000 C 
ATOM      6  C   UNL     1     -21.303 101.002  -8.376  0.00  0.00    +0.000 C 
ATOM      7  C   UNL     1     -24.591 102.422  -9.298  0.00  0.00    +0.000 C 
ATOM      8  C   UNL     1     -20.700  99.714  -8.927  0.00  0.00    +0.000 C 
ENDROOT
BRANCH   3   9
ATOM      9  O   UNL     1     -22.214 102.113  -4.901  0.00  0.00    +0.000 OA
ATOM     10  H   UNL     1     -22.943 102.687  -4.587  0.00  0.00    +0.000 HD
ENDBRANCH   3   9
BRANCH   4  11
ATOM     11  O   UNL     1     -20.064 100.947  -6.269  0.00  0.00    +0.000 OA
ATOM     12  H   UNL     1     -20.197 100.610  -5.359  0.00  0.00    +0.000 HD
ENDBRANCH   4  11
BRANCH   2  13
ATOM     13  O   UNL     1     -24.338 101.331  -6.625  0.00  0.00    +0.000 OA
BRANCH  13  14
ATOM     14  S   UNL     1     -25.660 101.695  -5.763  0.00  0.00    +0.000 S 
ATOM     15  O   UNL     1     -25.265 102.549  -4.668  0.00  0.00    +0.000 OA
ATOM     16  O   UNL     1     -26.732 102.039  -6.671  0.00  0.00    +0.000 OA
BRANCH  14  17
ATOM     17  O   UNL     1     -26.017 100.276  -5.094  0.00  0.00    +0.000 OA
ATOM     18  H   UNL     1     -26.992 100.241  -4.999  0.00  0.00    +0.000 HD
ENDBRANCH  14  17
ENDBRANCH  13  14
ENDBRANCH   2  13
TORSDOF 5
ENDMDL
MODEL 6
REMARK VINA RESULT:      -4.3     19.641     20.625
REMARK  Name = 
REMARK  7 active torsions:
REMARK  status: ('A' for Active; 'I' for Inactive)
REMARK    1  A    between atoms: S_1  and  O_3
REMARK    2  A    between atoms: S_1  and  O_6
REMARK    3  A    between atoms: O_3  and  C_9
REMARK    4  A    between atoms: O_4  and  C_10
REMARK    5  A    between atoms: O_5  and  C_11
REMARK    6  A    between atoms: C_12  and  C_14
REMARK    7  A    between atoms: C_13  and  C_15
REMARK                            x       y       z     vdW  Elec       q    Type
REMARK                         _______ _______ _______ _____ _____    ______ ____
ROOT
ATOM      1  O   UNL     1     -21.199  85.777   3.078  0.00  0.00    +0.000 OA
ATOM      2  C   UNL     1     -21.122  87.026   5.187  0.00  0.00    +0.000 C 
ATOM      3  C   UNL     1     -22.647  87.190   5.128  0.00  0.00    +0.000 C 
ATOM      4  C   UNL     1     -23.154  87.122   3.680  0.00  0.00    +0.000 C 
ATOM      5  C   UNL     1     -20.719  85.747   4.429  0.00  0.00    +0.000 C 
ATOM      6  C   UNL     1     -22.629  85.853   2.994  0.00  0.00    +0.000 C 
ATOM      7  C   UNL     1     -19.206  85.573   4.367  0.00  0.00    +0.000 C 
ATOM      8  C   UNL     1     -23.004  85.822   1.517  0.00  0.00    +0.000 C 
ENDROOT
BRANCH   3   9
ATOM      9  O   UNL     1     -23.101  88.428   5.694  0.00  0.00    +0.000 OA
ATOM     10  H   UNL     1     -23.129  88.344   6.670  0.00  0.00    +0.000 HD
ENDBRANCH   3   9
BRANCH   4  11
ATOM     11  O   UNL     1     -24.585  87.142   3.695  0.00  0.00    +0.000 OA
ATOM     12  H   UNL     1     -24.848  86.913   2.780  0.00  0.00    +0.000 HD
ENDBRANCH   4  11
BRANCH   2  13
ATOM     13  O   UNL     1     -20.496  88.159   4.581  0.00  0.00    +0.000 OA
BRANCH  13  14
ATOM     14  S   UNL     1     -19.561  89.111   5.501  0.00  0.00    +0.000 S 
ATOM     15  O   UNL     1     -18.604  88.276   6.189  0.00  0.00    +0.000 OA
ATOM     16  O   UNL     1     -19.170  90.270   4.729  0.00  0.00    +0.000 OA
BRANCH  14  17
ATOM     17  O   UNL     1     -20.598  89.597   6.630  0.00  0.00    +0.000 OA
ATOM     18  H   UNL     1     -21.114  90.337   6.247  0.00  0.00    +0.000 HD
ENDBRANCH  14  17
ENDBRANCH  13  14
ENDBRANCH   2  13
TORSDOF 5
ENDMDL
MODEL 7
REMARK VINA RESULT:      -4.3      3.818      5.253
REMARK  Name = 
REMARK  7 active torsions:
REMARK  status: ('A' for Active; 'I' for Inactive)
REMARK    1  A    between atoms: S_1  and  O_3
REMARK    2  A    between atoms: S_1  and  O_6
REMARK    3  A    between atoms: O_3  and  C_9
REMARK    4  A    between atoms: O_4  and  C_10
REMARK    5  A    between atoms: O_5  and  C_11
REMARK    6  A    between atoms: C_12  and  C_14
REMARK    7  A    between atoms: C_13  and  C_15
REMARK                            x       y       z     vdW  Elec       q    Type
REMARK                         _______ _______ _______ _____ _____    ______ ____
ROOT
ATOM      1  O   UNL     1     -38.609 102.814  15.917  0.00  0.00    +0.000 OA
ATOM      2  C   UNL     1     -37.303 102.437  13.876  0.00  0.00    +0.000 C 
ATOM      3  C   UNL     1     -38.609 102.341  13.076  0.00  0.00    +0.000 C 
ATOM      4  C   UNL     1     -39.773 101.891  13.971  0.00  0.00    +0.000 C 
ATOM      5  C   UNL     1     -37.532 103.320  15.117  0.00  0.00    +0.000 C 
ATOM      6  C   UNL     1     -39.860 102.785  15.216  0.00  0.00    +0.000 C 
ATOM      7  C   UNL     1     -36.297 103.382  16.009  0.00  0.00    +0.000 C 
ATOM      8  C   UNL     1     -40.920 102.283  16.191  0.00  0.00    +0.000 C 
ENDROOT
BRANCH   3   9
ATOM      9  O   UNL     1     -38.527 101.427  11.972  0.00  0.00    +0.000 OA
ATOM     10  H   UNL     1     -38.861 101.869  11.164  0.00  0.00    +0.000 HD
ENDBRANCH   3   9
BRANCH   4  11
ATOM     11  O   UNL     1     -40.985 101.950  13.212  0.00  0.00    +0.000 OA
ATOM     12  H   UNL     1     -41.530 102.628  13.661  0.00  0.00    +0.000 HD
ENDBRANCH   4  11
BRANCH   2  13
ATOM     13  O   UNL     1     -36.897 101.130  14.286  0.00  0.00    +0.000 OA
BRANCH  13  14
ATOM     14  S   UNL     1     -35.759 100.366  13.421  0.00  0.00    +0.000 S 
ATOM     15  O   UNL     1     -35.414 101.198  12.292  0.00  0.00    +0.000 OA
ATOM     16  O   UNL     1     -34.765  99.829  14.324  0.00  0.00    +0.000 OA
BRANCH  14  17
ATOM     17  O   UNL     1     -36.587  99.131  12.808  0.00  0.00    +0.000 OA
ATOM     18  H   UNL     1     -36.877  98.577  13.563  0.00  0.00    +0.000 HD
ENDBRANCH  14  17
ENDBRANCH  13  14
ENDBRANCH   2  13
TORSDOF 5
ENDMDL
MODEL 8
REMARK VINA RESULT:      -4.0     15.821     17.515
REMARK  Name = 
REMARK  7 active torsions:
REMARK  status: ('A' for Active; 'I' for Inactive)
REMARK    1  A    between atoms: S_1  and  O_3
REMARK    2  A    between atoms: S_1  and  O_6
REMARK    3  A    between atoms: O_3  and  C_9
REMARK    4  A    between atoms: O_4  and  C_10
REMARK    5  A    between atoms: O_5  and  C_11
REMARK    6  A    between atoms: C_12  and  C_14
REMARK    7  A    between atoms: C_13  and  C_15
REMARK                            x       y       z     vdW  Elec       q    Type
REMARK                         _______ _______ _______ _____ _____    ______ ____
ROOT
ATOM      1  O   UNL     1     -20.054  89.685  22.458  0.00  0.00    +0.000 OA
ATOM      2  C   UNL     1     -20.539  91.933  21.607  0.00  0.00    +0.000 C 
ATOM      3  C   UNL     1     -21.799  91.385  20.922  0.00  0.00    +0.000 C 
ATOM      4  C   UNL     1     -21.654  89.887  20.616  0.00  0.00    +0.000 C 
ATOM      5  C   UNL     1     -20.208  91.060  22.832  0.00  0.00    +0.000 C 
ATOM      6  C   UNL     1     -21.243  89.125  21.883  0.00  0.00    +0.000 C 
ATOM      7  C   UNL     1     -18.911  91.492  23.506  0.00  0.00    +0.000 C 
ATOM      8  C   UNL     1     -20.960  87.657  21.585  0.00  0.00    +0.000 C 
ENDROOT
BRANCH   3   9
ATOM      9  O   UNL     1     -22.106  92.056  19.691  0.00  0.00    +0.000 OA
ATOM     10  H   UNL     1     -22.428  92.960  19.890  0.00  0.00    +0.000 HD
ENDBRANCH   3   9
BRANCH   4  11
ATOM     11  O   UNL     1     -22.899  89.401  20.106  0.00  0.00    +0.000 OA
ATOM     12  H   UNL     1     -22.732  89.228  19.157  0.00  0.00    +0.000 HD
ENDBRANCH   4  11
BRANCH   2  13
ATOM     13  O   UNL     1     -19.445  91.904  20.688  0.00  0.00    +0.000 OA
BRANCH  13  14
ATOM     14  S   UNL     1     -18.911  93.307  20.076  0.00  0.00    +0.000 S 
ATOM     15  O   UNL     1     -19.649  94.381  20.698  0.00  0.00    +0.000 OA
ATOM     16  O   UNL     1     -17.466  93.278  20.032  0.00  0.00    +0.000 OA
BRANCH  14  17
ATOM     17  O   UNL     1     -19.453  93.232  18.564  0.00  0.00    +0.000 OA
ATOM     18  H   UNL     1     -18.715  92.900  18.011  0.00  0.00    +0.000 HD
ENDBRANCH  14  17
ENDBRANCH  13  14
ENDBRANCH   2  13
TORSDOF 5
ENDMDL
MODEL 9
REMARK VINA RESULT:      -3.9     12.773     14.148
REMARK  Name = 
REMARK  7 active torsions:
REMARK  status: ('A' for Active; 'I' for Inactive)
REMARK    1  A    between atoms: S_1  and  O_3
REMARK    2  A    between atoms: S_1  and  O_6
REMARK    3  A    between atoms: O_3  and  C_9
REMARK    4  A    between atoms: O_4  and  C_10
REMARK    5  A    between atoms: O_5  and  C_11
REMARK    6  A    between atoms: C_12  and  C_14
REMARK    7  A    between atoms: C_13  and  C_15
REMARK                            x       y       z     vdW  Elec       q    Type
REMARK                         _______ _______ _______ _____ _____    ______ ____
ROOT
ATOM      1  O   UNL     1     -20.789  99.678   6.324  0.00  0.00    +0.000 OA
ATOM      2  C   UNL     1     -21.831 100.219   8.476  0.00  0.00    +0.000 C 
ATOM      3  C   UNL     1     -23.187 100.353   7.769  0.00  0.00    +0.000 C 
ATOM      4  C   UNL     1     -23.004 100.720   6.290  0.00  0.00    +0.000 C 
ATOM      5  C   UNL     1     -20.939  99.247   7.683  0.00  0.00    +0.000 C 
ATOM      6  C   UNL     1     -22.036  99.738   5.616  0.00  0.00    +0.000 C 
ATOM      7  C   UNL     1     -19.540  99.140   8.278  0.00  0.00    +0.000 C 
ATOM      8  C   UNL     1     -21.729 100.153   4.181  0.00  0.00    +0.000 C 
ENDROOT
BRANCH   3   9
ATOM      9  O   UNL     1     -24.036 101.345   8.365  0.00  0.00    +0.000 OA
ATOM     10  H   UNL     1     -23.487 102.098   8.666  0.00  0.00    +0.000 HD
ENDBRANCH   3   9
BRANCH   4  11
ATOM     11  O   UNL     1     -24.285 100.697   5.651  0.00  0.00    +0.000 OA
ATOM     12  H   UNL     1     -24.371 101.578   5.230  0.00  0.00    +0.000 HD
ENDBRANCH   4  11
BRANCH   2  13
ATOM     13  O   UNL     1     -21.200 101.500   8.546  0.00  0.00    +0.000 OA
BRANCH  13  14
ATOM     14  S   UNL     1     -21.039 102.206   9.995  0.00  0.00    +0.000 S 
ATOM     15  O   UNL     1     -20.908 101.169  10.992  0.00  0.00    +0.000 OA
ATOM     16  O   UNL     1     -20.100 103.300   9.882  0.00  0.00    +0.000 OA
BRANCH  14  17
ATOM     17  O   UNL     1     -22.503 102.834  10.219  0.00  0.00    +0.000 OA
ATOM     18  H   UNL     1     -22.412 103.543  10.889  0.00  0.00    +0.000 HD
ENDBRANCH  14  17
ENDBRANCH  13  14
ENDBRANCH   2  13
TORSDOF 5
ENDMDL
