MODEL 1
REMARK VINA RESULT:      -6.4      0.000      0.000
REMARK  Name = Fulvestrant.pdbqt.pdb
REMARK  12 active torsions:
REMARK  status: ('A' for Active; 'I' for Inactive)
REMARK    1  A    between atoms: C_6  and  O_40
REMARK    2  A    between atoms: C_8  and  C_19
REMARK    3  A    between atoms: C_18  and  O_42
REMARK    4  A    between atoms: C_20  and  C_21
REMARK    5  A    between atoms: C_22  and  C_23
REMARK    6  A    between atoms: C_23  and  C_24
REMARK    7  A    between atoms: C_25  and  C_26
REMARK    8  A    between atoms: C_27  and  S_28
REMARK    9  A    between atoms: S_28  and  C_30
REMARK   10  A    between atoms: C_30  and  C_31
REMARK   11  A    between atoms: C_32  and  C_33
REMARK   12  A    between atoms: C_33  and  C_36
REMARK                            x       y       z     vdW  Elec       q    Type
REMARK                         _______ _______ _______ _____ _____    ______ ____
ROOT
ATOM      1  C   UNL     1     -23.654 103.476   0.705  0.00  0.00    +0.000 C 
ATOM      2  C   UNL     1     -23.442 102.610   2.039  0.00  0.00    +0.000 C 
ATOM      3  C   UNL     1     -24.715 104.524   0.552  0.00  0.00    +0.000 A 
ATOM      4  C   UNL     1     -25.418 105.140   1.779  0.00  0.00    +0.000 A 
ATOM      5  C   UNL     1     -24.084 103.366   3.109  0.00  0.00    +0.000 C 
ATOM      6  C   UNL     1     -21.904 102.546   2.168  0.00  0.00    +0.000 C 
ATOM      7  C   UNL     1     -22.351 103.703   0.153  0.00  0.00    +0.000 C 
ATOM      8  C   UNL     1     -25.130 105.035  -0.781  0.00  0.00    +0.000 A 
ATOM      9  C   UNL     1     -25.015 104.541   2.996  0.00  0.00    +0.000 C 
ATOM     10  C   UNL     1     -21.273 103.158   1.052  0.00  0.00    +0.000 C 
ATOM     11  C   UNL     1     -24.033 101.195   1.812  0.00  0.00    +0.000 C 
ATOM     12  C   UNL     1     -26.449 106.212   1.685  0.00  0.00    +0.000 A 
ATOM     13  C   UNL     1     -26.108 106.051  -0.656  0.00  0.00    +0.000 A 
ATOM     14  C   UNL     1     -26.806 106.688   0.401  0.00  0.00    +0.000 A 
ATOM     15  C   UNL     1     -27.075 106.762   2.801  0.00  0.00    +0.000 A 
ATOM     16  C   UNL     1     -27.756 107.681   0.219  0.00  0.00    +0.000 A 
ATOM     17  C   UNL     1     -28.033 107.763   2.634  0.00  0.00    +0.000 A 
ATOM     18  C   UNL     1     -28.364 108.210   1.354  0.00  0.00    +0.000 A 
ENDROOT
BRANCH   8  19
ATOM     19  C   UNL     1     -24.734 104.445  -2.005  0.00  0.00    +0.000 C 
ATOM     20  C   UNL     1     -24.317 103.822  -3.341  0.00  0.00    +0.000 C 
BRANCH  20  21
ATOM     21  C   UNL     1     -23.918 103.217  -4.690  0.00  0.00    +0.000 C 
ATOM     22  C   UNL     1     -23.544 102.628  -6.054  0.00  0.00    +0.000 C 
BRANCH  22  23
ATOM     23  C   UNL     1     -23.198 102.053  -7.431  0.00  0.00    +0.000 C 
BRANCH  23  24
ATOM     24  C   UNL     1     -22.884 101.463  -8.810  0.00  0.00    +0.000 C 
ATOM     25  C   UNL     1     -22.536 100.876 -10.181  0.00  0.00    +0.000 C 
BRANCH  25  26
ATOM     26  C   UNL     1     -22.154 100.293 -11.545  0.00  0.00    +0.000 C 
ATOM     27  C   UNL     1     -21.793  99.736 -12.926  0.00  0.00    +0.000 C 
BRANCH  27  28
ATOM     28  S   UNL     1     -21.401  99.118 -14.527  0.00  0.00    +0.000 S 
ATOM     29  O   UNL     1     -20.815  97.859 -13.960  0.00  0.00    +0.000 OA
BRANCH  28  30
ATOM     30  C   UNL     1     -22.976  98.362 -14.745  0.00  0.00    +0.000 C 
BRANCH  30  31
ATOM     31  C   UNL     1     -24.346  97.709 -14.960  0.00  0.00    +0.000 C 
ATOM     32  C   UNL     1     -25.722  97.064 -15.158  0.00  0.00    +0.000 C 
BRANCH  32  33
ATOM     33  C   UNL     1     -27.041  96.450 -15.339  0.00  0.00    +0.000 C 
ATOM     34  F   UNL     1     -26.861  95.238 -15.934  0.00  0.00    +0.000 F 
ATOM     35  F   UNL     1     -27.732  97.208 -16.236  0.00  0.00    +0.000 F 
BRANCH  33  36
ATOM     36  C   UNL     1     -27.825  96.304 -14.031  0.00  0.00    +0.000 C 
ATOM     37  F   UNL     1     -28.508  95.132 -13.976  0.00  0.00    +0.000 F 
ATOM     38  F   UNL     1     -28.734  97.297 -13.866  0.00  0.00    +0.000 F 
ATOM     39  F   UNL     1     -27.009  96.334 -12.947  0.00  0.00    +0.000 F 
ENDBRANCH  33  36
ENDBRANCH  32  33
ENDBRANCH  30  31
ENDBRANCH  28  30
ENDBRANCH  27  28
ENDBRANCH  25  26
ENDBRANCH  23  24
ENDBRANCH  22  23
ENDBRANCH  20  21
ENDBRANCH   8  19
BRANCH   6  40
ATOM     40  O   UNL     1     -21.263 102.382   3.378  0.00  0.00    +0.000 OA
ATOM     41  H   UNL     1     -20.330 102.130   3.262  0.00  0.00    +0.000 HD
ENDBRANCH   6  40
BRANCH  18  42
ATOM     42  O   UNL     1     -29.308 109.191   1.240  0.00  0.00    +0.000 OA
ATOM     43  H   UNL     1     -29.715 109.125   0.358  0.00  0.00    +0.000 HD
ENDBRANCH  18  42
TORSDOF 12
ENDMDL
MODEL 2
REMARK VINA RESULT:      -6.4      9.530     12.665
REMARK  Name = Fulvestrant.pdbqt.pdb
REMARK  12 active torsions:
REMARK  status: ('A' for Active; 'I' for Inactive)
REMARK    1  A    between atoms: C_6  and  O_40
REMARK    2  A    between atoms: C_8  and  C_19
REMARK    3  A    between atoms: C_18  and  O_42
REMARK    4  A    between atoms: C_20  and  C_21
REMARK    5  A    between atoms: C_22  and  C_23
REMARK    6  A    between atoms: C_23  and  C_24
REMARK    7  A    between atoms: C_25  and  C_26
REMARK    8  A    between atoms: C_27  and  S_28
REMARK    9  A    between atoms: S_28  and  C_30
REMARK   10  A    between atoms: C_30  and  C_31
REMARK   11  A    between atoms: C_32  and  C_33
REMARK   12  A    between atoms: C_33  and  C_36
REMARK                            x       y       z     vdW  Elec       q    Type
REMARK                         _______ _______ _______ _____ _____    ______ ____
ROOT
ATOM      1  C   UNL     1     -21.218 100.309   6.942  0.00  0.00    +0.000 C 
ATOM      2  C   UNL     1     -20.652 100.753   8.376  0.00  0.00    +0.000 C 
ATOM      3  C   UNL     1     -20.619  99.214   6.114  0.00  0.00    +0.000 A 
ATOM      4  C   UNL     1     -19.678  98.159   6.734  0.00  0.00    +0.000 A 
ATOM      5  C   UNL     1     -19.866  99.624   8.859  0.00  0.00    +0.000 C 
ATOM      6  C   UNL     1     -21.940 101.000   9.193  0.00  0.00    +0.000 C 
ATOM      7  C   UNL     1     -22.642 100.453   7.000  0.00  0.00    +0.000 C 
ATOM      8  C   UNL     1     -20.911  99.074   4.662  0.00  0.00    +0.000 A 
ATOM      9  C   UNL     1     -19.398  98.415   8.098  0.00  0.00    +0.000 C 
ATOM     10  C   UNL     1     -23.096 100.853   8.380  0.00  0.00    +0.000 C 
ATOM     11  C   UNL     1     -19.849 102.068   8.209  0.00  0.00    +0.000 C 
ATOM     12  C   UNL     1     -19.090  97.027   5.965  0.00  0.00    +0.000 A 
ATOM     13  C   UNL     1     -20.267  97.936   4.119  0.00  0.00    +0.000 A 
ATOM     14  C   UNL     1     -19.404  96.914   4.590  0.00  0.00    +0.000 A 
ATOM     15  C   UNL     1     -18.244  96.080   6.538  0.00  0.00    +0.000 A 
ATOM     16  C   UNL     1     -18.900  95.895   3.798  0.00  0.00    +0.000 A 
ATOM     17  C   UNL     1     -17.728  95.047   5.754  0.00  0.00    +0.000 A 
ATOM     18  C   UNL     1     -18.058  94.965   4.400  0.00  0.00    +0.000 A 
ENDROOT
BRANCH   8  19
ATOM     19  C   UNL     1     -21.586 100.057   3.900  0.00  0.00    +0.000 C 
ATOM     20  C   UNL     1     -22.325 101.106   3.062  0.00  0.00    +0.000 C 
BRANCH  20  21
ATOM     21  C   UNL     1     -23.073 102.132   2.207  0.00  0.00    +0.000 C 
ATOM     22  C   UNL     1     -23.849 103.147   1.362  0.00  0.00    +0.000 C 
BRANCH  22  23
ATOM     23  C   UNL     1     -24.655 104.146   0.525  0.00  0.00    +0.000 C 
BRANCH  23  24
ATOM     24  C   UNL     1     -25.490 105.127  -0.303  0.00  0.00    +0.000 C 
ATOM     25  C   UNL     1     -26.344 106.080  -1.145  0.00  0.00    +0.000 C 
BRANCH  25  26
ATOM     26  C   UNL     1     -27.213 107.006  -2.002  0.00  0.00    +0.000 C 
ATOM     27  C   UNL     1     -28.085 107.955  -2.831  0.00  0.00    +0.000 C 
BRANCH  27  28
ATOM     28  S   UNL     1     -29.092 109.065  -3.754  0.00  0.00    +0.000 S 
ATOM     29  O   UNL     1     -28.588 108.526  -5.060  0.00  0.00    +0.000 OA
BRANCH  28  30
ATOM     30  C   UNL     1     -30.477 107.978  -3.767  0.00  0.00    +0.000 C 
BRANCH  30  31
ATOM     31  C   UNL     1     -31.677 107.024  -3.756  0.00  0.00    +0.000 C 
ATOM     32  C   UNL     1     -32.876 106.071  -3.726  0.00  0.00    +0.000 C 
BRANCH  32  33
ATOM     33  C   UNL     1     -34.022 105.158  -3.688  0.00  0.00    +0.000 C 
ATOM     34  F   UNL     1     -34.013 104.425  -4.836  0.00  0.00    +0.000 F 
ATOM     35  F   UNL     1     -35.156 105.912  -3.735  0.00  0.00    +0.000 F 
BRANCH  33  36
ATOM     36  C   UNL     1     -34.029 104.244  -2.458  0.00  0.00    +0.000 C 
ATOM     37  F   UNL     1     -34.878 103.196  -2.608  0.00  0.00    +0.000 F 
ATOM     38  F   UNL     1     -34.407 104.901  -1.334  0.00  0.00    +0.000 F 
ATOM     39  F   UNL     1     -32.800 103.721  -2.213  0.00  0.00    +0.000 F 
ENDBRANCH  33  36
ENDBRANCH  32  33
ENDBRANCH  30  31
ENDBRANCH  28  30
ENDBRANCH  27  28
ENDBRANCH  25  26
ENDBRANCH  23  24
ENDBRANCH  22  23
ENDBRANCH  20  21
ENDBRANCH   8  19
BRANCH   6  40
ATOM     40  O   UNL     1     -21.987 100.882  10.567  0.00  0.00    +0.000 OA
ATOM     41  H   UNL     1     -21.247 101.349  10.994  0.00  0.00    +0.000 HD
ENDBRANCH   6  40
BRANCH  18  42
ATOM     42  O   UNL     1     -17.528  93.937   3.671  0.00  0.00    +0.000 OA
ATOM     43  H   UNL     1     -18.256  93.467   3.229  0.00  0.00    +0.000 HD
ENDBRANCH  18  42
TORSDOF 12
ENDMDL
MODEL 3
REMARK VINA RESULT:      -6.2      3.312      6.081
REMARK  Name = Fulvestrant.pdbqt.pdb
REMARK  12 active torsions:
REMARK  status: ('A' for Active; 'I' for Inactive)
REMARK    1  A    between atoms: C_6  and  O_40
REMARK    2  A    between atoms: C_8  and  C_19
REMARK    3  A    between atoms: C_18  and  O_42
REMARK    4  A    between atoms: C_20  and  C_21
REMARK    5  A    between atoms: C_22  and  C_23
REMARK    6  A    between atoms: C_23  and  C_24
REMARK    7  A    between atoms: C_25  and  C_26
REMARK    8  A    between atoms: C_27  and  S_28
REMARK    9  A    between atoms: S_28  and  C_30
REMARK   10  A    between atoms: C_30  and  C_31
REMARK   11  A    between atoms: C_32  and  C_33
REMARK   12  A    between atoms: C_33  and  C_36
REMARK                            x       y       z     vdW  Elec       q    Type
REMARK                         _______ _______ _______ _____ _____    ______ ____
ROOT
ATOM      1  C   UNL     1     -24.361 104.914   3.164  0.00  0.00    +0.000 C 
ATOM      2  C   UNL     1     -24.302 106.207   4.111  0.00  0.00    +0.000 C 
ATOM      3  C   UNL     1     -23.730 103.599   3.510  0.00  0.00    +0.000 A 
ATOM      4  C   UNL     1     -23.330 103.257   4.961  0.00  0.00    +0.000 A 
ATOM      5  C   UNL     1     -24.004 105.707   5.449  0.00  0.00    +0.000 C 
ATOM      6  C   UNL     1     -25.724 106.797   3.978  0.00  0.00    +0.000 C 
ATOM      7  C   UNL     1     -25.640 104.936   2.519  0.00  0.00    +0.000 C 
ATOM      8  C   UNL     1     -23.473 102.555   2.484  0.00  0.00    +0.000 A 
ATOM      9  C   UNL     1     -23.540 104.335   5.853  0.00  0.00    +0.000 C 
ATOM     10  C   UNL     1     -26.490 106.071   3.027  0.00  0.00    +0.000 C 
ATOM     11  C   UNL     1     -23.245 107.190   3.545  0.00  0.00    +0.000 C 
ATOM     12  C   UNL     1     -22.738 101.951   5.364  0.00  0.00    +0.000 A 
ATOM     13  C   UNL     1     -22.919 101.391   3.068  0.00  0.00    +0.000 A 
ATOM     14  C   UNL     1     -22.525 100.972   4.365  0.00  0.00    +0.000 A 
ATOM     15  C   UNL     1     -22.384 101.653   6.678  0.00  0.00    +0.000 A 
ATOM     16  C   UNL     1     -21.978  99.731   4.650  0.00  0.00    +0.000 A 
ATOM     17  C   UNL     1     -21.831 100.407   6.981  0.00  0.00    +0.000 A 
ATOM     18  C   UNL     1     -21.634  99.464   5.971  0.00  0.00    +0.000 A 
ENDROOT
BRANCH   8  19
ATOM     19  C   UNL     1     -23.595 102.777   1.091  0.00  0.00    +0.000 C 
ATOM     20  C   UNL     1     -23.745 103.026  -0.413  0.00  0.00    +0.000 C 
BRANCH  20  21
ATOM     21  C   UNL     1     -23.923 103.286  -1.911  0.00  0.00    +0.000 C 
ATOM     22  C   UNL     1     -24.125 103.525  -3.411  0.00  0.00    +0.000 C 
BRANCH  22  23
ATOM     23  C   UNL     1     -24.352 103.739  -4.911  0.00  0.00    +0.000 C 
BRANCH  23  24
ATOM     24  C   UNL     1     -24.599 103.925  -6.411  0.00  0.00    +0.000 C 
ATOM     25  C   UNL     1     -24.876 104.129  -7.904  0.00  0.00    +0.000 C 
BRANCH  25  26
ATOM     26  C   UNL     1     -25.185 104.348  -9.389  0.00  0.00    +0.000 C 
ATOM     27  C   UNL     1     -25.459 104.556 -10.881  0.00  0.00    +0.000 C 
BRANCH  27  28
ATOM     28  S   UNL     1     -25.740 104.786 -12.604  0.00  0.00    +0.000 S 
ATOM     29  O   UNL     1     -24.301 104.520 -12.933  0.00  0.00    +0.000 OA
BRANCH  28  30
ATOM     30  C   UNL     1     -26.178 103.102 -12.873  0.00  0.00    +0.000 C 
BRANCH  30  31
ATOM     31  C   UNL     1     -26.551 101.630 -13.086  0.00  0.00    +0.000 C 
ATOM     32  C   UNL     1     -26.918 100.155 -13.280  0.00  0.00    +0.000 C 
BRANCH  32  33
ATOM     33  C   UNL     1     -27.266  98.743 -13.458  0.00  0.00    +0.000 C 
ATOM     34  F   UNL     1     -28.610  98.665 -13.672  0.00  0.00    +0.000 F 
ATOM     35  F   UNL     1     -27.039  98.106 -12.275  0.00  0.00    +0.000 F 
BRANCH  33  36
ATOM     36  C   UNL     1     -26.494  98.067 -14.595  0.00  0.00    +0.000 C 
ATOM     37  F   UNL     1     -25.255  98.598 -14.756  0.00  0.00    +0.000 F 
ATOM     38  F   UNL     1     -27.131  98.184 -15.787  0.00  0.00    +0.000 F 
ATOM     39  F   UNL     1     -26.324  96.738 -14.370  0.00  0.00    +0.000 F 
ENDBRANCH  33  36
ENDBRANCH  32  33
ENDBRANCH  30  31
ENDBRANCH  28  30
ENDBRANCH  27  28
ENDBRANCH  25  26
ENDBRANCH  23  24
ENDBRANCH  22  23
ENDBRANCH  20  21
ENDBRANCH   8  19
BRANCH   6  40
ATOM     40  O   UNL     1     -26.309 107.564   4.963  0.00  0.00    +0.000 OA
ATOM     41  H   UNL     1     -26.704 107.014   5.663  0.00  0.00    +0.000 HD
ENDBRANCH   6  40
BRANCH  18  42
ATOM     42  O   UNL     1     -21.090  98.259   6.315  0.00  0.00    +0.000 OA
ATOM     43  H   UNL     1     -20.224  98.420   6.730  0.00  0.00    +0.000 HD
ENDBRANCH  18  42
TORSDOF 12
ENDMDL
MODEL 4
REMARK VINA RESULT:      -6.2     10.290     13.592
REMARK  Name = Fulvestrant.pdbqt.pdb
REMARK  12 active torsions:
REMARK  status: ('A' for Active; 'I' for Inactive)
REMARK    1  A    between atoms: C_6  and  O_40
REMARK    2  A    between atoms: C_8  and  C_19
REMARK    3  A    between atoms: C_18  and  O_42
REMARK    4  A    between atoms: C_20  and  C_21
REMARK    5  A    between atoms: C_22  and  C_23
REMARK    6  A    between atoms: C_23  and  C_24
REMARK    7  A    between atoms: C_25  and  C_26
REMARK    8  A    between atoms: C_27  and  S_28
REMARK    9  A    between atoms: S_28  and  C_30
REMARK   10  A    between atoms: C_30  and  C_31
REMARK   11  A    between atoms: C_32  and  C_33
REMARK   12  A    between atoms: C_33  and  C_36
REMARK                            x       y       z     vdW  Elec       q    Type
REMARK                         _______ _______ _______ _____ _____    ______ ____
ROOT
ATOM      1  C   UNL     1     -20.996 100.323   7.566  0.00  0.00    +0.000 C 
ATOM      2  C   UNL     1     -20.145 100.623   8.892  0.00  0.00    +0.000 C 
ATOM      3  C   UNL     1     -20.600  99.308   6.535  0.00  0.00    +0.000 A 
ATOM      4  C   UNL     1     -19.582  98.194   6.854  0.00  0.00    +0.000 A 
ATOM      5  C   UNL     1     -19.306  99.448   9.101  0.00  0.00    +0.000 C 
ATOM      6  C   UNL     1     -21.238 100.797   9.970  0.00  0.00    +0.000 C 
ATOM      7  C   UNL     1     -22.376 100.469   7.921  0.00  0.00    +0.000 C 
ATOM      8  C   UNL     1     -21.179  99.311   5.166  0.00  0.00    +0.000 A 
ATOM      9  C   UNL     1     -19.030  98.316   8.152  0.00  0.00    +0.000 C 
ATOM     10  C   UNL     1     -22.536 100.736   9.395  0.00  0.00    +0.000 C 
ATOM     11  C   UNL     1     -19.359 101.943   8.690  0.00  0.00    +0.000 C 
ATOM     12  C   UNL     1     -19.186  97.138   5.881  0.00  0.00    +0.000 A 
ATOM     13  C   UNL     1     -20.684  98.227   4.401  0.00  0.00    +0.000 A 
ATOM     14  C   UNL     1     -19.771  97.159   4.592  0.00  0.00    +0.000 A 
ATOM     15  C   UNL     1     -18.267  96.135   6.182  0.00  0.00    +0.000 A 
ATOM     16  C   UNL     1     -19.459  96.218   3.624  0.00  0.00    +0.000 A 
ATOM     17  C   UNL     1     -17.943  95.180   5.217  0.00  0.00    +0.000 A 
ATOM     18  C   UNL     1     -18.538  95.230   3.955  0.00  0.00    +0.000 A 
ENDROOT
BRANCH   8  19
ATOM     19  C   UNL     1     -21.967 100.367   4.649  0.00  0.00    +0.000 C 
ATOM     20  C   UNL     1     -22.832 101.495   4.078  0.00  0.00    +0.000 C 
BRANCH  20  21
ATOM     21  C   UNL     1     -23.709 102.604   3.489  0.00  0.00    +0.000 C 
ATOM     22  C   UNL     1     -24.597 103.720   2.930  0.00  0.00    +0.000 C 
BRANCH  22  23
ATOM     23  C   UNL     1     -25.498 104.840   2.403  0.00  0.00    +0.000 C 
BRANCH  23  24
ATOM     24  C   UNL     1     -26.428 105.944   1.888  0.00  0.00    +0.000 C 
ATOM     25  C   UNL     1     -27.382 107.023   1.366  0.00  0.00    +0.000 C 
BRANCH  25  26
ATOM     26  C   UNL     1     -28.358 108.076   0.832  0.00  0.00    +0.000 C 
ATOM     27  C   UNL     1     -29.349 109.104   0.276  0.00  0.00    +0.000 C 
BRANCH  27  28
ATOM     28  S   UNL     1     -30.498 110.261  -0.387  0.00  0.00    +0.000 S 
ATOM     29  O   UNL     1     -29.728 110.377  -1.669  0.00  0.00    +0.000 OA
BRANCH  28  30
ATOM     30  C   UNL     1     -31.545 109.013  -1.054  0.00  0.00    +0.000 C 
BRANCH  30  31
ATOM     31  C   UNL     1     -32.441 107.924  -1.654  0.00  0.00    +0.000 C 
ATOM     32  C   UNL     1     -33.323 106.826  -2.259  0.00  0.00    +0.000 C 
BRANCH  32  33
ATOM     33  C   UNL     1     -34.157 105.771  -2.841  0.00  0.00    +0.000 C 
ATOM     34  F   UNL     1     -34.357 106.072  -4.156  0.00  0.00    +0.000 F 
ATOM     35  F   UNL     1     -35.384 105.839  -2.253  0.00  0.00    +0.000 F 
BRANCH  33  36
ATOM     36  C   UNL     1     -33.558 104.370  -2.688  0.00  0.00    +0.000 C 
ATOM     37  F   UNL     1     -33.038 103.908  -3.855  0.00  0.00    +0.000 F 
ATOM     38  F   UNL     1     -34.478 103.461  -2.280  0.00  0.00    +0.000 F 
ATOM     39  F   UNL     1     -32.553 104.348  -1.775  0.00  0.00    +0.000 F 
ENDBRANCH  33  36
ENDBRANCH  32  33
ENDBRANCH  30  31
ENDBRANCH  28  30
ENDBRANCH  27  28
ENDBRANCH  25  26
ENDBRANCH  23  24
ENDBRANCH  22  23
ENDBRANCH  20  21
ENDBRANCH   8  19
BRANCH   6  40
ATOM     40  O   UNL     1     -21.014 100.548  11.308  0.00  0.00    +0.000 OA
ATOM     41  H   UNL     1     -20.130 100.168  11.461  0.00  0.00    +0.000 HD
ENDBRANCH   6  40
BRANCH  18  42
ATOM     42  O   UNL     1     -18.189  94.274   3.043  0.00  0.00    +0.000 OA
ATOM     43  H   UNL     1     -17.307  93.935   3.275  0.00  0.00    +0.000 HD
ENDBRANCH  18  42
TORSDOF 12
ENDMDL
MODEL 5
REMARK VINA RESULT:      -6.1     11.945     15.876
REMARK  Name = Fulvestrant.pdbqt.pdb
REMARK  12 active torsions:
REMARK  status: ('A' for Active; 'I' for Inactive)
REMARK    1  A    between atoms: C_6  and  O_40
REMARK    2  A    between atoms: C_8  and  C_19
REMARK    3  A    between atoms: C_18  and  O_42
REMARK    4  A    between atoms: C_20  and  C_21
REMARK    5  A    between atoms: C_22  and  C_23
REMARK    6  A    between atoms: C_23  and  C_24
REMARK    7  A    between atoms: C_25  and  C_26
REMARK    8  A    between atoms: C_27  and  S_28
REMARK    9  A    between atoms: S_28  and  C_30
REMARK   10  A    between atoms: C_30  and  C_31
REMARK   11  A    between atoms: C_32  and  C_33
REMARK   12  A    between atoms: C_33  and  C_36
REMARK                            x       y       z     vdW  Elec       q    Type
REMARK                         _______ _______ _______ _____ _____    ______ ____
ROOT
ATOM      1  C   UNL     1     -19.692  98.950   6.785  0.00  0.00    +0.000 C 
ATOM      2  C   UNL     1     -18.517  99.110   7.865  0.00  0.00    +0.000 C 
ATOM      3  C   UNL     1     -19.639  97.992   5.633  0.00  0.00    +0.000 A 
ATOM      4  C   UNL     1     -18.653  96.805   5.619  0.00  0.00    +0.000 A 
ATOM      5  C   UNL     1     -17.736  97.880   7.787  0.00  0.00    +0.000 C 
ATOM      6  C   UNL     1     -19.289  99.264   9.194  0.00  0.00    +0.000 C 
ATOM      7  C   UNL     1     -20.925  99.143   7.488  0.00  0.00    +0.000 C 
ATOM      8  C   UNL     1     -20.542  98.123   4.459  0.00  0.00    +0.000 A 
ATOM      9  C   UNL     1     -17.786  96.805   6.737  0.00  0.00    +0.000 C 
ATOM     10  C   UNL     1     -20.691  99.313   8.966  0.00  0.00    +0.000 C 
ATOM     11  C   UNL     1     -17.717 100.398   7.542  0.00  0.00    +0.000 C 
ATOM     12  C   UNL     1     -18.589  95.802   4.520  0.00  0.00    +0.000 A 
ATOM     13  C   UNL     1     -20.332  97.071   3.534  0.00  0.00    +0.000 A 
ATOM     14  C   UNL     1     -19.476  95.946   3.426  0.00  0.00    +0.000 A 
ATOM     15  C   UNL     1     -17.695  94.733   4.521  0.00  0.00    +0.000 A 
ATOM     16  C   UNL     1     -19.483  95.061   2.360  0.00  0.00    +0.000 A 
ATOM     17  C   UNL     1     -17.691  93.833   3.454  0.00  0.00    +0.000 A 
ATOM     18  C   UNL     1     -18.579  94.004   2.390  0.00  0.00    +0.000 A 
ENDROOT
BRANCH   8  19
ATOM     19  C   UNL     1     -21.360  99.253   4.220  0.00  0.00    +0.000 C 
ATOM     20  C   UNL     1     -22.259 100.463   3.949  0.00  0.00    +0.000 C 
BRANCH  20  21
ATOM     21  C   UNL     1     -23.174 101.657   3.662  0.00  0.00    +0.000 C 
ATOM     22  C   UNL     1     -24.096 102.853   3.406  0.00  0.00    +0.000 C 
BRANCH  22  23
ATOM     23  C   UNL     1     -25.026 104.049   3.184  0.00  0.00    +0.000 C 
BRANCH  23  24
ATOM     24  C   UNL     1     -25.950 105.257   2.995  0.00  0.00    +0.000 C 
ATOM     25  C   UNL     1     -26.901 106.445   2.817  0.00  0.00    +0.000 C 
BRANCH  25  26
ATOM     26  C   UNL     1     -27.879 107.612   2.647  0.00  0.00    +0.000 C 
ATOM     27  C   UNL     1     -28.867 108.765   2.444  0.00  0.00    +0.000 C 
BRANCH  27  28
ATOM     28  S   UNL     1     -30.007 110.079   2.177  0.00  0.00    +0.000 S 
ATOM     29  O   UNL     1     -30.222 109.679   0.747  0.00  0.00    +0.000 OA
BRANCH  28  30
ATOM     30  C   UNL     1     -31.394 109.137   2.715  0.00  0.00    +0.000 C 
BRANCH  30  31
ATOM     31  C   UNL     1     -32.595 108.321   3.207  0.00  0.00    +0.000 C 
ATOM     32  C   UNL     1     -33.789 107.490   3.689  0.00  0.00    +0.000 C 
BRANCH  32  33
ATOM     33  C   UNL     1     -34.928 106.688   4.145  0.00  0.00    +0.000 C 
ATOM     34  F   UNL     1     -36.009 107.512   4.242  0.00  0.00    +0.000 F 
ATOM     35  F   UNL     1     -34.661 106.270   5.414  0.00  0.00    +0.000 F 
BRANCH  33  36
ATOM     36  C   UNL     1     -35.232 105.495   3.233  0.00  0.00    +0.000 C 
ATOM     37  F   UNL     1     -34.293 105.342   2.264  0.00  0.00    +0.000 F 
ATOM     38  F   UNL     1     -36.428 105.622   2.606  0.00  0.00    +0.000 F 
ATOM     39  F   UNL     1     -35.274 104.328   3.926  0.00  0.00    +0.000 F 
ENDBRANCH  33  36
ENDBRANCH  32  33
ENDBRANCH  30  31
ENDBRANCH  28  30
ENDBRANCH  27  28
ENDBRANCH  25  26
ENDBRANCH  23  24
ENDBRANCH  22  23
ENDBRANCH  20  21
ENDBRANCH   8  19
BRANCH   6  40
ATOM     40  O   UNL     1     -18.754  98.909  10.414  0.00  0.00    +0.000 OA
ATOM     41  H   UNL     1     -18.971  97.990  10.651  0.00  0.00    +0.000 HD
ENDBRANCH   6  40
BRANCH  18  42
ATOM     42  O   UNL     1     -18.537  93.098   1.368  0.00  0.00    +0.000 OA
ATOM     43  H   UNL     1     -17.971  93.457   0.662  0.00  0.00    +0.000 HD
ENDBRANCH  18  42
TORSDOF 12
ENDMDL
MODEL 6
REMARK VINA RESULT:      -6.1      8.423     17.016
REMARK  Name = Fulvestrant.pdbqt.pdb
REMARK  12 active torsions:
REMARK  status: ('A' for Active; 'I' for Inactive)
REMARK    1  A    between atoms: C_6  and  O_40
REMARK    2  A    between atoms: C_8  and  C_19
REMARK    3  A    between atoms: C_18  and  O_42
REMARK    4  A    between atoms: C_20  and  C_21
REMARK    5  A    between atoms: C_22  and  C_23
REMARK    6  A    between atoms: C_23  and  C_24
REMARK    7  A    between atoms: C_25  and  C_26
REMARK    8  A    between atoms: C_27  and  S_28
REMARK    9  A    between atoms: S_28  and  C_30
REMARK   10  A    between atoms: C_30  and  C_31
REMARK   11  A    between atoms: C_32  and  C_33
REMARK   12  A    between atoms: C_33  and  C_36
REMARK                            x       y       z     vdW  Elec       q    Type
REMARK                         _______ _______ _______ _____ _____    ______ ____
ROOT
ATOM      1  C   UNL     1     -22.880 101.088 -11.846  0.00  0.00    +0.000 C 
ATOM      2  C   UNL     1     -23.844 101.175 -13.126  0.00  0.00    +0.000 C 
ATOM      3  C   UNL     1     -21.923  99.961 -11.601  0.00  0.00    +0.000 A 
ATOM      4  C   UNL     1     -21.490  99.013 -12.738  0.00  0.00    +0.000 A 
ATOM      5  C   UNL     1     -23.252 100.298 -14.130  0.00  0.00    +0.000 C 
ATOM      6  C   UNL     1     -23.781 102.672 -13.503  0.00  0.00    +0.000 C 
ATOM      7  C   UNL     1     -22.487 102.430 -11.537  0.00  0.00    +0.000 C 
ATOM      8  C   UNL     1     -21.330  99.711 -10.261  0.00  0.00    +0.000 A 
ATOM      9  C   UNL     1     -22.161  99.279 -13.955  0.00  0.00    +0.000 C 
ATOM     10  C   UNL     1     -23.014 103.404 -12.559  0.00  0.00    +0.000 C 
ATOM     11  C   UNL     1     -25.279 100.778 -12.695  0.00  0.00    +0.000 C 
ATOM     12  C   UNL     1     -20.511  97.904 -12.556  0.00  0.00    +0.000 A 
ATOM     13  C   UNL     1     -20.422  98.625 -10.300  0.00  0.00    +0.000 A 
ATOM     14  C   UNL     1     -19.951  97.706 -11.272  0.00  0.00    +0.000 A 
ATOM     15  C   UNL     1     -20.126  97.056 -13.592  0.00  0.00    +0.000 A 
ATOM     16  C   UNL     1     -19.036  96.699 -11.012  0.00  0.00    +0.000 A 
ATOM     17  C   UNL     1     -19.204  96.037 -13.346  0.00  0.00    +0.000 A 
ATOM     18  C   UNL     1     -18.671  95.868 -12.067  0.00  0.00    +0.000 A 
ENDROOT
BRANCH   8  19
ATOM     19  C   UNL     1     -21.764 100.354  -9.077  0.00  0.00    +0.000 C 
ATOM     20  C   UNL     1     -22.253 101.057  -7.806  0.00  0.00    +0.000 C 
BRANCH  20  21
ATOM     21  C   UNL     1     -22.765 101.768  -6.551  0.00  0.00    +0.000 C 
ATOM     22  C   UNL     1     -23.262 102.458  -5.277  0.00  0.00    +0.000 C 
BRANCH  22  23
ATOM     23  C   UNL     1     -23.743 103.124  -3.984  0.00  0.00    +0.000 C 
BRANCH  23  24
ATOM     24  C   UNL     1     -24.191 103.789  -2.678  0.00  0.00    +0.000 C 
ATOM     25  C   UNL     1     -24.605 104.451  -1.361  0.00  0.00    +0.000 C 
BRANCH  25  26
ATOM     26  C   UNL     1     -24.987 105.107  -0.030  0.00  0.00    +0.000 C 
ATOM     27  C   UNL     1     -25.340 105.787   1.297  0.00  0.00    +0.000 C 
BRANCH  27  28
ATOM     28  S   UNL     1     -25.717 106.587   2.819  0.00  0.00    +0.000 S 
ATOM     29  O   UNL     1     -26.992 105.812   2.976  0.00  0.00    +0.000 OA
BRANCH  28  30
ATOM     30  C   UNL     1     -24.816 105.423   3.786  0.00  0.00    +0.000 C 
BRANCH  30  31
ATOM     31  C   UNL     1     -24.053 104.398   4.632  0.00  0.00    +0.000 C 
ATOM     32  C   UNL     1     -23.307 103.368   5.487  0.00  0.00    +0.000 C 
BRANCH  32  33
ATOM     33  C   UNL     1     -22.600 102.382   6.310  0.00  0.00    +0.000 C 
ATOM     34  F   UNL     1     -22.376 102.940   7.533  0.00  0.00    +0.000 F 
ATOM     35  F   UNL     1     -21.370 102.185   5.759  0.00  0.00    +0.000 F 
BRANCH  33  36
ATOM     36  C   UNL     1     -23.354 101.056   6.447  0.00  0.00    +0.000 C 
ATOM     37  F   UNL     1     -23.857 100.882   7.696  0.00  0.00    +0.000 F 
ATOM     38  F   UNL     1     -22.560  99.987   6.190  0.00  0.00    +0.000 F 
ATOM     39  F   UNL     1     -24.403 100.981   5.588  0.00  0.00    +0.000 F 
ENDBRANCH  33  36
ENDBRANCH  32  33
ENDBRANCH  30  31
ENDBRANCH  28  30
ENDBRANCH  27  28
ENDBRANCH  25  26
ENDBRANCH  23  24
ENDBRANCH  22  23
ENDBRANCH  20  21
ENDBRANCH   8  19
BRANCH   6  40
ATOM     40  O   UNL     1     -23.999 103.128 -14.787  0.00  0.00    +0.000 OA
ATOM     41  H   UNL     1     -24.316 102.418 -15.373  0.00  0.00    +0.000 HD
ENDBRANCH   6  40
BRANCH  18  42
ATOM     42  O   UNL     1     -17.773  94.856 -11.874  0.00  0.00    +0.000 OA
ATOM     43  H   UNL     1     -18.069  94.081 -12.384  0.00  0.00    +0.000 HD
ENDBRANCH  18  42
TORSDOF 12
ENDMDL
MODEL 7
REMARK VINA RESULT:      -6.0      5.332      6.692
REMARK  Name = Fulvestrant.pdbqt.pdb
REMARK  12 active torsions:
REMARK  status: ('A' for Active; 'I' for Inactive)
REMARK    1  A    between atoms: C_6  and  O_40
REMARK    2  A    between atoms: C_8  and  C_19
REMARK    3  A    between atoms: C_18  and  O_42
REMARK    4  A    between atoms: C_20  and  C_21
REMARK    5  A    between atoms: C_22  and  C_23
REMARK    6  A    between atoms: C_23  and  C_24
REMARK    7  A    between atoms: C_25  and  C_26
REMARK    8  A    between atoms: C_27  and  S_28
REMARK    9  A    between atoms: S_28  and  C_30
REMARK   10  A    between atoms: C_30  and  C_31
REMARK   11  A    between atoms: C_32  and  C_33
REMARK   12  A    between atoms: C_33  and  C_36
REMARK                            x       y       z     vdW  Elec       q    Type
REMARK                         _______ _______ _______ _____ _____    ______ ____
ROOT
ATOM      1  C   UNL     1     -23.245 102.056   4.308  0.00  0.00    +0.000 C 
ATOM      2  C   UNL     1     -23.427 100.790   5.277  0.00  0.00    +0.000 C 
ATOM      3  C   UNL     1     -23.477 103.473   4.737  0.00  0.00    +0.000 A 
ATOM      4  C   UNL     1     -23.510 103.866   6.229  0.00  0.00    +0.000 A 
ATOM      5  C   UNL     1     -23.346 101.316   6.636  0.00  0.00    +0.000 C 
ATOM      6  C   UNL     1     -22.232  99.889   4.895  0.00  0.00    +0.000 C 
ATOM      7  C   UNL     1     -22.149 101.751   3.437  0.00  0.00    +0.000 C 
ATOM      8  C   UNL     1     -23.670 104.571   3.754  0.00  0.00    +0.000 A 
ATOM      9  C   UNL     1     -23.395 102.748   7.089  0.00  0.00    +0.000 C 
ATOM     10  C   UNL     1     -21.508 100.438   3.803  0.00  0.00    +0.000 C 
ATOM     11  C   UNL     1     -24.769 100.094   4.939  0.00  0.00    +0.000 C 
ATOM     12  C   UNL     1     -23.696 105.264   6.708  0.00  0.00    +0.000 A 
ATOM     13  C   UNL     1     -23.820 105.819   4.406  0.00  0.00    +0.000 A 
ATOM     14  C   UNL     1     -23.856 106.288   5.744  0.00  0.00    +0.000 A 
ATOM     15  C   UNL     1     -23.720 105.606   8.058  0.00  0.00    +0.000 A 
ATOM     16  C   UNL     1     -24.037 107.615   6.099  0.00  0.00    +0.000 A 
ATOM     17  C   UNL     1     -23.901 106.940   8.431  0.00  0.00    +0.000 A 
ATOM     18  C   UNL     1     -24.058 107.925   7.455  0.00  0.00    +0.000 A 
ENDROOT
BRANCH   8  19
ATOM     19  C   UNL     1     -23.864 104.359   2.368  0.00  0.00    +0.000 C 
ATOM     20  C   UNL     1     -24.062 104.146   0.864  0.00  0.00    +0.000 C 
BRANCH  20  21
ATOM     21  C   UNL     1     -24.242 103.956  -0.644  0.00  0.00    +0.000 C 
ATOM     22  C   UNL     1     -24.395 103.751  -2.155  0.00  0.00    +0.000 C 
BRANCH  22  23
ATOM     23  C   UNL     1     -24.517 103.532  -3.666  0.00  0.00    +0.000 C 
BRANCH  23  24
ATOM     24  C   UNL     1     -24.674 103.313  -5.174  0.00  0.00    +0.000 C 
ATOM     25  C   UNL     1     -24.804 103.072  -6.681  0.00  0.00    +0.000 C 
BRANCH  25  26
ATOM     26  C   UNL     1     -24.905 102.811  -8.188  0.00  0.00    +0.000 C 
ATOM     27  C   UNL     1     -25.036 102.571  -9.695  0.00  0.00    +0.000 C 
BRANCH  27  28
ATOM     28  S   UNL     1     -25.217 102.311 -11.426  0.00  0.00    +0.000 S 
ATOM     29  O   UNL     1     -25.909 100.997 -11.215  0.00  0.00    +0.000 OA
BRANCH  28  30
ATOM     30  C   UNL     1     -26.749 103.176 -11.511  0.00  0.00    +0.000 C 
BRANCH  30  31
ATOM     31  C   UNL     1     -28.072 103.945 -11.600  0.00  0.00    +0.000 C 
ATOM     32  C   UNL     1     -29.397 104.712 -11.670  0.00  0.00    +0.000 C 
BRANCH  32  33
ATOM     33  C   UNL     1     -30.665 105.445 -11.728  0.00  0.00    +0.000 C 
ATOM     34  F   UNL     1     -31.368 104.982 -12.800  0.00  0.00    +0.000 F 
ATOM     35  F   UNL     1     -30.380 106.749 -12.002  0.00  0.00    +0.000 F 
BRANCH  33  36
ATOM     36  C   UNL     1     -31.491 105.327 -10.443  0.00  0.00    +0.000 C 
ATOM     37  F   UNL     1     -31.578 106.511  -9.784  0.00  0.00    +0.000 F 
ATOM     38  F   UNL     1     -30.963 104.430  -9.574  0.00  0.00    +0.000 F 
ATOM     39  F   UNL     1     -32.763 104.926 -10.697  0.00  0.00    +0.000 F 
ENDBRANCH  33  36
ENDBRANCH  32  33
ENDBRANCH  30  31
ENDBRANCH  28  30
ENDBRANCH  27  28
ENDBRANCH  25  26
ENDBRANCH  23  24
ENDBRANCH  22  23
ENDBRANCH  20  21
ENDBRANCH   8  19
BRANCH   6  40
ATOM     40  O   UNL     1     -21.668  98.984   5.771  0.00  0.00    +0.000 OA
ATOM     41  H   UNL     1     -21.516  98.120   5.349  0.00  0.00    +0.000 HD
ENDBRANCH   6  40
BRANCH  18  42
ATOM     42  O   UNL     1     -24.233 109.216   7.869  0.00  0.00    +0.000 OA
ATOM     43  H   UNL     1     -24.009 109.268   8.815  0.00  0.00    +0.000 HD
ENDBRANCH  18  42
TORSDOF 12
ENDMDL
MODEL 8
REMARK VINA RESULT:      -6.0     13.436     17.553
REMARK  Name = Fulvestrant.pdbqt.pdb
REMARK  12 active torsions:
REMARK  status: ('A' for Active; 'I' for Inactive)
REMARK    1  A    between atoms: C_6  and  O_40
REMARK    2  A    between atoms: C_8  and  C_19
REMARK    3  A    between atoms: C_18  and  O_42
REMARK    4  A    between atoms: C_20  and  C_21
REMARK    5  A    between atoms: C_22  and  C_23
REMARK    6  A    between atoms: C_23  and  C_24
REMARK    7  A    between atoms: C_25  and  C_26
REMARK    8  A    between atoms: C_27  and  S_28
REMARK    9  A    between atoms: S_28  and  C_30
REMARK   10  A    between atoms: C_30  and  C_31
REMARK   11  A    between atoms: C_32  and  C_33
REMARK   12  A    between atoms: C_33  and  C_36
REMARK                            x       y       z     vdW  Elec       q    Type
REMARK                         _______ _______ _______ _____ _____    ______ ____
ROOT
ATOM      1  C   UNL     1     -21.503  90.240  -5.836  0.00  0.00    +0.000 C 
ATOM      2  C   UNL     1     -20.231  91.082  -6.335  0.00  0.00    +0.000 C 
ATOM      3  C   UNL     1     -21.416  88.851  -5.280  0.00  0.00    +0.000 A 
ATOM      4  C   UNL     1     -20.081  88.275  -4.762  0.00  0.00    +0.000 A 
ATOM      5  C   UNL     1     -19.073  90.469  -5.692  0.00  0.00    +0.000 C 
ATOM      6  C   UNL     1     -20.537  92.506  -5.821  0.00  0.00    +0.000 C 
ATOM      7  C   UNL     1     -22.414  91.180  -5.253  0.00  0.00    +0.000 C 
ATOM      8  C   UNL     1     -22.607  87.967  -5.181  0.00  0.00    +0.000 A 
ATOM      9  C   UNL     1     -18.992  89.155  -4.966  0.00  0.00    +0.000 C 
ATOM     10  C   UNL     1     -21.822  92.565  -5.218  0.00  0.00    +0.000 C 
ATOM     11  C   UNL     1     -20.193  91.054  -7.884  0.00  0.00    +0.000 C 
ATOM     12  C   UNL     1     -19.948  86.918  -4.162  0.00  0.00    +0.000 A 
ATOM     13  C   UNL     1     -22.275  86.730  -4.577  0.00  0.00    +0.000 A 
ATOM     14  C   UNL     1     -21.107  86.110  -4.066  0.00  0.00    +0.000 A 
ATOM     15  C   UNL     1     -18.738  86.410  -3.697  0.00  0.00    +0.000 A 
ATOM     16  C   UNL     1     -21.075  84.835  -3.525  0.00  0.00    +0.000 A 
ATOM     17  C   UNL     1     -18.690  85.127  -3.148  0.00  0.00    +0.000 A 
ATOM     18  C   UNL     1     -19.851  84.356  -3.068  0.00  0.00    +0.000 A 
ENDROOT
BRANCH   8  19
ATOM     19  C   UNL     1     -23.854  88.260  -5.783  0.00  0.00    +0.000 C 
ATOM     20  C   UNL     1     -25.209  88.556  -6.432  0.00  0.00    +0.000 C 
BRANCH  20  21
ATOM     21  C   UNL     1     -26.571  88.823  -7.079  0.00  0.00    +0.000 C 
ATOM     22  C   UNL     1     -27.943  89.061  -7.718  0.00  0.00    +0.000 C 
BRANCH  22  23
ATOM     23  C   UNL     1     -29.323  89.267  -8.351  0.00  0.00    +0.000 C 
BRANCH  23  24
ATOM     24  C   UNL     1     -30.714  89.488  -8.954  0.00  0.00    +0.000 C 
ATOM     25  C   UNL     1     -32.102  89.744  -9.549  0.00  0.00    +0.000 C 
BRANCH  25  26
ATOM     26  C   UNL     1     -33.488  90.034 -10.133  0.00  0.00    +0.000 C 
ATOM     27  C   UNL     1     -34.862  90.356 -10.729  0.00  0.00    +0.000 C 
BRANCH  27  28
ATOM     28  S   UNL     1     -36.429  90.758 -11.423  0.00  0.00    +0.000 S 
ATOM     29  O   UNL     1     -36.926  89.352 -11.261  0.00  0.00    +0.000 OA
BRANCH  28  30
ATOM     30  C   UNL     1     -37.116  91.247  -9.877  0.00  0.00    +0.000 C 
BRANCH  30  31
ATOM     31  C   UNL     1     -37.700  91.692  -8.532  0.00  0.00    +0.000 C 
ATOM     32  C   UNL     1     -38.290  92.119  -7.183  0.00  0.00    +0.000 C 
BRANCH  32  33
ATOM     33  C   UNL     1     -38.859  92.518  -5.893  0.00  0.00    +0.000 C 
ATOM     34  F   UNL     1     -38.867  93.880  -5.842  0.00  0.00    +0.000 F 
ATOM     35  F   UNL     1     -37.999  92.113  -4.916  0.00  0.00    +0.000 F 
BRANCH  33  36
ATOM     36  C   UNL     1     -40.263  91.956  -5.649  0.00  0.00    +0.000 C 
ATOM     37  F   UNL     1     -40.989  92.745  -4.816  0.00  0.00    +0.000 F 
ATOM     38  F   UNL     1     -40.230  90.720  -5.092  0.00  0.00    +0.000 F 
ATOM     39  F   UNL     1     -40.970  91.849  -6.803  0.00  0.00    +0.000 F 
ENDBRANCH  33  36
ENDBRANCH  32  33
ENDBRANCH  30  31
ENDBRANCH  28  30
ENDBRANCH  27  28
ENDBRANCH  25  26
ENDBRANCH  23  24
ENDBRANCH  22  23
ENDBRANCH  20  21
ENDBRANCH   8  19
BRANCH   6  40
ATOM     40  O   UNL     1     -19.550  93.427  -5.541  0.00  0.00    +0.000 OA
ATOM     41  H   UNL     1     -19.800  94.012  -4.804  0.00  0.00    +0.000 HD
ENDBRANCH   6  40
BRANCH  18  42
ATOM     42  O   UNL     1     -19.755  83.106  -2.525  0.00  0.00    +0.000 OA
ATOM     43  H   UNL     1     -19.872  83.180  -1.561  0.00  0.00    +0.000 HD
ENDBRANCH  18  42
TORSDOF 12
ENDMDL
MODEL 9
REMARK VINA RESULT:      -5.9      4.182      4.945
REMARK  Name = Fulvestrant.pdbqt.pdb
REMARK  12 active torsions:
REMARK  status: ('A' for Active; 'I' for Inactive)
REMARK    1  A    between atoms: C_6  and  O_40
REMARK    2  A    between atoms: C_8  and  C_19
REMARK    3  A    between atoms: C_18  and  O_42
REMARK    4  A    between atoms: C_20  and  C_21
REMARK    5  A    between atoms: C_22  and  C_23
REMARK    6  A    between atoms: C_23  and  C_24
REMARK    7  A    between atoms: C_25  and  C_26
REMARK    8  A    between atoms: C_27  and  S_28
REMARK    9  A    between atoms: S_28  and  C_30
REMARK   10  A    between atoms: C_30  and  C_31
REMARK   11  A    between atoms: C_32  and  C_33
REMARK   12  A    between atoms: C_33  and  C_36
REMARK                            x       y       z     vdW  Elec       q    Type
REMARK                         _______ _______ _______ _____ _____    ______ ____
ROOT
ATOM      1  C   UNL     1     -23.506 103.366   0.846  0.00  0.00    +0.000 C 
ATOM      2  C   UNL     1     -23.353 102.534   2.209  0.00  0.00    +0.000 C 
ATOM      3  C   UNL     1     -24.563 104.404   0.618  0.00  0.00    +0.000 A 
ATOM      4  C   UNL     1     -25.325 105.047   1.796  0.00  0.00    +0.000 A 
ATOM      5  C   UNL     1     -24.046 103.314   3.229  0.00  0.00    +0.000 C 
ATOM      6  C   UNL     1     -21.823 102.481   2.411  0.00  0.00    +0.000 C 
ATOM      7  C   UNL     1     -22.180 103.585   0.348  0.00  0.00    +0.000 C 
ATOM      8  C   UNL     1     -24.918 104.880  -0.745  0.00  0.00    +0.000 A 
ATOM      9  C   UNL     1     -24.976 104.480   3.045  0.00  0.00    +0.000 C 
ATOM     10  C   UNL     1     -21.143 103.068   1.310  0.00  0.00    +0.000 C 
ATOM     11  C   UNL     1     -23.928 101.111   1.991  0.00  0.00    +0.000 C 
ATOM     12  C   UNL     1     -26.354 106.111   1.627  0.00  0.00    +0.000 A 
ATOM     13  C   UNL     1     -25.904 105.894  -0.691  0.00  0.00    +0.000 A 
ATOM     14  C   UNL     1     -26.653 106.554   0.316  0.00  0.00    +0.000 A 
ATOM     15  C   UNL     1     -27.033 106.686   2.699  0.00  0.00    +0.000 A 
ATOM     16  C   UNL     1     -27.597 107.537   0.066  0.00  0.00    +0.000 A 
ATOM     17  C   UNL     1     -27.986 107.678   2.463  0.00  0.00    +0.000 A 
ATOM     18  C   UNL     1     -28.259 108.091   1.158  0.00  0.00    +0.000 A 
ENDROOT
BRANCH   8  19
ATOM     19  C   UNL     1     -24.463 104.262  -1.935  0.00  0.00    +0.000 C 
ATOM     20  C   UNL     1     -23.988 103.602  -3.233  0.00  0.00    +0.000 C 
BRANCH  20  21
ATOM     21  C   UNL     1     -23.538 102.951  -4.544  0.00  0.00    +0.000 C 
ATOM     22  C   UNL     1     -23.110 102.316  -5.871  0.00  0.00    +0.000 C 
BRANCH  22  23
ATOM     23  C   UNL     1     -22.709 101.698  -7.213  0.00  0.00    +0.000 C 
BRANCH  23  24
ATOM     24  C   UNL     1     -22.311 101.111  -8.572  0.00  0.00    +0.000 C 
ATOM     25  C   UNL     1     -21.920 100.492  -9.917  0.00  0.00    +0.000 C 
BRANCH  25  26
ATOM     26  C   UNL     1     -21.532  99.840 -11.249  0.00  0.00    +0.000 C 
ATOM     27  C   UNL     1     -21.140  99.223 -12.595  0.00  0.00    +0.000 C 
BRANCH  27  28
ATOM     28  S   UNL     1     -20.690  98.545 -14.155  0.00  0.00    +0.000 S 
ATOM     29  O   UNL     1     -19.389  99.292 -14.169  0.00  0.00    +0.000 OA
BRANCH  28  30
ATOM     30  C   UNL     1     -19.936  97.120 -13.447  0.00  0.00    +0.000 C 
BRANCH  30  31
ATOM     31  C   UNL     1     -19.260  95.892 -12.828  0.00  0.00    +0.000 C 
ATOM     32  C   UNL     1     -18.589  94.653 -12.223  0.00  0.00    +0.000 C 
BRANCH  32  33
ATOM     33  C   UNL     1     -17.952  93.464 -11.652  0.00  0.00    +0.000 C 
ATOM     34  F   UNL     1     -16.757  93.284 -12.282  0.00  0.00    +0.000 F 
ATOM     35  F   UNL     1     -18.715  92.384 -11.982  0.00  0.00    +0.000 F 
BRANCH  33  36
ATOM     36  C   UNL     1     -17.760  93.549 -10.134  0.00  0.00    +0.000 C 
ATOM     37  F   UNL     1     -17.316  94.772  -9.745  0.00  0.00    +0.000 F 
ATOM     38  F   UNL     1     -16.862  92.640  -9.680  0.00  0.00    +0.000 F 
ATOM     39  F   UNL     1     -18.920  93.323  -9.466  0.00  0.00    +0.000 F 
ENDBRANCH  33  36
ENDBRANCH  32  33
ENDBRANCH  30  31
ENDBRANCH  28  30
ENDBRANCH  27  28
ENDBRANCH  25  26
ENDBRANCH  23  24
ENDBRANCH  22  23
ENDBRANCH  20  21
ENDBRANCH   8  19
BRANCH   6  40
ATOM     40  O   UNL     1     -21.237 102.350   3.653  0.00  0.00    +0.000 OA
ATOM     41  H   UNL     1     -20.335 102.716   3.667  0.00  0.00    +0.000 HD
ENDBRANCH   6  40
BRANCH  18  42
ATOM     42  O   UNL     1     -29.201 109.064   0.976  0.00  0.00    +0.000 OA
ATOM     43  H   UNL     1     -29.550 109.320   1.848  0.00  0.00    +0.000 HD
ENDBRANCH  18  42
TORSDOF 12
ENDMDL
