MODEL 1
REMARK VINA RESULT:      -6.0      0.000      0.000
REMARK  Name = Gefitinib.pdbqt.pdb
REMARK  6 active torsions:
REMARK  status: ('A' for Active; 'I' for Inactive)
REMARK    1  A    between atoms: C_3  and  O_11
REMARK    2  A    between atoms: C_6  and  O_21
REMARK    3  A    between atoms: O_11  and  C_12
REMARK    4  A    between atoms: C_13  and  C_14
REMARK    5  A    between atoms: C_14  and  N_15
REMARK    6  A    between atoms: N_23  and  C_25
REMARK                            x       y       z     vdW  Elec       q    Type
REMARK                         _______ _______ _______ _____ _____    ______ ____
ROOT
ATOM      1  N   UNL     1     -24.706  85.899  14.160  0.00  0.00    +0.000 NA
ATOM      2  N   UNL     1     -26.279  87.359  15.195  0.00  0.00    +0.000 NA
ATOM      3  C   UNL     1     -27.326  85.170  11.012  0.00  0.00    +0.000 A 
ATOM      4  C   UNL     1     -26.819  86.306  13.117  0.00  0.00    +0.000 A 
ATOM      5  C   UNL     1     -27.687  86.037  12.044  0.00  0.00    +0.000 A 
ATOM      6  C   UNL     1     -26.071  84.563  11.049  0.00  0.00    +0.000 A 
ATOM      7  C   UNL     1     -25.566  85.691  13.162  0.00  0.00    +0.000 A 
ATOM      8  C   UNL     1     -25.217  84.835  12.125  0.00  0.00    +0.000 A 
ATOM      9  C   UNL     1     -27.135  87.162  14.180  0.00  0.00    +0.000 A 
ATOM     10  C   UNL     1     -25.103  86.722  15.138  0.00  0.00    +0.000 A 
ATOM     11  N   UNL     1     -28.404  87.797  14.199  0.00  0.00    +0.000 N 
ATOM     12  H   UNL     1     -28.625  88.198  13.293  0.00  0.00    +0.000 HD
ENDROOT
BRANCH  11  13
ATOM     13  C   UNL     1     -28.995  88.524  15.256  0.00  0.00    +0.000 A 
ATOM     14  C   UNL     1     -29.673  87.826  16.262  0.00  0.00    +0.000 A 
ATOM     15  C   UNL     1     -30.181  88.489  17.376  0.00  0.00    +0.000 A 
ATOM     16 CL   UNL     1     -31.033  87.583  18.562  0.00  0.00    +0.000 Cl
ATOM     17  C   UNL     1     -29.990  89.859  17.512  0.00  0.00    +0.000 A 
ATOM     18  F   UNL     1     -30.471  90.516  18.578  0.00  0.00    +0.000 F 
ATOM     19  C   UNL     1     -29.287  90.569  16.548  0.00  0.00    +0.000 A 
ATOM     20  C   UNL     1     -28.781  89.895  15.438  0.00  0.00    +0.000 A 
ENDBRANCH  11  13
BRANCH   6  21
ATOM     21  O   UNL     1     -25.755  83.715  10.013  0.00  0.00    +0.000 OA
ATOM     22  C   UNL     1     -24.388  83.514   9.788  0.00  0.00    +0.000 C 
ENDBRANCH   6  21
BRANCH   3  23
ATOM     23  O   UNL     1     -28.146  84.882   9.948  0.00  0.00    +0.000 OA
BRANCH  23  24
ATOM     24  C   UNL     1     -28.834  83.749  10.066  0.00  0.00    +0.000 C 
ATOM     25  C   UNL     1     -29.632  82.446  10.187  0.00  0.00    +0.000 C 
BRANCH  25  26
ATOM     26  C   UNL     1     -30.438  81.145  10.272  0.00  0.00    +0.000 C 
BRANCH  26  27
ATOM     27  N   UNL     1     -31.212  79.915  10.365  0.00  0.00    +0.000 N 
ATOM     28  C   UNL     1     -32.523  80.184   9.700  0.00  0.00    +0.000 C 
ATOM     29  C   UNL     1     -33.068  79.626   8.344  0.00  0.00    +0.000 C 
ATOM     30  O   UNL     1     -32.582  78.795   7.396  0.00  0.00    +0.000 OA
ATOM     31  C   UNL     1     -31.399  78.553   7.995  0.00  0.00    +0.000 C 
ATOM     32  C   UNL     1     -30.688  78.998   9.308  0.00  0.00    +0.000 C 
ENDBRANCH  26  27
ENDBRANCH  25  26
ENDBRANCH  23  24
ENDBRANCH   3  23
TORSDOF 6
ENDMDL
MODEL 2
REMARK VINA RESULT:      -5.7      5.550      9.319
REMARK  Name = Gefitinib.pdbqt.pdb
REMARK  6 active torsions:
REMARK  status: ('A' for Active; 'I' for Inactive)
REMARK    1  A    between atoms: C_3  and  O_11
REMARK    2  A    between atoms: C_6  and  O_21
REMARK    3  A    between atoms: O_11  and  C_12
REMARK    4  A    between atoms: C_13  and  C_14
REMARK    5  A    between atoms: C_14  and  N_15
REMARK    6  A    between atoms: N_23  and  C_25
REMARK                            x       y       z     vdW  Elec       q    Type
REMARK                         _______ _______ _______ _____ _____    ______ ____
ROOT
ATOM      1  N   UNL     1     -24.994  84.734  13.830  0.00  0.00    +0.000 NA
ATOM      2  N   UNL     1     -23.272  85.594  15.234  0.00  0.00    +0.000 NA
ATOM      3  C   UNL     1     -27.057  88.342  14.004  0.00  0.00    +0.000 A 
ATOM      4  C   UNL     1     -25.122  86.984  14.628  0.00  0.00    +0.000 A 
ATOM      5  C   UNL     1     -25.843  88.190  14.675  0.00  0.00    +0.000 A 
ATOM      6  C   UNL     1     -27.559  87.269  13.267  0.00  0.00    +0.000 A 
ATOM      7  C   UNL     1     -25.627  85.905  13.900  0.00  0.00    +0.000 A 
ATOM      8  C   UNL     1     -26.834  86.072  13.232  0.00  0.00    +0.000 A 
ATOM      9  C   UNL     1     -23.903  86.778  15.288  0.00  0.00    +0.000 A 
ATOM     10  C   UNL     1     -23.844  84.627  14.506  0.00  0.00    +0.000 A 
ATOM     11  N   UNL     1     -23.353  87.832  16.062  0.00  0.00    +0.000 N 
ATOM     12  H   UNL     1     -23.380  88.711  15.554  0.00  0.00    +0.000 HD
ENDROOT
BRANCH  11  13
ATOM     13  C   UNL     1     -22.260  87.773  16.956  0.00  0.00    +0.000 A 
ATOM     14  C   UNL     1     -21.013  88.247  16.532  0.00  0.00    +0.000 A 
ATOM     15  C   UNL     1     -19.933  88.306  17.410  0.00  0.00    +0.000 A 
ATOM     16 CL   UNL     1     -18.419  88.866  16.823  0.00  0.00    +0.000 Cl
ATOM     17  C   UNL     1     -20.097  87.918  18.735  0.00  0.00    +0.000 A 
ATOM     18  F   UNL     1     -19.070  87.968  19.595  0.00  0.00    +0.000 F 
ATOM     19  C   UNL     1     -21.334  87.481  19.190  0.00  0.00    +0.000 A 
ATOM     20  C   UNL     1     -22.408  87.428  18.304  0.00  0.00    +0.000 A 
ENDBRANCH  11  13
BRANCH   6  21
ATOM     21  O   UNL     1     -28.758  87.461  12.622  0.00  0.00    +0.000 OA
ATOM     22  C   UNL     1     -29.188  86.402  11.813  0.00  0.00    +0.000 C 
ENDBRANCH   6  21
BRANCH   3  23
ATOM     23  O   UNL     1     -27.790  89.504  14.025  0.00  0.00    +0.000 OA
BRANCH  23  24
ATOM     24  C   UNL     1     -28.539  89.668  15.113  0.00  0.00    +0.000 C 
ATOM     25  C   UNL     1     -29.409  89.842  16.363  0.00  0.00    +0.000 C 
BRANCH  25  26
ATOM     26  C   UNL     1     -30.288  89.981  17.611  0.00  0.00    +0.000 C 
BRANCH  26  27
ATOM     27  N   UNL     1     -31.116  90.126  18.799  0.00  0.00    +0.000 N 
ATOM     28  C   UNL     1     -31.384  88.745  19.305  0.00  0.00    +0.000 C 
ATOM     29  C   UNL     1     -30.839  88.051  20.596  0.00  0.00    +0.000 C 
ATOM     30  O   UNL     1     -30.012  88.424  21.597  0.00  0.00    +0.000 OA
ATOM     31  C   UNL     1     -29.770  89.670  21.141  0.00  0.00    +0.000 C 
ATOM     32  C   UNL     1     -30.204  90.525  19.912  0.00  0.00    +0.000 C 
ENDBRANCH  26  27
ENDBRANCH  25  26
ENDBRANCH  23  24
ENDBRANCH   3  23
TORSDOF 6
ENDMDL
MODEL 3
REMARK VINA RESULT:      -5.7     28.994     30.335
REMARK  Name = Gefitinib.pdbqt.pdb
REMARK  6 active torsions:
REMARK  status: ('A' for Active; 'I' for Inactive)
REMARK    1  A    between atoms: C_3  and  O_11
REMARK    2  A    between atoms: C_6  and  O_21
REMARK    3  A    between atoms: O_11  and  C_12
REMARK    4  A    between atoms: C_13  and  C_14
REMARK    5  A    between atoms: C_14  and  N_15
REMARK    6  A    between atoms: N_23  and  C_25
REMARK                            x       y       z     vdW  Elec       q    Type
REMARK                         _______ _______ _______ _____ _____    ______ ____
ROOT
ATOM      1  N   UNL     1     -32.861  94.128 -15.810  0.00  0.00    +0.000 NA
ATOM      2  N   UNL     1     -33.699  96.089 -14.746  0.00  0.00    +0.000 NA
ATOM      3  C   UNL     1     -29.053  94.826 -14.289  0.00  0.00    +0.000 A 
ATOM      4  C   UNL     1     -31.400  95.481 -14.486  0.00  0.00    +0.000 A 
ATOM      5  C   UNL     1     -30.102  95.696 -13.990  0.00  0.00    +0.000 A 
ATOM      6  C   UNL     1     -29.306  93.716 -15.095  0.00  0.00    +0.000 A 
ATOM      7  C   UNL     1     -31.654  94.376 -15.302  0.00  0.00    +0.000 A 
ATOM      8  C   UNL     1     -30.601  93.516 -15.586  0.00  0.00    +0.000 A 
ATOM      9  C   UNL     1     -32.486  96.326 -14.221  0.00  0.00    +0.000 A 
ATOM     10  C   UNL     1     -33.832  95.001 -15.514  0.00  0.00    +0.000 A 
ATOM     11  N   UNL     1     -32.283  97.477 -13.416  0.00  0.00    +0.000 N 
ATOM     12  H   UNL     1     -31.750  97.249 -12.582  0.00  0.00    +0.000 HD
ENDROOT
BRANCH  11  13
ATOM     13  C   UNL     1     -33.174  98.550 -13.196  0.00  0.00    +0.000 A 
ATOM     14  C   UNL     1     -34.007  98.519 -12.072  0.00  0.00    +0.000 A 
ATOM     15  C   UNL     1     -34.826  99.601 -11.757  0.00  0.00    +0.000 A 
ATOM     16 CL   UNL     1     -35.851  99.491 -10.383  0.00  0.00    +0.000 Cl
ATOM     17  C   UNL     1     -34.799 100.743 -12.550  0.00  0.00    +0.000 A 
ATOM     18  F   UNL     1     -35.580 101.794 -12.263  0.00  0.00    +0.000 F 
ATOM     19  C   UNL     1     -33.953 100.814 -13.649  0.00  0.00    +0.000 A 
ATOM     20  C   UNL     1     -33.136  99.727 -13.953  0.00  0.00    +0.000 A 
ENDBRANCH  11  13
BRANCH   6  21
ATOM     21  O   UNL     1     -28.244  92.886 -15.366  0.00  0.00    +0.000 OA
ATOM     22  C   UNL     1     -28.031  92.594 -16.719  0.00  0.00    +0.000 C 
ENDBRANCH   6  21
BRANCH   3  23
ATOM     23  O   UNL     1     -27.772  95.002 -13.824  0.00  0.00    +0.000 OA
BRANCH  23  24
ATOM     24  C   UNL     1     -27.340  96.261 -13.846  0.00  0.00    +0.000 C 
ATOM     25  C   UNL     1     -26.845  97.711 -13.889  0.00  0.00    +0.000 C 
BRANCH  25  26
ATOM     26  C   UNL     1     -26.357  99.162 -13.966  0.00  0.00    +0.000 C 
BRANCH  26  27
ATOM     27  N   UNL     1     -25.892 100.539 -14.055  0.00  0.00    +0.000 N 
ATOM     28  C   UNL     1     -26.971 101.392 -13.470  0.00  0.00    +0.000 C 
ATOM     29  C   UNL     1     -26.968 102.191 -12.125  0.00  0.00    +0.000 C 
ATOM     30  O   UNL     1     -26.077 102.361 -11.124  0.00  0.00    +0.000 OA
ATOM     31  C   UNL     1     -25.105 101.590 -11.650  0.00  0.00    +0.000 C 
ATOM     32  C   UNL     1     -24.918 100.735 -12.940  0.00  0.00    +0.000 C 
ENDBRANCH  26  27
ENDBRANCH  25  26
ENDBRANCH  23  24
ENDBRANCH   3  23
TORSDOF 6
ENDMDL
MODEL 4
REMARK VINA RESULT:      -5.6     16.549     19.352
REMARK  Name = Gefitinib.pdbqt.pdb
REMARK  6 active torsions:
REMARK  status: ('A' for Active; 'I' for Inactive)
REMARK    1  A    between atoms: C_3  and  O_11
REMARK    2  A    between atoms: C_6  and  O_21
REMARK    3  A    between atoms: O_11  and  C_12
REMARK    4  A    between atoms: C_13  and  C_14
REMARK    5  A    between atoms: C_14  and  N_15
REMARK    6  A    between atoms: N_23  and  C_25
REMARK                            x       y       z     vdW  Elec       q    Type
REMARK                         _______ _______ _______ _____ _____    ______ ____
ROOT
ATOM      1  N   UNL     1     -39.075  85.441  -1.723  0.00  0.00    +0.000 NA
ATOM      2  N   UNL     1     -38.257  87.040  -3.290  0.00  0.00    +0.000 NA
ATOM      3  C   UNL     1     -35.284  83.780  -1.308  0.00  0.00    +0.000 A 
ATOM      4  C   UNL     1     -36.757  85.452  -2.313  0.00  0.00    +0.000 A 
ATOM      5  C   UNL     1     -35.488  84.867  -2.158  0.00  0.00    +0.000 A 
ATOM      6  C   UNL     1     -36.368  83.269  -0.594  0.00  0.00    +0.000 A 
ATOM      7  C   UNL     1     -37.847  84.936  -1.607  0.00  0.00    +0.000 A 
ATOM      8  C   UNL     1     -37.627  83.857  -0.760  0.00  0.00    +0.000 A 
ATOM      9  C   UNL     1     -37.017  86.540  -3.158  0.00  0.00    +0.000 A 
ATOM     10  C   UNL     1     -39.228  86.470  -2.566  0.00  0.00    +0.000 A 
ATOM     11  N   UNL     1     -35.953  87.091  -3.916  0.00  0.00    +0.000 N 
ATOM     12  H   UNL     1     -35.128  87.230  -3.341  0.00  0.00    +0.000 HD
ENDROOT
BRANCH  11  13
ATOM     13  C   UNL     1     -36.033  88.039  -4.961  0.00  0.00    +0.000 A 
ATOM     14  C   UNL     1     -36.439  87.614  -6.231  0.00  0.00    +0.000 A 
ATOM     15  C   UNL     1     -36.632  88.527  -7.264  0.00  0.00    +0.000 A 
ATOM     16 CL   UNL     1     -37.099  87.942  -8.811  0.00  0.00    +0.000 Cl
ATOM     17  C   UNL     1     -36.450  89.886  -7.030  0.00  0.00    +0.000 A 
ATOM     18  F   UNL     1     -36.631  90.781  -8.012  0.00  0.00    +0.000 F 
ATOM     19  C   UNL     1     -36.085  90.337  -5.769  0.00  0.00    +0.000 A 
ATOM     20  C   UNL     1     -35.897  89.415  -4.742  0.00  0.00    +0.000 A 
ENDBRANCH  11  13
BRANCH   6  21
ATOM     21  O   UNL     1     -36.123  82.197   0.232  0.00  0.00    +0.000 OA
ATOM     22  C   UNL     1     -36.940  82.104   1.365  0.00  0.00    +0.000 C 
ENDBRANCH   6  21
BRANCH   3  23
ATOM     23  O   UNL     1     -34.059  83.182  -1.130  0.00  0.00    +0.000 OA
BRANCH  23  24
ATOM     24  C   UNL     1     -33.178  83.420  -2.098  0.00  0.00    +0.000 C 
ATOM     25  C   UNL     1     -32.175  83.691  -3.225  0.00  0.00    +0.000 C 
BRANCH  25  26
ATOM     26  C   UNL     1     -31.199  83.958  -4.376  0.00  0.00    +0.000 C 
BRANCH  26  27
ATOM     27  N   UNL     1     -30.261  84.215  -5.460  0.00  0.00    +0.000 N 
ATOM     28  C   UNL     1     -30.958  85.122  -6.422  0.00  0.00    +0.000 C 
ATOM     29  C   UNL     1     -30.676  86.630  -6.727  0.00  0.00    +0.000 C 
ATOM     30  O   UNL     1     -29.795  87.544  -6.264  0.00  0.00    +0.000 OA
ATOM     31  C   UNL     1     -29.167  86.726  -5.396  0.00  0.00    +0.000 C 
ATOM     32  C   UNL     1     -29.294  85.236  -4.957  0.00  0.00    +0.000 C 
ENDBRANCH  26  27
ENDBRANCH  25  26
ENDBRANCH  23  24
ENDBRANCH   3  23
TORSDOF 6
ENDMDL
MODEL 5
REMARK VINA RESULT:      -5.4     19.242     22.399
REMARK  Name = Gefitinib.pdbqt.pdb
REMARK  6 active torsions:
REMARK  status: ('A' for Active; 'I' for Inactive)
REMARK    1  A    between atoms: C_3  and  O_11
REMARK    2  A    between atoms: C_6  and  O_21
REMARK    3  A    between atoms: O_11  and  C_12
REMARK    4  A    between atoms: C_13  and  C_14
REMARK    5  A    between atoms: C_14  and  N_15
REMARK    6  A    between atoms: N_23  and  C_25
REMARK                            x       y       z     vdW  Elec       q    Type
REMARK                         _______ _______ _______ _____ _____    ______ ____
ROOT
ATOM      1  N   UNL     1     -36.175  90.878 -10.275  0.00  0.00    +0.000 NA
ATOM      2  N   UNL     1     -34.090  89.741 -10.473  0.00  0.00    +0.000 NA
ATOM      3  C   UNL     1     -36.356  90.019  -6.209  0.00  0.00    +0.000 A 
ATOM      4  C   UNL     1     -35.177  89.877  -8.346  0.00  0.00    +0.000 A 
ATOM      5  C   UNL     1     -35.267  89.595  -6.972  0.00  0.00    +0.000 A 
ATOM      6  C   UNL     1     -37.374  90.743  -6.830  0.00  0.00    +0.000 A 
ATOM      7  C   UNL     1     -36.200  90.592  -8.973  0.00  0.00    +0.000 A 
ATOM      8  C   UNL     1     -37.275  91.012  -8.200  0.00  0.00    +0.000 A 
ATOM      9  C   UNL     1     -34.110  89.470  -9.158  0.00  0.00    +0.000 A 
ATOM     10  C   UNL     1     -35.121  90.434 -10.971  0.00  0.00    +0.000 A 
ATOM     11  N   UNL     1     -33.053  88.721  -8.580  0.00  0.00    +0.000 N 
ATOM     12  H   UNL     1     -32.745  89.137  -7.706  0.00  0.00    +0.000 HD
ENDROOT
BRANCH  11  13
ATOM     13  C   UNL     1     -32.002  88.049  -9.243  0.00  0.00    +0.000 A 
ATOM     14  C   UNL     1     -30.680  88.409  -8.954  0.00  0.00    +0.000 A 
ATOM     15  C   UNL     1     -29.610  87.706  -9.503  0.00  0.00    +0.000 A 
ATOM     16 CL   UNL     1     -28.011  88.214  -9.138  0.00  0.00    +0.000 Cl
ATOM     17  C   UNL     1     -29.851  86.613 -10.328  0.00  0.00    +0.000 A 
ATOM     18  F   UNL     1     -28.834  85.924 -10.866  0.00  0.00    +0.000 F 
ATOM     19  C   UNL     1     -31.153  86.212 -10.599  0.00  0.00    +0.000 A 
ATOM     20  C   UNL     1     -32.215  86.921 -10.042  0.00  0.00    +0.000 A 
ENDBRANCH  11  13
BRANCH   6  21
ATOM     21  O   UNL     1     -38.429  91.140  -6.042  0.00  0.00    +0.000 OA
ATOM     22  C   UNL     1     -38.591  92.523  -5.898  0.00  0.00    +0.000 C 
ENDBRANCH   6  21
BRANCH   3  23
ATOM     23  O   UNL     1     -36.480  89.764  -4.864  0.00  0.00    +0.000 OA
BRANCH  23  24
ATOM     24  C   UNL     1     -36.207  88.510  -4.509  0.00  0.00    +0.000 C 
ATOM     25  C   UNL     1     -35.880  87.067  -4.111  0.00  0.00    +0.000 C 
BRANCH  25  26
ATOM     26  C   UNL     1     -35.523  85.625  -3.732  0.00  0.00    +0.000 C 
BRANCH  26  27
ATOM     27  N   UNL     1     -35.173  84.256  -3.382  0.00  0.00    +0.000 N 
ATOM     28  C   UNL     1     -34.372  83.715  -4.522  0.00  0.00    +0.000 C 
ATOM     29  C   UNL     1     -32.847  83.374  -4.573  0.00  0.00    +0.000 C 
ATOM     30  O   UNL     1     -31.826  83.452  -3.691  0.00  0.00    +0.000 OA
ATOM     31  C   UNL     1     -32.548  83.941  -2.663  0.00  0.00    +0.000 C 
ATOM     32  C   UNL     1     -34.035  84.337  -2.417  0.00  0.00    +0.000 C 
ENDBRANCH  26  27
ENDBRANCH  25  26
ENDBRANCH  23  24
ENDBRANCH   3  23
TORSDOF 6
ENDMDL
MODEL 6
REMARK VINA RESULT:      -5.4     13.140     15.671
REMARK  Name = Gefitinib.pdbqt.pdb
REMARK  6 active torsions:
REMARK  status: ('A' for Active; 'I' for Inactive)
REMARK    1  A    between atoms: C_3  and  O_11
REMARK    2  A    between atoms: C_6  and  O_21
REMARK    3  A    between atoms: O_11  and  C_12
REMARK    4  A    between atoms: C_13  and  C_14
REMARK    5  A    between atoms: C_14  and  N_15
REMARK    6  A    between atoms: N_23  and  C_25
REMARK                            x       y       z     vdW  Elec       q    Type
REMARK                         _______ _______ _______ _____ _____    ______ ____
ROOT
ATOM      1  N   UNL     1     -19.472  83.438  -0.782  0.00  0.00    +0.000 NA
ATOM      2  N   UNL     1     -20.227  85.098   0.752  0.00  0.00    +0.000 NA
ATOM      3  C   UNL     1     -23.270  83.131  -2.452  0.00  0.00    +0.000 A 
ATOM      4  C   UNL     1     -21.753  84.158  -0.833  0.00  0.00    +0.000 A 
ATOM      5  C   UNL     1     -23.027  84.029  -1.411  0.00  0.00    +0.000 A 
ATOM      6  C   UNL     1     -22.217  82.349  -2.927  0.00  0.00    +0.000 A 
ATOM      7  C   UNL     1     -20.699  83.368  -1.300  0.00  0.00    +0.000 A 
ATOM      8  C   UNL     1     -20.953  82.483  -2.339  0.00  0.00    +0.000 A 
ATOM      9  C   UNL     1     -21.457  85.038   0.217  0.00  0.00    +0.000 A 
ATOM     10  C   UNL     1     -19.291  84.299   0.228  0.00  0.00    +0.000 A 
ATOM     11  N   UNL     1     -22.494  85.849   0.747  0.00  0.00    +0.000 N 
ATOM     12  H   UNL     1     -23.030  86.288   0.005  0.00  0.00    +0.000 HD
ENDROOT
BRANCH  11  13
ATOM     13  C   UNL     1     -22.464  86.641   1.916  0.00  0.00    +0.000 A 
ATOM     14  C   UNL     1     -23.101  86.170   3.070  0.00  0.00    +0.000 A 
ATOM     15  C   UNL     1     -23.010  86.865   4.273  0.00  0.00    +0.000 A 
ATOM     16 CL   UNL     1     -23.841  86.255   5.647  0.00  0.00    +0.000 Cl
ATOM     17  C   UNL     1     -22.253  88.030   4.343  0.00  0.00    +0.000 A 
ATOM     18  F   UNL     1     -22.154  88.713   5.493  0.00  0.00    +0.000 F 
ATOM     19  C   UNL     1     -21.580  88.498   3.223  0.00  0.00    +0.000 A 
ATOM     20  C   UNL     1     -21.676  87.792   2.025  0.00  0.00    +0.000 A 
ENDBRANCH  11  13
BRANCH   6  21
ATOM     21  O   UNL     1     -22.500  81.477  -3.952  0.00  0.00    +0.000 OA
ATOM     22  C   UNL     1     -21.409  81.097  -4.743  0.00  0.00    +0.000 C 
ENDBRANCH   6  21
BRANCH   3  23
ATOM     23  O   UNL     1     -24.501  82.977  -3.043  0.00  0.00    +0.000 OA
BRANCH  23  24
ATOM     24  C   UNL     1     -25.145  84.115  -3.291  0.00  0.00    +0.000 C 
ATOM     25  C   UNL     1     -25.876  85.428  -3.592  0.00  0.00    +0.000 C 
BRANCH  25  26
ATOM     26  C   UNL     1     -26.589  86.744  -3.923  0.00  0.00    +0.000 C 
BRANCH  26  27
ATOM     27  N   UNL     1     -27.278  87.989  -4.230  0.00  0.00    +0.000 N 
ATOM     28  C   UNL     1     -26.443  89.091  -3.662  0.00  0.00    +0.000 C 
ATOM     29  C   UNL     1     -25.592  90.165  -4.416  0.00  0.00    +0.000 C 
ATOM     30  O   UNL     1     -25.339  90.434  -5.715  0.00  0.00    +0.000 OA
ATOM     31  C   UNL     1     -26.091  89.439  -6.228  0.00  0.00    +0.000 C 
ATOM     32  C   UNL     1     -26.988  88.298  -5.662  0.00  0.00    +0.000 C 
ENDBRANCH  26  27
ENDBRANCH  25  26
ENDBRANCH  23  24
ENDBRANCH   3  23
TORSDOF 6
ENDMDL
MODEL 7
REMARK VINA RESULT:      -5.4      5.060      8.518
REMARK  Name = Gefitinib.pdbqt.pdb
REMARK  6 active torsions:
REMARK  status: ('A' for Active; 'I' for Inactive)
REMARK    1  A    between atoms: C_3  and  O_11
REMARK    2  A    between atoms: C_6  and  O_21
REMARK    3  A    between atoms: O_11  and  C_12
REMARK    4  A    between atoms: C_13  and  C_14
REMARK    5  A    between atoms: C_14  and  N_15
REMARK    6  A    between atoms: N_23  and  C_25
REMARK                            x       y       z     vdW  Elec       q    Type
REMARK                         _______ _______ _______ _____ _____    ______ ____
ROOT
ATOM      1  N   UNL     1     -25.767  79.434  11.119  0.00  0.00    +0.000 NA
ATOM      2  N   UNL     1     -26.633  81.586  11.663  0.00  0.00    +0.000 NA
ATOM      3  C   UNL     1     -23.790  80.976   7.799  0.00  0.00    +0.000 A 
ATOM      4  C   UNL     1     -25.214  81.320   9.756  0.00  0.00    +0.000 A 
ATOM      5  C   UNL     1     -24.542  81.813   8.624  0.00  0.00    +0.000 A 
ATOM      6  C   UNL     1     -23.705  79.619   8.113  0.00  0.00    +0.000 A 
ATOM      7  C   UNL     1     -25.140  79.960  10.066  0.00  0.00    +0.000 A 
ATOM      8  C   UNL     1     -24.384  79.139   9.240  0.00  0.00    +0.000 A 
ATOM      9  C   UNL     1     -25.987  82.116  10.613  0.00  0.00    +0.000 A 
ATOM     10  C   UNL     1     -26.493  80.271  11.870  0.00  0.00    +0.000 A 
ATOM     11  N   UNL     1     -26.117  83.501  10.334  0.00  0.00    +0.000 N 
ATOM     12  H   UNL     1     -25.216  83.916  10.118  0.00  0.00    +0.000 HD
ENDROOT
BRANCH  11  13
ATOM     13  C   UNL     1     -26.994  84.428  10.938  0.00  0.00    +0.000 A 
ATOM     14  C   UNL     1     -26.489  85.310  11.901  0.00  0.00    +0.000 A 
ATOM     15  C   UNL     1     -27.290  86.310  12.447  0.00  0.00    +0.000 A 
ATOM     16 CL   UNL     1     -26.624  87.340  13.650  0.00  0.00    +0.000 Cl
ATOM     17  C   UNL     1     -28.603  86.459  12.014  0.00  0.00    +0.000 A 
ATOM     18  F   UNL     1     -29.389  87.415  12.528  0.00  0.00    +0.000 F 
ATOM     19  C   UNL     1     -29.116  85.622  11.032  0.00  0.00    +0.000 A 
ATOM     20  C   UNL     1     -28.305  84.627  10.490  0.00  0.00    +0.000 A 
ENDBRANCH  11  13
BRANCH   6  21
ATOM     21  O   UNL     1     -22.955  78.829   7.273  0.00  0.00    +0.000 OA
ATOM     22  C   UNL     1     -23.678  77.929   6.481  0.00  0.00    +0.000 C 
ENDBRANCH   6  21
BRANCH   3  23
ATOM     23  O   UNL     1     -23.118  81.419   6.685  0.00  0.00    +0.000 OA
BRANCH  23  24
ATOM     24  C   UNL     1     -23.299  82.708   6.404  0.00  0.00    +0.000 C 
ATOM     25  C   UNL     1     -23.502  84.188   6.062  0.00  0.00    +0.000 C 
BRANCH  25  26
ATOM     26  C   UNL     1     -23.699  85.661   5.687  0.00  0.00    +0.000 C 
BRANCH  26  27
ATOM     27  N   UNL     1     -23.879  87.057   5.317  0.00  0.00    +0.000 N 
ATOM     28  C   UNL     1     -22.747  87.813   5.935  0.00  0.00    +0.000 C 
ATOM     29  C   UNL     1     -21.523  88.489   5.236  0.00  0.00    +0.000 C 
ATOM     30  O   UNL     1     -21.105  88.605   3.956  0.00  0.00    +0.000 OA
ATOM     31  C   UNL     1     -22.125  87.923   3.399  0.00  0.00    +0.000 C 
ATOM     32  C   UNL     1     -23.405  87.193   3.907  0.00  0.00    +0.000 C 
ENDBRANCH  26  27
ENDBRANCH  25  26
ENDBRANCH  23  24
ENDBRANCH   3  23
TORSDOF 6
ENDMDL
MODEL 8
REMARK VINA RESULT:      -5.3     26.309     27.547
REMARK  Name = Gefitinib.pdbqt.pdb
REMARK  6 active torsions:
REMARK  status: ('A' for Active; 'I' for Inactive)
REMARK    1  A    between atoms: C_3  and  O_11
REMARK    2  A    between atoms: C_6  and  O_21
REMARK    3  A    between atoms: O_11  and  C_12
REMARK    4  A    between atoms: C_13  and  C_14
REMARK    5  A    between atoms: C_14  and  N_15
REMARK    6  A    between atoms: N_23  and  C_25
REMARK                            x       y       z     vdW  Elec       q    Type
REMARK                         _______ _______ _______ _____ _____    ______ ____
ROOT
ATOM      1  N   UNL     1     -43.004 104.697  -4.040  0.00  0.00    +0.000 NA
ATOM      2  N   UNL     1     -42.549 103.910  -1.837  0.00  0.00    +0.000 NA
ATOM      3  C   UNL     1     -45.420 101.400  -4.810  0.00  0.00    +0.000 A 
ATOM      4  C   UNL     1     -43.988 102.655  -3.277  0.00  0.00    +0.000 A 
ATOM      5  C   UNL     1     -44.805 101.548  -3.567  0.00  0.00    +0.000 A 
ATOM      6  C   UNL     1     -45.220 102.379  -5.783  0.00  0.00    +0.000 A 
ATOM      7  C   UNL     1     -43.778 103.632  -4.253  0.00  0.00    +0.000 A 
ATOM      8  C   UNL     1     -44.401 103.474  -5.484  0.00  0.00    +0.000 A 
ATOM      9  C   UNL     1     -43.343 102.848  -2.048  0.00  0.00    +0.000 A 
ATOM     10  C   UNL     1     -42.417 104.787  -2.840  0.00  0.00    +0.000 A 
ATOM     11  N   UNL     1     -43.502 101.876  -1.027  0.00  0.00    +0.000 N 
ATOM     12  H   UNL     1     -44.478 101.615  -0.921  0.00  0.00    +0.000 HD
ENDROOT
BRANCH  11  13
ATOM     13  C   UNL     1     -42.794 101.773   0.190  0.00  0.00    +0.000 A 
ATOM     14  C   UNL     1     -43.506 101.526   1.369  0.00  0.00    +0.000 A 
ATOM     15  C   UNL     1     -42.843 101.312   2.575  0.00  0.00    +0.000 A 
ATOM     16 CL   UNL     1     -43.772 101.047   3.996  0.00  0.00    +0.000 Cl
ATOM     17  C   UNL     1     -41.453 101.315   2.611  0.00  0.00    +0.000 A 
ATOM     18  F   UNL     1     -40.797 101.111   3.762  0.00  0.00    +0.000 F 
ATOM     19  C   UNL     1     -40.722 101.519   1.448  0.00  0.00    +0.000 A 
ATOM     20  C   UNL     1     -41.396 101.728   0.246  0.00  0.00    +0.000 A 
ENDBRANCH  11  13
BRANCH   6  21
ATOM     21  O   UNL     1     -45.844 102.194  -6.994  0.00  0.00    +0.000 OA
ATOM     22  C   UNL     1     -45.041 102.381  -8.126  0.00  0.00    +0.000 C 
ENDBRANCH   6  21
BRANCH   3  23
ATOM     23  O   UNL     1     -46.225 100.333  -5.131  0.00  0.00    +0.000 OA
BRANCH  23  24
ATOM     24  C   UNL     1     -46.900  99.817  -4.106  0.00  0.00    +0.000 C 
ATOM     25  C   UNL     1     -47.686  99.214  -2.937  0.00  0.00    +0.000 C 
BRANCH  25  26
ATOM     26  C   UNL     1     -48.486  98.586  -1.791  0.00  0.00    +0.000 C 
BRANCH  26  27
ATOM     27  N   UNL     1     -49.252  98.002  -0.698  0.00  0.00    +0.000 N 
ATOM     28  C   UNL     1     -48.266  97.616   0.357  0.00  0.00    +0.000 C 
ATOM     29  C   UNL     1     -48.033  98.259   1.763  0.00  0.00    +0.000 C 
ATOM     30  O   UNL     1     -48.585  99.290   2.439  0.00  0.00    +0.000 OA
ATOM     31  C   UNL     1     -49.474  99.640   1.487  0.00  0.00    +0.000 C 
ATOM     32  C   UNL     1     -49.853  99.140   0.060  0.00  0.00    +0.000 C 
ENDBRANCH  26  27
ENDBRANCH  25  26
ENDBRANCH  23  24
ENDBRANCH   3  23
TORSDOF 6
ENDMDL
MODEL 9
REMARK VINA RESULT:      -5.2     15.847     18.387
REMARK  Name = Gefitinib.pdbqt.pdb
REMARK  6 active torsions:
REMARK  status: ('A' for Active; 'I' for Inactive)
REMARK    1  A    between atoms: C_3  and  O_11
REMARK    2  A    between atoms: C_6  and  O_21
REMARK    3  A    between atoms: O_11  and  C_12
REMARK    4  A    between atoms: C_13  and  C_14
REMARK    5  A    between atoms: C_14  and  N_15
REMARK    6  A    between atoms: N_23  and  C_25
REMARK                            x       y       z     vdW  Elec       q    Type
REMARK                         _______ _______ _______ _____ _____    ______ ____
ROOT
ATOM      1  N   UNL     1     -40.072 100.651  17.740  0.00  0.00    +0.000 NA
ATOM      2  N   UNL     1     -38.730  98.990  18.796  0.00  0.00    +0.000 NA
ATOM      3  C   UNL     1     -37.684 100.538  14.336  0.00  0.00    +0.000 A 
ATOM      4  C   UNL     1     -38.198  99.721  16.582  0.00  0.00    +0.000 A 
ATOM      5  C   UNL     1     -37.404  99.708  15.422  0.00  0.00    +0.000 A 
ATOM      6  C   UNL     1     -38.782 101.395  14.408  0.00  0.00    +0.000 A 
ATOM      7  C   UNL     1     -39.292 100.586  16.661  0.00  0.00    +0.000 A 
ATOM      8  C   UNL     1     -39.562 101.402  15.570  0.00  0.00    +0.000 A 
ATOM      9  C   UNL     1     -37.956  98.914  17.702  0.00  0.00    +0.000 A 
ATOM     10  C   UNL     1     -39.753  99.852  18.766  0.00  0.00    +0.000 A 
ATOM     11  N   UNL     1     -36.845  98.032  17.687  0.00  0.00    +0.000 N 
ATOM     12  H   UNL     1     -36.800  97.515  16.814  0.00  0.00    +0.000 HD
ENDROOT
BRANCH  11  13
ATOM     13  C   UNL     1     -36.311  97.292  18.765  0.00  0.00    +0.000 A 
ATOM     14  C   UNL     1     -34.987  97.525  19.155  0.00  0.00    +0.000 A 
ATOM     15  C   UNL     1     -34.449  96.896  20.277  0.00  0.00    +0.000 A 
ATOM     16 CL   UNL     1     -32.808  97.196  20.687  0.00  0.00    +0.000 Cl
ATOM     17  C   UNL     1     -35.242  96.047  21.040  0.00  0.00    +0.000 A 
ATOM     18  F   UNL     1     -34.743  95.433  22.123  0.00  0.00    +0.000 F 
ATOM     19  C   UNL     1     -36.570  95.830  20.697  0.00  0.00    +0.000 A 
ATOM     20  C   UNL     1     -37.098  96.466  19.575  0.00  0.00    +0.000 A 
ENDBRANCH  11  13
BRANCH   6  21
ATOM     21  O   UNL     1     -39.022 102.196  13.316  0.00  0.00    +0.000 OA
ATOM     22  C   UNL     1     -39.889 103.274  13.533  0.00  0.00    +0.000 C 
ENDBRANCH   6  21
BRANCH   3  23
ATOM     23  O   UNL     1     -36.933 100.553  13.185  0.00  0.00    +0.000 OA
BRANCH  23  24
ATOM     24  C   UNL     1     -35.620 100.655  13.380  0.00  0.00    +0.000 C 
ATOM     25  C   UNL     1     -34.105 100.761  13.590  0.00  0.00    +0.000 C 
BRANCH  25  26
ATOM     26  C   UNL     1     -32.586 100.851  13.768  0.00  0.00    +0.000 C 
BRANCH  26  27
ATOM     27  N   UNL     1     -31.144 100.946  13.950  0.00  0.00    +0.000 N 
ATOM     28  C   UNL     1     -30.916 101.908  15.071  0.00  0.00    +0.000 C 
ATOM     29  C   UNL     1     -30.399 101.621  16.518  0.00  0.00    +0.000 C 
ATOM     30  O   UNL     1     -30.022 100.510  17.189  0.00  0.00    +0.000 OA
ATOM     31  C   UNL     1     -30.228  99.643  16.179  0.00  0.00    +0.000 C 
ATOM     32  C   UNL     1     -30.726  99.727  14.704  0.00  0.00    +0.000 C 
ENDBRANCH  26  27
ENDBRANCH  25  26
ENDBRANCH  23  24
ENDBRANCH   3  23
TORSDOF 6
ENDMDL
