MODEL 1
REMARK VINA RESULT:      -6.4      0.000      0.000
REMARK  Name = Genistein.pdbqt.pdb
REMARK  4 active torsions:
REMARK  status: ('A' for Active; 'I' for Inactive)
REMARK    1  A    between atoms: C_4  and  C_12
REMARK    2  A    between atoms: C_7  and  O_20
REMARK    3  A    between atoms: C_11  and  O_22
REMARK    4  A    between atoms: C_17  and  O_18
REMARK                            x       y       z     vdW  Elec       q    Type
REMARK                         _______ _______ _______ _____ _____    ______ ____
ROOT
ATOM      1  O   UNL     1     -29.758  86.393  16.261  0.00  0.00    +0.000 OA
ATOM      2  O   UNL     1     -27.820  89.189  13.825  0.00  0.00    +0.000 OA
ATOM      3  C   UNL     1     -29.118  88.740  15.767  0.00  0.00    +0.000 A 
ATOM      4  C   UNL     1     -28.385  86.872  14.208  0.00  0.00    +0.000 A 
ATOM      5  C   UNL     1     -29.765  87.752  16.567  0.00  0.00    +0.000 A 
ATOM      6  C   UNL     1     -28.376  88.340  14.513  0.00  0.00    +0.000 A 
ATOM      7  C   UNL     1     -29.178  90.081  16.155  0.00  0.00    +0.000 A 
ATOM      8  C   UNL     1     -29.063  86.283  15.142  0.00  0.00    +0.000 A 
ATOM      9  C   UNL     1     -30.449  88.121  17.722  0.00  0.00    +0.000 A 
ATOM     10  C   UNL     1     -29.866  90.442  17.313  0.00  0.00    +0.000 A 
ATOM     11  C   UNL     1     -30.491  89.464  18.083  0.00  0.00    +0.000 A 
ENDROOT
BRANCH   4  12
ATOM     12  C   UNL     1     -27.753  86.209  13.069  0.00  0.00    +0.000 A 
ATOM     13  C   UNL     1     -26.363  86.109  12.972  0.00  0.00    +0.000 A 
ATOM     14  C   UNL     1     -28.532  85.656  12.046  0.00  0.00    +0.000 A 
ATOM     15  C   UNL     1     -25.760  85.477  11.887  0.00  0.00    +0.000 A 
ATOM     16  C   UNL     1     -27.942  85.021  10.954  0.00  0.00    +0.000 A 
ATOM     17  C   UNL     1     -26.558  84.937  10.884  0.00  0.00    +0.000 A 
BRANCH  17  18
ATOM     18  O   UNL     1     -25.998  84.312   9.809  0.00  0.00    +0.000 OA
ATOM     19  H   UNL     1     -25.035  84.271   9.947  0.00  0.00    +0.000 HD
ENDBRANCH  17  18
ENDBRANCH   4  12
BRANCH   7  20
ATOM     20  O   UNL     1     -28.589  91.096  15.451  0.00  0.00    +0.000 OA
ATOM     21  H   UNL     1     -28.253  91.768  16.087  0.00  0.00    +0.000 HD
ENDBRANCH   7  20
BRANCH  11  22
ATOM     22  O   UNL     1     -31.167  89.805  19.218  0.00  0.00    +0.000 OA
ATOM     23  H   UNL     1     -31.896  90.401  18.971  0.00  0.00    +0.000 HD
ENDBRANCH  11  22
TORSDOF 4
ENDMDL
MODEL 2
REMARK VINA RESULT:      -6.4     12.052     14.617
REMARK  Name = Genistein.pdbqt.pdb
REMARK  4 active torsions:
REMARK  status: ('A' for Active; 'I' for Inactive)
REMARK    1  A    between atoms: C_4  and  C_12
REMARK    2  A    between atoms: C_7  and  O_20
REMARK    3  A    between atoms: C_11  and  O_22
REMARK    4  A    between atoms: C_17  and  O_18
REMARK                            x       y       z     vdW  Elec       q    Type
REMARK                         _______ _______ _______ _____ _____    ______ ____
ROOT
ATOM      1  O   UNL     1     -32.191 101.864  13.949  0.00  0.00    +0.000 OA
ATOM      2  O   UNL     1     -33.657  98.291  15.560  0.00  0.00    +0.000 OA
ATOM      3  C   UNL     1     -31.818  99.757  15.208  0.00  0.00    +0.000 A 
ATOM      4  C   UNL     1     -34.134 100.311  14.323  0.00  0.00    +0.000 A 
ATOM      5  C   UNL     1     -31.362 100.984  14.643  0.00  0.00    +0.000 A 
ATOM      6  C   UNL     1     -33.266  99.346  15.074  0.00  0.00    +0.000 A 
ATOM      7  C   UNL     1     -30.911  98.939  15.888  0.00  0.00    +0.000 A 
ATOM      8  C   UNL     1     -33.389 101.305  13.958  0.00  0.00    +0.000 A 
ATOM      9  C   UNL     1     -30.027 101.362  14.766  0.00  0.00    +0.000 A 
ATOM     10  C   UNL     1     -29.577  99.324  16.007  0.00  0.00    +0.000 A 
ATOM     11  C   UNL     1     -29.149 100.527  15.449  0.00  0.00    +0.000 A 
ENDROOT
BRANCH   4  12
ATOM     12  C   UNL     1     -35.562 100.170  14.044  0.00  0.00    +0.000 A 
ATOM     13  C   UNL     1     -36.484  99.971  15.075  0.00  0.00    +0.000 A 
ATOM     14  C   UNL     1     -36.039 100.234  12.729  0.00  0.00    +0.000 A 
ATOM     15  C   UNL     1     -37.845  99.837  14.809  0.00  0.00    +0.000 A 
ATOM     16  C   UNL     1     -37.398 100.101  12.449  0.00  0.00    +0.000 A 
ATOM     17  C   UNL     1     -38.291  99.904  13.494  0.00  0.00    +0.000 A 
BRANCH  17  18
ATOM     18  O   UNL     1     -39.617  99.777  13.200  0.00  0.00    +0.000 OA
ATOM     19  H   UNL     1     -40.109  99.709  14.038  0.00  0.00    +0.000 HD
ENDBRANCH  17  18
ENDBRANCH   4  12
BRANCH   7  20
ATOM     20  O   UNL     1     -31.258  97.745  16.462  0.00  0.00    +0.000 OA
ATOM     21  H   UNL     1     -31.331  97.873  17.436  0.00  0.00    +0.000 HD
ENDBRANCH   7  20
BRANCH  11  22
ATOM     22  O   UNL     1     -27.845 100.915  15.560  0.00  0.00    +0.000 OA
ATOM     23  H   UNL     1     -27.668 101.583  14.875  0.00  0.00    +0.000 HD
ENDBRANCH  11  22
TORSDOF 4
ENDMDL
MODEL 3
REMARK VINA RESULT:      -5.8     18.617     20.782
REMARK  Name = Genistein.pdbqt.pdb
REMARK  4 active torsions:
REMARK  status: ('A' for Active; 'I' for Inactive)
REMARK    1  A    between atoms: C_4  and  C_12
REMARK    2  A    between atoms: C_7  and  O_20
REMARK    3  A    between atoms: C_11  and  O_22
REMARK    4  A    between atoms: C_17  and  O_18
REMARK                            x       y       z     vdW  Elec       q    Type
REMARK                         _______ _______ _______ _____ _____    ______ ____
ROOT
ATOM      1  O   UNL     1     -44.807  83.384   2.055  0.00  0.00    +0.000 OA
ATOM      2  O   UNL     1     -43.636  81.993   5.823  0.00  0.00    +0.000 OA
ATOM      3  C   UNL     1     -43.246  82.081   3.479  0.00  0.00    +0.000 A 
ATOM      4  C   UNL     1     -45.216  83.289   4.535  0.00  0.00    +0.000 A 
ATOM      5  C   UNL     1     -43.682  82.577   2.215  0.00  0.00    +0.000 A 
ATOM      6  C   UNL     1     -44.011  82.420   4.737  0.00  0.00    +0.000 A 
ATOM      7  C   UNL     1     -42.104  81.277   3.541  0.00  0.00    +0.000 A 
ATOM      8  C   UNL     1     -45.306  83.544   3.269  0.00  0.00    +0.000 A 
ATOM      9  C   UNL     1     -42.978  82.264   1.056  0.00  0.00    +0.000 A 
ATOM     10  C   UNL     1     -41.405  80.968   2.376  0.00  0.00    +0.000 A 
ATOM     11  C   UNL     1     -41.845  81.463   1.150  0.00  0.00    +0.000 A 
ENDROOT
BRANCH   4  12
ATOM     12  C   UNL     1     -46.134  83.768   5.567  0.00  0.00    +0.000 A 
ATOM     13  C   UNL     1     -45.759  84.782   6.452  0.00  0.00    +0.000 A 
ATOM     14  C   UNL     1     -47.415  83.219   5.690  0.00  0.00    +0.000 A 
ATOM     15  C   UNL     1     -46.634  85.240   7.435  0.00  0.00    +0.000 A 
ATOM     16  C   UNL     1     -48.300  83.667   6.670  0.00  0.00    +0.000 A 
ATOM     17  C   UNL     1     -47.900  84.676   7.535  0.00  0.00    +0.000 A 
BRANCH  17  18
ATOM     18  O   UNL     1     -48.780  85.102   8.487  0.00  0.00    +0.000 OA
ATOM     19  H   UNL     1     -49.660  85.177   8.076  0.00  0.00    +0.000 HD
ENDBRANCH  17  18
ENDBRANCH   4  12
BRANCH   7  20
ATOM     20  O   UNL     1     -41.612  80.757   4.707  0.00  0.00    +0.000 OA
ATOM     21  H   UNL     1     -42.368  80.477   5.272  0.00  0.00    +0.000 HD
ENDBRANCH   7  20
BRANCH  11  22
ATOM     22  O   UNL     1     -41.167  81.167   0.002  0.00  0.00    +0.000 OA
ATOM     23  H   UNL     1     -40.257  81.500   0.092  0.00  0.00    +0.000 HD
ENDBRANCH  11  22
TORSDOF 4
ENDMDL
MODEL 4
REMARK VINA RESULT:      -5.7     22.799     24.742
REMARK  Name = Genistein.pdbqt.pdb
REMARK  4 active torsions:
REMARK  status: ('A' for Active; 'I' for Inactive)
REMARK    1  A    between atoms: C_4  and  C_12
REMARK    2  A    between atoms: C_7  and  O_20
REMARK    3  A    between atoms: C_11  and  O_22
REMARK    4  A    between atoms: C_17  and  O_18
REMARK                            x       y       z     vdW  Elec       q    Type
REMARK                         _______ _______ _______ _____ _____    ______ ____
ROOT
ATOM      1  O   UNL     1     -34.880  88.754  -6.792  0.00  0.00    +0.000 OA
ATOM      2  O   UNL     1     -36.666  91.583  -9.305  0.00  0.00    +0.000 OA
ATOM      3  C   UNL     1     -34.920  90.012  -8.932  0.00  0.00    +0.000 A 
ATOM      4  C   UNL     1     -36.725  90.417  -7.190  0.00  0.00    +0.000 A 
ATOM      5  C   UNL     1     -34.345  89.056  -8.043  0.00  0.00    +0.000 A 
ATOM      6  C   UNL     1     -36.173  90.761  -8.541  0.00  0.00    +0.000 A 
ATOM      7  C   UNL     1     -34.313  90.247 -10.168  0.00  0.00    +0.000 A 
ATOM      8  C   UNL     1     -35.952  89.518  -6.669  0.00  0.00    +0.000 A 
ATOM      9  C   UNL     1     -33.191  88.366  -8.403  0.00  0.00    +0.000 A 
ATOM     10  C   UNL     1     -33.157  89.552 -10.521  0.00  0.00    +0.000 A 
ATOM     11  C   UNL     1     -32.610  88.622  -9.641  0.00  0.00    +0.000 A 
ENDROOT
BRANCH   4  12
ATOM     12  C   UNL     1     -37.916  90.983  -6.560  0.00  0.00    +0.000 A 
ATOM     13  C   UNL     1     -39.120  90.274  -6.522  0.00  0.00    +0.000 A 
ATOM     14  C   UNL     1     -37.876  92.255  -5.976  0.00  0.00    +0.000 A 
ATOM     15  C   UNL     1     -40.255  90.813  -5.922  0.00  0.00    +0.000 A 
ATOM     16  C   UNL     1     -39.005  92.806  -5.372  0.00  0.00    +0.000 A 
ATOM     17  C   UNL     1     -40.187  92.078  -5.350  0.00  0.00    +0.000 A 
BRANCH  17  18
ATOM     18  O   UNL     1     -41.281  92.634  -4.754  0.00  0.00    +0.000 OA
ATOM     19  H   UNL     1     -41.530  93.430  -5.257  0.00  0.00    +0.000 HD
ENDBRANCH  17  18
ENDBRANCH   4  12
BRANCH   7  20
ATOM     20  O   UNL     1     -34.792  91.144 -11.084  0.00  0.00    +0.000 OA
ATOM     21  H   UNL     1     -35.123  91.938 -10.605  0.00  0.00    +0.000 HD
ENDBRANCH   7  20
BRANCH  11  22
ATOM     22  O   UNL     1     -31.479  87.935  -9.976  0.00  0.00    +0.000 OA
ATOM     23  H   UNL     1     -31.544  87.682 -10.914  0.00  0.00    +0.000 HD
ENDBRANCH  11  22
TORSDOF 4
ENDMDL
MODEL 5
REMARK VINA RESULT:      -5.6     19.208     21.187
REMARK  Name = Genistein.pdbqt.pdb
REMARK  4 active torsions:
REMARK  status: ('A' for Active; 'I' for Inactive)
REMARK    1  A    between atoms: C_4  and  C_12
REMARK    2  A    between atoms: C_7  and  O_20
REMARK    3  A    between atoms: C_11  and  O_22
REMARK    4  A    between atoms: C_17  and  O_18
REMARK                            x       y       z     vdW  Elec       q    Type
REMARK                         _______ _______ _______ _____ _____    ______ ____
ROOT
ATOM      1  O   UNL     1     -22.116  88.493  -5.797  0.00  0.00    +0.000 OA
ATOM      2  O   UNL     1     -24.926  91.454  -4.877  0.00  0.00    +0.000 OA
ATOM      3  C   UNL     1     -22.659  90.860  -5.284  0.00  0.00    +0.000 A 
ATOM      4  C   UNL     1     -24.512  89.125  -5.366  0.00  0.00    +0.000 A 
ATOM      5  C   UNL     1     -21.736  89.819  -5.598  0.00  0.00    +0.000 A 
ATOM      6  C   UNL     1     -24.133  90.559  -5.148  0.00  0.00    +0.000 A 
ATOM      7  C   UNL     1     -22.184  92.163  -5.103  0.00  0.00    +0.000 A 
ATOM      8  C   UNL     1     -23.427  88.469  -5.629  0.00  0.00    +0.000 A 
ATOM      9  C   UNL     1     -20.378  90.097  -5.723  0.00  0.00    +0.000 A 
ATOM     10  C   UNL     1     -20.823  92.433  -5.230  0.00  0.00    +0.000 A 
ATOM     11  C   UNL     1     -19.936  91.403  -5.538  0.00  0.00    +0.000 A 
ENDROOT
BRANCH   4  12
ATOM     12  C   UNL     1     -25.856  88.553  -5.297  0.00  0.00    +0.000 A 
ATOM     13  C   UNL     1     -26.647  88.427  -6.441  0.00  0.00    +0.000 A 
ATOM     14  C   UNL     1     -26.380  88.116  -4.075  0.00  0.00    +0.000 A 
ATOM     15  C   UNL     1     -27.928  87.881  -6.376  0.00  0.00    +0.000 A 
ATOM     16  C   UNL     1     -27.661  87.569  -3.995  0.00  0.00    +0.000 A 
ATOM     17  C   UNL     1     -28.424  87.456  -5.149  0.00  0.00    +0.000 A 
BRANCH  17  18
ATOM     18  O   UNL     1     -29.674  86.918  -5.051  0.00  0.00    +0.000 OA
ATOM     19  H   UNL     1     -30.218  87.509  -4.501  0.00  0.00    +0.000 HD
ENDBRANCH  17  18
ENDBRANCH   4  12
BRANCH   7  20
ATOM     20  O   UNL     1     -22.994  93.224  -4.800  0.00  0.00    +0.000 OA
ATOM     21  H   UNL     1     -23.922  92.988  -5.030  0.00  0.00    +0.000 HD
ENDBRANCH   7  20
BRANCH  11  22
ATOM     22  O   UNL     1     -18.601  91.656  -5.665  0.00  0.00    +0.000 OA
ATOM     23  H   UNL     1     -18.373  92.393  -5.071  0.00  0.00    +0.000 HD
ENDBRANCH  11  22
TORSDOF 4
ENDMDL
MODEL 6
REMARK VINA RESULT:      -5.6     21.687     22.962
REMARK  Name = Genistein.pdbqt.pdb
REMARK  4 active torsions:
REMARK  status: ('A' for Active; 'I' for Inactive)
REMARK    1  A    between atoms: C_4  and  C_12
REMARK    2  A    between atoms: C_7  and  O_20
REMARK    3  A    between atoms: C_11  and  O_22
REMARK    4  A    between atoms: C_17  and  O_18
REMARK                            x       y       z     vdW  Elec       q    Type
REMARK                         _______ _______ _______ _____ _____    ______ ____
ROOT
ATOM      1  O   UNL     1     -41.955 102.224   4.938  0.00  0.00    +0.000 OA
ATOM      2  O   UNL     1     -41.075 101.803   0.869  0.00  0.00    +0.000 OA
ATOM      3  C   UNL     1     -42.636 101.557   2.646  0.00  0.00    +0.000 A 
ATOM      4  C   UNL     1     -40.306 102.484   3.056  0.00  0.00    +0.000 A 
ATOM      5  C   UNL     1     -42.892 101.718   4.040  0.00  0.00    +0.000 A 
ATOM      6  C   UNL     1     -41.295 101.942   2.067  0.00  0.00    +0.000 A 
ATOM      7  C   UNL     1     -43.640 101.040   1.822  0.00  0.00    +0.000 A 
ATOM      8  C   UNL     1     -40.877 102.486   4.218  0.00  0.00    +0.000 A 
ATOM      9  C   UNL     1     -44.128 101.362   4.574  0.00  0.00    +0.000 A 
ATOM     10  C   UNL     1     -44.874 100.687   2.364  0.00  0.00    +0.000 A 
ATOM     11  C   UNL     1     -45.107 100.851   3.728  0.00  0.00    +0.000 A 
ENDROOT
BRANCH   4  12
ATOM     12  C   UNL     1     -38.943 102.930   2.776  0.00  0.00    +0.000 A 
ATOM     13  C   UNL     1     -37.847 102.351   3.421  0.00  0.00    +0.000 A 
ATOM     14  C   UNL     1     -38.705 103.953   1.851  0.00  0.00    +0.000 A 
ATOM     15  C   UNL     1     -36.547 102.776   3.155  0.00  0.00    +0.000 A 
ATOM     16  C   UNL     1     -37.409 104.388   1.575  0.00  0.00    +0.000 A 
ATOM     17  C   UNL     1     -36.339 103.794   2.232  0.00  0.00    +0.000 A 
BRANCH  17  18
ATOM     18  O   UNL     1     -35.079 104.232   1.948  0.00  0.00    +0.000 OA
ATOM     19  H   UNL     1     -35.133 105.172   1.700  0.00  0.00    +0.000 HD
ENDBRANCH  17  18
ENDBRANCH   4  12
BRANCH   7  20
ATOM     20  O   UNL     1     -43.485 100.851   0.475  0.00  0.00    +0.000 OA
ATOM     21  H   UNL     1     -42.557 100.572   0.300  0.00  0.00    +0.000 HD
ENDBRANCH   7  20
BRANCH  11  22
ATOM     22  O   UNL     1     -46.312 100.509   4.269  0.00  0.00    +0.000 OA
ATOM     23  H   UNL     1     -46.378 100.921   5.149  0.00  0.00    +0.000 HD
ENDBRANCH  11  22
TORSDOF 4
ENDMDL
MODEL 7
REMARK VINA RESULT:      -5.5     23.626     25.624
REMARK  Name = Genistein.pdbqt.pdb
REMARK  4 active torsions:
REMARK  status: ('A' for Active; 'I' for Inactive)
REMARK    1  A    between atoms: C_4  and  C_12
REMARK    2  A    between atoms: C_7  and  O_20
REMARK    3  A    between atoms: C_11  and  O_22
REMARK    4  A    between atoms: C_17  and  O_18
REMARK                            x       y       z     vdW  Elec       q    Type
REMARK                         _______ _______ _______ _____ _____    ______ ____
ROOT
ATOM      1  O   UNL     1     -22.030 103.634  -4.958  0.00  0.00    +0.000 OA
ATOM      2  O   UNL     1     -25.941 102.458  -4.046  0.00  0.00    +0.000 OA
ATOM      3  C   UNL     1     -24.185 102.609  -5.643  0.00  0.00    +0.000 A 
ATOM      4  C   UNL     1     -23.890 103.472  -3.271  0.00  0.00    +0.000 A 
ATOM      5  C   UNL     1     -22.847 103.026  -5.909  0.00  0.00    +0.000 A 
ATOM      6  C   UNL     1     -24.791 102.816  -4.275  0.00  0.00    +0.000 A 
ATOM      7  C   UNL     1     -24.928 102.006  -6.661  0.00  0.00    +0.000 A 
ATOM      8  C   UNL     1     -22.760 103.710  -3.858  0.00  0.00    +0.000 A 
ATOM      9  C   UNL     1     -22.289 102.835  -7.170  0.00  0.00    +0.000 A 
ATOM     10  C   UNL     1     -24.362 101.819  -7.921  0.00  0.00    +0.000 A 
ATOM     11  C   UNL     1     -23.054 102.232  -8.163  0.00  0.00    +0.000 A 
ENDROOT
BRANCH   4  12
ATOM     12  C   UNL     1     -24.212 103.794  -1.883  0.00  0.00    +0.000 A 
ATOM     13  C   UNL     1     -25.008 104.897  -1.562  0.00  0.00    +0.000 A 
ATOM     14  C   UNL     1     -23.728 102.998  -0.838  0.00  0.00    +0.000 A 
ATOM     15  C   UNL     1     -25.315 105.204  -0.239  0.00  0.00    +0.000 A 
ATOM     16  C   UNL     1     -24.027 103.294   0.491  0.00  0.00    +0.000 A 
ATOM     17  C   UNL     1     -24.821 104.397   0.779  0.00  0.00    +0.000 A 
BRANCH  17  18
ATOM     18  O   UNL     1     -25.104 104.670   2.086  0.00  0.00    +0.000 OA
ATOM     19  H   UNL     1     -25.844 104.101   2.362  0.00  0.00    +0.000 HD
ENDBRANCH  17  18
ENDBRANCH   4  12
BRANCH   7  20
ATOM     20  O   UNL     1     -26.217 101.574  -6.498  0.00  0.00    +0.000 OA
ATOM     21  H   UNL     1     -26.740 102.295  -6.078  0.00  0.00    +0.000 HD
ENDBRANCH   7  20
BRANCH  11  22
ATOM     22  O   UNL     1     -22.489 102.053  -9.393  0.00  0.00    +0.000 OA
ATOM     23  H   UNL     1     -22.316 102.931  -9.778  0.00  0.00    +0.000 HD
ENDBRANCH  11  22
TORSDOF 4
ENDMDL
MODEL 8
REMARK VINA RESULT:      -5.3     18.937     22.200
REMARK  Name = Genistein.pdbqt.pdb
REMARK  4 active torsions:
REMARK  status: ('A' for Active; 'I' for Inactive)
REMARK    1  A    between atoms: C_4  and  C_12
REMARK    2  A    between atoms: C_7  and  O_20
REMARK    3  A    between atoms: C_11  and  O_22
REMARK    4  A    between atoms: C_17  and  O_18
REMARK                            x       y       z     vdW  Elec       q    Type
REMARK                         _______ _______ _______ _____ _____    ______ ____
ROOT
ATOM      1  O   UNL     1     -37.716  89.513  -6.179  0.00  0.00    +0.000 OA
ATOM      2  O   UNL     1     -34.035  87.551  -5.855  0.00  0.00    +0.000 OA
ATOM      3  C   UNL     1     -35.419  89.094  -7.021  0.00  0.00    +0.000 A 
ATOM      4  C   UNL     1     -36.249  87.882  -4.947  0.00  0.00    +0.000 A 
ATOM      5  C   UNL     1     -36.689  89.739  -7.092  0.00  0.00    +0.000 A 
ATOM      6  C   UNL     1     -35.126  88.106  -5.916  0.00  0.00    +0.000 A 
ATOM      7  C   UNL     1     -34.449  89.385  -7.984  0.00  0.00    +0.000 A 
ATOM      8  C   UNL     1     -37.240  88.629  -5.319  0.00  0.00    +0.000 A 
ATOM      9  C   UNL     1     -36.959  90.649  -8.111  0.00  0.00    +0.000 A 
ATOM     10  C   UNL     1     -34.727  90.297  -9.000  0.00  0.00    +0.000 A 
ATOM     11  C   UNL     1     -35.973  90.919  -9.054  0.00  0.00    +0.000 A 
ENDROOT
BRANCH   4  12
ATOM     12  C   UNL     1     -36.244  86.988  -3.791  0.00  0.00    +0.000 A 
ATOM     13  C   UNL     1     -36.602  87.448  -2.521  0.00  0.00    +0.000 A 
ATOM     14  C   UNL     1     -35.880  85.644  -3.933  0.00  0.00    +0.000 A 
ATOM     15  C   UNL     1     -36.599  86.596  -1.419  0.00  0.00    +0.000 A 
ATOM     16  C   UNL     1     -35.871  84.781  -2.839  0.00  0.00    +0.000 A 
ATOM     17  C   UNL     1     -36.232  85.266  -1.588  0.00  0.00    +0.000 A 
BRANCH  17  18
ATOM     18  O   UNL     1     -36.218  84.405  -0.530  0.00  0.00    +0.000 OA
ATOM     19  H   UNL     1     -35.298  84.123  -0.379  0.00  0.00    +0.000 HD
ENDBRANCH  17  18
ENDBRANCH   4  12
BRANCH   7  20
ATOM     20  O   UNL     1     -33.204  88.816  -7.995  0.00  0.00    +0.000 OA
ATOM     21  H   UNL     1     -32.866  88.778  -7.071  0.00  0.00    +0.000 HD
ENDBRANCH   7  20
BRANCH  11  22
ATOM     22  O   UNL     1     -36.256  91.814 -10.045  0.00  0.00    +0.000 OA
ATOM     23  H   UNL     1     -35.583  92.517 -10.021  0.00  0.00    +0.000 HD
ENDBRANCH  11  22
TORSDOF 4
ENDMDL
MODEL 9
REMARK VINA RESULT:      -5.3     14.929     16.750
REMARK  Name = Genistein.pdbqt.pdb
REMARK  4 active torsions:
REMARK  status: ('A' for Active; 'I' for Inactive)
REMARK    1  A    between atoms: C_4  and  C_12
REMARK    2  A    between atoms: C_7  and  O_20
REMARK    3  A    between atoms: C_11  and  O_22
REMARK    4  A    between atoms: C_17  and  O_18
REMARK                            x       y       z     vdW  Elec       q    Type
REMARK                         _______ _______ _______ _____ _____    ______ ____
ROOT
ATOM      1  O   UNL     1     -21.093  98.690   7.009  0.00  0.00    +0.000 OA
ATOM      2  O   UNL     1     -22.083 101.925   9.471  0.00  0.00    +0.000 OA
ATOM      3  C   UNL     1     -22.270 100.847   7.359  0.00  0.00    +0.000 A 
ATOM      4  C   UNL     1     -20.898  99.833   9.242  0.00  0.00    +0.000 A 
ATOM      5  C   UNL     1     -21.907  99.726   6.556  0.00  0.00    +0.000 A 
ATOM      6  C   UNL     1     -21.771 100.962   8.781  0.00  0.00    +0.000 A 
ATOM      7  C   UNL     1     -23.092 101.839   6.817  0.00  0.00    +0.000 A 
ATOM      8  C   UNL     1     -20.783  99.000   8.256  0.00  0.00    +0.000 A 
ATOM      9  C   UNL     1     -22.367  99.621   5.246  0.00  0.00    +0.000 A 
ATOM     10  C   UNL     1     -23.548 101.727   5.505  0.00  0.00    +0.000 A 
ATOM     11  C   UNL     1     -23.184 100.624   4.735  0.00  0.00    +0.000 A 
ENDROOT
BRANCH   4  12
ATOM     12  C   UNL     1     -20.280  99.684  10.558  0.00  0.00    +0.000 A 
ATOM     13  C   UNL     1     -18.891  99.730  10.713  0.00  0.00    +0.000 A 
ATOM     14  C   UNL     1     -21.069  99.494  11.697  0.00  0.00    +0.000 A 
ATOM     15  C   UNL     1     -18.301  99.589  11.967  0.00  0.00    +0.000 A 
ATOM     16  C   UNL     1     -20.492  99.351  12.958  0.00  0.00    +0.000 A 
ATOM     17  C   UNL     1     -19.110  99.401  13.082  0.00  0.00    +0.000 A 
BRANCH  17  18
ATOM     18  O   UNL     1     -18.563  99.259  14.324  0.00  0.00    +0.000 OA
ATOM     19  H   UNL     1     -18.396  98.313  14.477  0.00  0.00    +0.000 HD
ENDBRANCH  17  18
ENDBRANCH   4  12
BRANCH   7  20
ATOM     20  O   UNL     1     -23.492 102.949   7.512  0.00  0.00    +0.000 OA
ATOM     21  H   UNL     1     -24.064 102.663   8.261  0.00  0.00    +0.000 HD
ENDBRANCH   7  20
BRANCH  11  22
ATOM     22  O   UNL     1     -23.625 100.504   3.449  0.00  0.00    +0.000 OA
ATOM     23  H   UNL     1     -23.738 101.398   3.081  0.00  0.00    +0.000 HD
ENDBRANCH  11  22
TORSDOF 4
ENDMDL
