MODEL 1
REMARK VINA RESULT:      -2.6      0.000      0.000
REMARK  Name = HydrogenPeroxide.pdbqt.pdb
REMARK  1 active torsions:
REMARK  status: ('A' for Active; 'I' for Inactive)
REMARK    1  A    between atoms: O_1  and  O_3
REMARK                            x       y       z     vdW  Elec       q    Type
REMARK                         _______ _______ _______ _____ _____    ______ ____
ROOT
ATOM      1  O   UNL     1     -32.202  99.148  -2.936  0.00  0.00    +0.000 OA
ATOM      2  H   UNL     1     -31.292  99.341  -3.232  0.00  0.00    +0.000 HD
ENDROOT
BRANCH   1   3
ATOM      3  O   UNL     1     -32.727 100.492  -3.108  0.00  0.00    +0.000 OA
ATOM      4  H   UNL     1     -33.611 100.231  -3.430  0.00  0.00    +0.000 HD
ENDBRANCH   1   3
TORSDOF 1
ENDMDL
MODEL 2
REMARK VINA RESULT:      -2.6      6.810      6.839
REMARK  Name = HydrogenPeroxide.pdbqt.pdb
REMARK  1 active torsions:
REMARK  status: ('A' for Active; 'I' for Inactive)
REMARK    1  A    between atoms: O_1  and  O_3
REMARK                            x       y       z     vdW  Elec       q    Type
REMARK                         _______ _______ _______ _____ _____    ______ ____
ROOT
ATOM      1  O   UNL     1     -26.057 100.137  -5.188  0.00  0.00    +0.000 OA
ATOM      2  H   UNL     1     -26.291  99.609  -4.401  0.00  0.00    +0.000 HD
ENDROOT
BRANCH   1   3
ATOM      3  O   UNL     1     -25.875 101.403  -4.498  0.00  0.00    +0.000 OA
ATOM      4  H   UNL     1     -26.604 101.292  -3.859  0.00  0.00    +0.000 HD
ENDBRANCH   1   3
TORSDOF 1
ENDMDL
MODEL 3
REMARK VINA RESULT:      -2.4      7.181      7.182
REMARK  Name = HydrogenPeroxide.pdbqt.pdb
REMARK  1 active torsions:
REMARK  status: ('A' for Active; 'I' for Inactive)
REMARK    1  A    between atoms: O_1  and  O_3
REMARK                            x       y       z     vdW  Elec       q    Type
REMARK                         _______ _______ _______ _____ _____    ______ ____
ROOT
ATOM      1  O   UNL     1     -34.237  98.286  -9.655  0.00  0.00    +0.000 OA
ATOM      2  H   UNL     1     -33.540  98.957  -9.787  0.00  0.00    +0.000 HD
ENDROOT
BRANCH   1   3
ATOM      3  O   UNL     1     -35.370  99.188  -9.776  0.00  0.00    +0.000 OA
ATOM      4  H   UNL     1     -35.422  99.178 -10.750  0.00  0.00    +0.000 HD
ENDBRANCH   1   3
TORSDOF 1
ENDMDL
MODEL 4
REMARK VINA RESULT:      -2.3      8.993      9.571
REMARK  Name = HydrogenPeroxide.pdbqt.pdb
REMARK  1 active torsions:
REMARK  status: ('A' for Active; 'I' for Inactive)
REMARK    1  A    between atoms: O_1  and  O_3
REMARK                            x       y       z     vdW  Elec       q    Type
REMARK                         _______ _______ _______ _____ _____    ______ ____
ROOT
ATOM      1  O   UNL     1     -28.975  91.543  -7.862  0.00  0.00    +0.000 OA
ATOM      2  H   UNL     1     -29.012  92.004  -8.722  0.00  0.00    +0.000 HD
ENDROOT
BRANCH   1   3
ATOM      3  O   UNL     1     -28.848  92.732  -7.036  0.00  0.00    +0.000 OA
ATOM      4  H   UNL     1     -29.618  93.209  -7.400  0.00  0.00    +0.000 HD
ENDBRANCH   1   3
TORSDOF 1
ENDMDL
MODEL 5
REMARK VINA RESULT:      -2.2     20.074     20.497
REMARK  Name = HydrogenPeroxide.pdbqt.pdb
REMARK  1 active torsions:
REMARK  status: ('A' for Active; 'I' for Inactive)
REMARK    1  A    between atoms: O_1  and  O_3
REMARK                            x       y       z     vdW  Elec       q    Type
REMARK                         _______ _______ _______ _____ _____    ______ ____
ROOT
ATOM      1  O   UNL     1     -28.628  91.002  15.515  0.00  0.00    +0.000 OA
ATOM      2  H   UNL     1     -28.149  91.853  15.491  0.00  0.00    +0.000 HD
ENDROOT
BRANCH   1   3
ATOM      3  O   UNL     1     -28.175  90.514  14.223  0.00  0.00    +0.000 OA
ATOM      4  H   UNL     1     -28.917  90.869  13.698  0.00  0.00    +0.000 HD
ENDBRANCH   1   3
TORSDOF 1
ENDMDL
MODEL 6
REMARK VINA RESULT:      -2.2     11.219     11.385
REMARK  Name = HydrogenPeroxide.pdbqt.pdb
REMARK  1 active torsions:
REMARK  status: ('A' for Active; 'I' for Inactive)
REMARK    1  A    between atoms: O_1  and  O_3
REMARK                            x       y       z     vdW  Elec       q    Type
REMARK                         _______ _______ _______ _____ _____    ______ ____
ROOT
ATOM      1  O   UNL     1     -25.150  91.519  -4.728  0.00  0.00    +0.000 OA
ATOM      2  H   UNL     1     -24.975  90.975  -3.937  0.00  0.00    +0.000 HD
ENDROOT
BRANCH   1   3
ATOM      3  O   UNL     1     -23.903  92.265  -4.703  0.00  0.00    +0.000 OA
ATOM      4  H   UNL     1     -23.523  91.881  -5.516  0.00  0.00    +0.000 HD
ENDBRANCH   1   3
TORSDOF 1
ENDMDL
MODEL 7
REMARK VINA RESULT:      -2.2     16.230     16.560
REMARK  Name = HydrogenPeroxide.pdbqt.pdb
REMARK  1 active torsions:
REMARK  status: ('A' for Active; 'I' for Inactive)
REMARK    1  A    between atoms: O_1  and  O_3
REMARK                            x       y       z     vdW  Elec       q    Type
REMARK                         _______ _______ _______ _____ _____    ______ ____
ROOT
ATOM      1  O   UNL     1     -24.733  87.117   3.438  0.00  0.00    +0.000 OA
ATOM      2  H   UNL     1     -25.510  87.708   3.412  0.00  0.00    +0.000 HD
ENDROOT
BRANCH   1   3
ATOM      3  O   UNL     1     -24.473  87.238   4.862  0.00  0.00    +0.000 OA
ATOM      4  H   UNL     1     -25.388  87.448   5.130  0.00  0.00    +0.000 HD
ENDBRANCH   1   3
TORSDOF 1
ENDMDL
MODEL 8
REMARK VINA RESULT:      -2.1     10.143     10.392
REMARK  Name = HydrogenPeroxide.pdbqt.pdb
REMARK  1 active torsions:
REMARK  status: ('A' for Active; 'I' for Inactive)
REMARK    1  A    between atoms: O_1  and  O_3
REMARK                            x       y       z     vdW  Elec       q    Type
REMARK                         _______ _______ _______ _____ _____    ______ ____
ROOT
ATOM      1  O   UNL     1     -40.960  93.288  -4.503  0.00  0.00    +0.000 OA
ATOM      2  H   UNL     1     -41.272  93.471  -3.596  0.00  0.00    +0.000 HD
ENDROOT
BRANCH   1   3
ATOM      3  O   UNL     1     -39.559  93.097  -4.167  0.00  0.00    +0.000 OA
ATOM      4  H   UNL     1     -39.686  92.334  -3.572  0.00  0.00    +0.000 HD
ENDBRANCH   1   3
TORSDOF 1
ENDMDL
MODEL 9
REMARK VINA RESULT:      -1.9      1.653      2.168
REMARK  Name = HydrogenPeroxide.pdbqt.pdb
REMARK  1 active torsions:
REMARK  status: ('A' for Active; 'I' for Inactive)
REMARK    1  A    between atoms: O_1  and  O_3
REMARK                            x       y       z     vdW  Elec       q    Type
REMARK                         _______ _______ _______ _____ _____    ______ ____
ROOT
ATOM      1  O   UNL     1     -33.012 101.200  -2.985  0.00  0.00    +0.000 OA
ATOM      2  H   UNL     1     -33.935 101.215  -2.668  0.00  0.00    +0.000 HD
ENDROOT
BRANCH   1   3
ATOM      3  O   UNL     1     -32.673 102.557  -2.590  0.00  0.00    +0.000 OA
ATOM      4  H   UNL     1     -32.906 102.464  -1.647  0.00  0.00    +0.000 HD
ENDBRANCH   1   3
TORSDOF 1
ENDMDL
