MODEL 1
REMARK VINA RESULT:      -5.7      0.000      0.000
REMARK  Name = Hyoscyamine.pdbqt.pdb
REMARK  6 active torsions:
REMARK  status: ('A' for Active; 'I' for Inactive)
REMARK    1  A    between atoms: C_2  and  O_3
REMARK    2  A    between atoms: C_2  and  C_13
REMARK    3  A    between atoms: O_3  and  C_4
REMARK    4  A    between atoms: C_13  and  C_14
REMARK    5  A    between atoms: C_13  and  C_20
REMARK    6  A    between atoms: C_20  and  O_21
REMARK                            x       y       z     vdW  Elec       q    Type
REMARK                         _______ _______ _______ _____ _____    ______ ____
ROOT
ATOM      1  O   UNL     1     -31.419  97.520  15.460  0.00  0.00    +0.000 OA
ATOM      2  C   UNL     1     -31.497  98.603  16.028  0.00  0.00    +0.000 C 
ENDROOT
BRANCH   2   3
ATOM      3  O   UNL     1     -32.628  99.334  16.246  0.00  0.00    +0.000 OA
BRANCH   3   4
ATOM      4  C   UNL     1     -33.313  99.641  15.070  0.00  0.00    +0.000 C 
ATOM      5  C   UNL     1     -32.991 100.836  14.311  0.00  0.00    +0.000 C 
ATOM      6  C   UNL     1     -33.941 101.746  13.656  0.00  0.00    +0.000 C 
ATOM      7  N   UNL     1     -35.095 101.868  14.662  0.00  0.00    +0.000 NA
ATOM      8  C   UNL     1     -34.560 101.169  12.475  0.00  0.00    +0.000 C 
ATOM      9  C   UNL     1     -35.701 100.477  14.421  0.00  0.00    +0.000 C 
ATOM     10  C   UNL     1     -36.030 102.936  14.279  0.00  0.00    +0.000 C 
ATOM     11  C   UNL     1     -35.735 100.326  12.973  0.00  0.00    +0.000 C 
ATOM     12  C   UNL     1     -34.759  99.556  15.076  0.00  0.00    +0.000 C 
ENDBRANCH   3   4
ENDBRANCH   2   3
BRANCH   2  13
ATOM     13  C   UNL     1     -30.302  99.328  16.553  0.00  0.00    +0.000 C 
BRANCH  13  14
ATOM     14  C   UNL     1     -29.928 100.695  16.144  0.00  0.00    +0.000 A 
ATOM     15  C   UNL     1     -29.046 100.896  15.076  0.00  0.00    +0.000 A 
ATOM     16  C   UNL     1     -28.655 102.180  14.701  0.00  0.00    +0.000 A 
ATOM     17  C   UNL     1     -29.135 103.283  15.399  0.00  0.00    +0.000 A 
ATOM     18  C   UNL     1     -30.003 103.101  16.470  0.00  0.00    +0.000 A 
ATOM     19  C   UNL     1     -30.391 101.814  16.840  0.00  0.00    +0.000 A 
ENDBRANCH  13  14
BRANCH  13  20
ATOM     20  C   UNL     1     -29.531  98.662  17.558  0.00  0.00    +0.000 C 
BRANCH  20  21
ATOM     21  O   UNL     1     -28.816  98.043  18.491  0.00  0.00    +0.000 OA
ATOM     22  H   UNL     1     -29.366  97.849  19.270  0.00  0.00    +0.000 HD
ENDBRANCH  20  21
ENDBRANCH  13  20
ENDBRANCH   2  13
TORSDOF 6
ENDMDL
MODEL 2
REMARK VINA RESULT:      -5.3     12.252     14.535
REMARK  Name = Hyoscyamine.pdbqt.pdb
REMARK  6 active torsions:
REMARK  status: ('A' for Active; 'I' for Inactive)
REMARK    1  A    between atoms: C_2  and  O_3
REMARK    2  A    between atoms: C_2  and  C_13
REMARK    3  A    between atoms: O_3  and  C_4
REMARK    4  A    between atoms: C_13  and  C_14
REMARK    5  A    between atoms: C_13  and  C_20
REMARK    6  A    between atoms: C_20  and  O_21
REMARK                            x       y       z     vdW  Elec       q    Type
REMARK                         _______ _______ _______ _____ _____    ______ ____
ROOT
ATOM      1  O   UNL     1     -21.804 101.980   4.884  0.00  0.00    +0.000 OA
ATOM      2  C   UNL     1     -22.996 102.214   5.042  0.00  0.00    +0.000 C 
ENDROOT
BRANCH   2   3
ATOM      3  O   UNL     1     -23.580 102.783   6.136  0.00  0.00    +0.000 OA
BRANCH   3   4
ATOM      4  C   UNL     1     -23.108 104.070   6.398  0.00  0.00    +0.000 C 
ATOM      5  C   UNL     1     -22.758 104.475   7.748  0.00  0.00    +0.000 C 
ATOM      6  C   UNL     1     -23.041 105.771   8.379  0.00  0.00    +0.000 C 
ATOM      7  N   UNL     1     -24.464 106.111   7.914  0.00  0.00    +0.000 NA
ATOM      8  C   UNL     1     -22.227 106.852   7.850  0.00  0.00    +0.000 C 
ATOM      9  C   UNL     1     -24.104 106.484   6.468  0.00  0.00    +0.000 C 
ATOM     10  C   UNL     1     -25.007 107.264   8.647  0.00  0.00    +0.000 C 
ATOM     11  C   UNL     1     -22.928 107.336   6.579  0.00  0.00    +0.000 C 
ATOM     12  C   UNL     1     -23.822 105.192   5.822  0.00  0.00    +0.000 C 
ENDBRANCH   3   4
ENDBRANCH   2   3
BRANCH   2  13
ATOM     13  C   UNL     1     -24.033 101.859   4.028  0.00  0.00    +0.000 C 
BRANCH  13  14
ATOM     14  C   UNL     1     -24.195 102.561   2.741  0.00  0.00    +0.000 A 
ATOM     15  C   UNL     1     -23.638 102.030   1.572  0.00  0.00    +0.000 A 
ATOM     16  C   UNL     1     -23.752 102.701   0.355  0.00  0.00    +0.000 A 
ATOM     17  C   UNL     1     -24.419 103.920   0.294  0.00  0.00    +0.000 A 
ATOM     18  C   UNL     1     -24.970 104.466   1.448  0.00  0.00    +0.000 A 
ATOM     19  C   UNL     1     -24.852 103.791   2.663  0.00  0.00    +0.000 A 
ENDBRANCH  13  14
BRANCH  13  20
ATOM     20  C   UNL     1     -24.859 100.728   4.318  0.00  0.00    +0.000 C 
BRANCH  20  21
ATOM     21  O   UNL     1     -25.626  99.677   4.587  0.00  0.00    +0.000 OA
ATOM     22  H   UNL     1     -25.385  98.923   4.020  0.00  0.00    +0.000 HD
ENDBRANCH  20  21
ENDBRANCH  13  20
ENDBRANCH   2  13
TORSDOF 6
ENDMDL
MODEL 3
REMARK VINA RESULT:      -5.2     12.572     14.510
REMARK  Name = Hyoscyamine.pdbqt.pdb
REMARK  6 active torsions:
REMARK  status: ('A' for Active; 'I' for Inactive)
REMARK    1  A    between atoms: C_2  and  O_3
REMARK    2  A    between atoms: C_2  and  C_13
REMARK    3  A    between atoms: O_3  and  C_4
REMARK    4  A    between atoms: C_13  and  C_14
REMARK    5  A    between atoms: C_13  and  C_20
REMARK    6  A    between atoms: C_20  and  O_21
REMARK                            x       y       z     vdW  Elec       q    Type
REMARK                         _______ _______ _______ _____ _____    ______ ____
ROOT
ATOM      1  O   UNL     1     -22.697 102.716   5.634  0.00  0.00    +0.000 OA
ATOM      2  C   UNL     1     -23.098 101.572   5.457  0.00  0.00    +0.000 C 
ENDROOT
BRANCH   2   3
ATOM      3  O   UNL     1     -24.248 101.196   4.825  0.00  0.00    +0.000 OA
BRANCH   3   4
ATOM      4  C   UNL     1     -24.388 101.772   3.562  0.00  0.00    +0.000 C 
ATOM      5  C   UNL     1     -23.391 101.552   2.528  0.00  0.00    +0.000 C 
ATOM      6  C   UNL     1     -22.874 102.547   1.579  0.00  0.00    +0.000 C 
ATOM      7  N   UNL     1     -22.711 103.819   2.422  0.00  0.00    +0.000 NA
ATOM      8  C   UNL     1     -23.841 102.919   0.560  0.00  0.00    +0.000 C 
ATOM      9  C   UNL     1     -24.204 104.165   2.531  0.00  0.00    +0.000 C 
ATOM     10  C   UNL     1     -21.970 104.858   1.691  0.00  0.00    +0.000 C 
ATOM     11  C   UNL     1     -24.728 103.998   1.182  0.00  0.00    +0.000 C 
ATOM     12  C   UNL     1     -24.734 103.177   3.483  0.00  0.00    +0.000 C 
ENDBRANCH   3   4
ENDBRANCH   2   3
BRANCH   2  13
ATOM     13  C   UNL     1     -22.371 100.371   5.966  0.00  0.00    +0.000 C 
BRANCH  13  14
ATOM     14  C   UNL     1     -22.016 100.167   7.383  0.00  0.00    +0.000 A 
ATOM     15  C   UNL     1     -22.682 100.879   8.387  0.00  0.00    +0.000 A 
ATOM     16  C   UNL     1     -22.332 100.724   9.728  0.00  0.00    +0.000 A 
ATOM     17  C   UNL     1     -21.303  99.858  10.081  0.00  0.00    +0.000 A 
ATOM     18  C   UNL     1     -20.624  99.150   9.095  0.00  0.00    +0.000 A 
ATOM     19  C   UNL     1     -20.978  99.310   7.756  0.00  0.00    +0.000 A 
ENDBRANCH  13  14
BRANCH  13  20
ATOM     20  C   UNL     1     -22.072  99.345   5.015  0.00  0.00    +0.000 C 
BRANCH  20  21
ATOM     21  O   UNL     1     -21.794  98.392   4.131  0.00  0.00    +0.000 OA
ATOM     22  H   UNL     1     -22.482  97.704   4.144  0.00  0.00    +0.000 HD
ENDBRANCH  20  21
ENDBRANCH  13  20
ENDBRANCH   2  13
TORSDOF 6
ENDMDL
MODEL 4
REMARK VINA RESULT:      -5.1      1.681      2.380
REMARK  Name = Hyoscyamine.pdbqt.pdb
REMARK  6 active torsions:
REMARK  status: ('A' for Active; 'I' for Inactive)
REMARK    1  A    between atoms: C_2  and  O_3
REMARK    2  A    between atoms: C_2  and  C_13
REMARK    3  A    between atoms: O_3  and  C_4
REMARK    4  A    between atoms: C_13  and  C_14
REMARK    5  A    between atoms: C_13  and  C_20
REMARK    6  A    between atoms: C_20  and  O_21
REMARK                            x       y       z     vdW  Elec       q    Type
REMARK                         _______ _______ _______ _____ _____    ______ ____
ROOT
ATOM      1  O   UNL     1     -33.421 101.786  16.009  0.00  0.00    +0.000 OA
ATOM      2  C   UNL     1     -33.242 100.576  15.935  0.00  0.00    +0.000 C 
ENDROOT
BRANCH   2   3
ATOM      3  O   UNL     1     -34.164  99.598  16.168  0.00  0.00    +0.000 OA
BRANCH   3   4
ATOM      4  C   UNL     1     -35.145  99.528  15.179  0.00  0.00    +0.000 C 
ATOM      5  C   UNL     1     -34.949 100.164  13.889  0.00  0.00    +0.000 C 
ATOM      6  C   UNL     1     -35.951 100.906  13.112  0.00  0.00    +0.000 C 
ATOM      7  N   UNL     1     -36.710 101.725  14.166  0.00  0.00    +0.000 NA
ATOM      8  C   UNL     1     -36.969 100.050  12.528  0.00  0.00    +0.000 C 
ATOM      9  C   UNL     1     -37.510 100.559  14.768  0.00  0.00    +0.000 C 
ATOM     10  C   UNL     1     -37.595 102.718  13.540  0.00  0.00    +0.000 C 
ATOM     11  C   UNL     1     -38.013  99.816  13.621  0.00  0.00    +0.000 C 
ATOM     12  C   UNL     1     -36.517  99.809  15.553  0.00  0.00    +0.000 C 
ENDBRANCH   3   4
ENDBRANCH   2   3
BRANCH   2  13
ATOM     13  C   UNL     1     -31.918  99.972  15.602  0.00  0.00    +0.000 C 
BRANCH  13  14
ATOM     14  C   UNL     1     -30.692 100.759  15.374  0.00  0.00    +0.000 A 
ATOM     15  C   UNL     1     -30.633 101.687  14.328  0.00  0.00    +0.000 A 
ATOM     16  C   UNL     1     -29.469 102.412  14.078  0.00  0.00    +0.000 A 
ATOM     17  C   UNL     1     -28.342 102.209  14.867  0.00  0.00    +0.000 A 
ATOM     18  C   UNL     1     -28.380 101.283  15.904  0.00  0.00    +0.000 A 
ATOM     19  C   UNL     1     -29.547 100.561  16.149  0.00  0.00    +0.000 A 
ENDBRANCH  13  14
BRANCH  13  20
ATOM     20  C   UNL     1     -31.849  98.543  15.573  0.00  0.00    +0.000 C 
BRANCH  20  21
ATOM     21  O   UNL     1     -31.785  97.216  15.546  0.00  0.00    +0.000 OA
ATOM     22  H   UNL     1     -32.667  96.829  15.687  0.00  0.00    +0.000 HD
ENDBRANCH  20  21
ENDBRANCH  13  20
ENDBRANCH   2  13
TORSDOF 6
ENDMDL
MODEL 5
REMARK VINA RESULT:      -5.0      2.000      3.328
REMARK  Name = Hyoscyamine.pdbqt.pdb
REMARK  6 active torsions:
REMARK  status: ('A' for Active; 'I' for Inactive)
REMARK    1  A    between atoms: C_2  and  O_3
REMARK    2  A    between atoms: C_2  and  C_13
REMARK    3  A    between atoms: O_3  and  C_4
REMARK    4  A    between atoms: C_13  and  C_14
REMARK    5  A    between atoms: C_13  and  C_20
REMARK    6  A    between atoms: C_20  and  O_21
REMARK                            x       y       z     vdW  Elec       q    Type
REMARK                         _______ _______ _______ _____ _____    ______ ____
ROOT
ATOM      1  O   UNL     1     -31.838 102.558  15.821  0.00  0.00    +0.000 OA
ATOM      2  C   UNL     1     -31.130 101.822  15.145  0.00  0.00    +0.000 C 
ENDROOT
BRANCH   2   3
ATOM      3  O   UNL     1     -31.369 101.402  13.869  0.00  0.00    +0.000 OA
BRANCH   3   4
ATOM      4  C   UNL     1     -32.645 100.862  13.704  0.00  0.00    +0.000 C 
ATOM      5  C   UNL     1     -33.767 101.703  13.326  0.00  0.00    +0.000 C 
ATOM      6  C   UNL     1     -35.137 101.632  13.851  0.00  0.00    +0.000 C 
ATOM      7  N   UNL     1     -34.948 101.385  15.354  0.00  0.00    +0.000 NA
ATOM      8  C   UNL     1     -35.865 100.463  13.388  0.00  0.00    +0.000 C 
ATOM      9  C   UNL     1     -34.524  99.912  15.249  0.00  0.00    +0.000 C 
ATOM     10  C   UNL     1     -36.216 101.528  16.086  0.00  0.00    +0.000 C 
ATOM     11  C   UNL     1     -35.467  99.313  14.315  0.00  0.00    +0.000 C 
ATOM     12  C   UNL     1     -33.150  99.969  14.727  0.00  0.00    +0.000 C 
ENDBRANCH   3   4
ENDBRANCH   2   3
BRANCH   2  13
ATOM     13  C   UNL     1     -29.865 101.220  15.660  0.00  0.00    +0.000 C 
BRANCH  13  14
ATOM     14  C   UNL     1     -29.808 100.265  16.783  0.00  0.00    +0.000 A 
ATOM     15  C   UNL     1     -29.174 100.619  17.979  0.00  0.00    +0.000 A 
ATOM     16  C   UNL     1     -29.081  99.715  19.036  0.00  0.00    +0.000 A 
ATOM     17  C   UNL     1     -29.616  98.437  18.905  0.00  0.00    +0.000 A 
ATOM     18  C   UNL     1     -30.240  98.066  17.719  0.00  0.00    +0.000 A 
ATOM     19  C   UNL     1     -30.329  98.975  16.666  0.00  0.00    +0.000 A 
ENDBRANCH  13  14
BRANCH  13  20
ATOM     20  C   UNL     1     -28.660 101.554  14.964  0.00  0.00    +0.000 C 
BRANCH  20  21
ATOM     21  O   UNL     1     -27.541 101.864  14.318  0.00  0.00    +0.000 OA
ATOM     22  H   UNL     1     -27.701 101.903  13.358  0.00  0.00    +0.000 HD
ENDBRANCH  20  21
ENDBRANCH  13  20
ENDBRANCH   2  13
TORSDOF 6
ENDMDL
MODEL 6
REMARK VINA RESULT:      -5.0      2.411      6.745
REMARK  Name = Hyoscyamine.pdbqt.pdb
REMARK  6 active torsions:
REMARK  status: ('A' for Active; 'I' for Inactive)
REMARK    1  A    between atoms: C_2  and  O_3
REMARK    2  A    between atoms: C_2  and  C_13
REMARK    3  A    between atoms: O_3  and  C_4
REMARK    4  A    between atoms: C_13  and  C_14
REMARK    5  A    between atoms: C_13  and  C_20
REMARK    6  A    between atoms: C_20  and  O_21
REMARK                            x       y       z     vdW  Elec       q    Type
REMARK                         _______ _______ _______ _____ _____    ______ ____
ROOT
ATOM      1  O   UNL     1     -33.290 101.700  15.689  0.00  0.00    +0.000 OA
ATOM      2  C   UNL     1     -33.495 101.170  14.604  0.00  0.00    +0.000 C 
ENDROOT
BRANCH   2   3
ATOM      3  O   UNL     1     -32.678 100.291  13.954  0.00  0.00    +0.000 OA
BRANCH   3   4
ATOM      4  C   UNL     1     -31.326 100.617  14.072  0.00  0.00    +0.000 C 
ATOM      5  C   UNL     1     -30.474  99.928  15.025  0.00  0.00    +0.000 C 
ATOM      6  C   UNL     1     -29.435 100.530  15.872  0.00  0.00    +0.000 C 
ATOM      7  N   UNL     1     -30.057 101.850  16.346  0.00  0.00    +0.000 NA
ATOM      8  C   UNL     1     -28.258 100.940  15.125  0.00  0.00    +0.000 C 
ATOM      9  C   UNL     1     -29.923 102.608  15.015  0.00  0.00    +0.000 C 
ATOM     10  C   UNL     1     -29.250 102.476  17.404  0.00  0.00    +0.000 C 
ATOM     11  C   UNL     1     -28.571 102.324  14.554  0.00  0.00    +0.000 C 
ATOM     12  C   UNL     1     -30.963 102.017  14.159  0.00  0.00    +0.000 C 
ENDBRANCH   3   4
ENDBRANCH   2   3
BRANCH   2  13
ATOM     13  C   UNL     1     -34.708 101.454  13.780  0.00  0.00    +0.000 C 
BRANCH  13  14
ATOM     14  C   UNL     1     -35.954 100.670  13.859  0.00  0.00    +0.000 A 
ATOM     15  C   UNL     1     -37.075 101.048  13.111  0.00  0.00    +0.000 A 
ATOM     16  C   UNL     1     -38.271 100.338  13.204  0.00  0.00    +0.000 A 
ATOM     17  C   UNL     1     -38.364  99.242  14.055  0.00  0.00    +0.000 A 
ATOM     18  C   UNL     1     -37.263  98.859  14.814  0.00  0.00    +0.000 A 
ATOM     19  C   UNL     1     -36.070  99.574  14.717  0.00  0.00    +0.000 A 
ENDBRANCH  13  14
BRANCH  13  20
ATOM     20  C   UNL     1     -34.653 102.598  12.922  0.00  0.00    +0.000 C 
BRANCH  20  21
ATOM     21  O   UNL     1     -34.603 103.660  12.125  0.00  0.00    +0.000 OA
ATOM     22  H   UNL     1     -34.748 104.476  12.634  0.00  0.00    +0.000 HD
ENDBRANCH  20  21
ENDBRANCH  13  20
ENDBRANCH   2  13
TORSDOF 6
ENDMDL
MODEL 7
REMARK VINA RESULT:      -4.5      2.504      3.850
REMARK  Name = Hyoscyamine.pdbqt.pdb
REMARK  6 active torsions:
REMARK  status: ('A' for Active; 'I' for Inactive)
REMARK    1  A    between atoms: C_2  and  O_3
REMARK    2  A    between atoms: C_2  and  C_13
REMARK    3  A    between atoms: O_3  and  C_4
REMARK    4  A    between atoms: C_13  and  C_14
REMARK    5  A    between atoms: C_13  and  C_20
REMARK    6  A    between atoms: C_20  and  O_21
REMARK                            x       y       z     vdW  Elec       q    Type
REMARK                         _______ _______ _______ _____ _____    ______ ____
ROOT
ATOM      1  O   UNL     1     -34.180 103.237  15.129  0.00  0.00    +0.000 OA
ATOM      2  C   UNL     1     -33.328 102.442  14.751  0.00  0.00    +0.000 C 
ENDROOT
BRANCH   2   3
ATOM      3  O   UNL     1     -33.364 101.679  13.620  0.00  0.00    +0.000 OA
BRANCH   3   4
ATOM      4  C   UNL     1     -34.526 100.914  13.516  0.00  0.00    +0.000 C 
ATOM      5  C   UNL     1     -35.763 101.499  13.030  0.00  0.00    +0.000 C 
ATOM      6  C   UNL     1     -37.114 101.261  13.553  0.00  0.00    +0.000 C 
ATOM      7  N   UNL     1     -36.927 101.235  15.076  0.00  0.00    +0.000 NA
ATOM      8  C   UNL     1     -37.623  99.938  13.235  0.00  0.00    +0.000 C 
ATOM      9  C   UNL     1     -36.259  99.853  15.158  0.00  0.00    +0.000 C 
ATOM     10  C   UNL     1     -38.220 101.249  15.777  0.00  0.00    +0.000 C 
ATOM     11  C   UNL     1     -37.062  98.994  14.300  0.00  0.00    +0.000 C 
ATOM     12  C   UNL     1     -34.900 100.080  14.641  0.00  0.00    +0.000 C 
ENDBRANCH   3   4
ENDBRANCH   2   3
BRANCH   2  13
ATOM     13  C   UNL     1     -32.088 102.153  15.531  0.00  0.00    +0.000 C 
BRANCH  13  14
ATOM     14  C   UNL     1     -31.566 100.794  15.766  0.00  0.00    +0.000 A 
ATOM     15  C   UNL     1     -31.983 100.060  16.882  0.00  0.00    +0.000 A 
ATOM     16  C   UNL     1     -31.471  98.789  17.137  0.00  0.00    +0.000 A 
ATOM     17  C   UNL     1     -30.523  98.238  16.280  0.00  0.00    +0.000 A 
ATOM     18  C   UNL     1     -30.090  98.958  15.172  0.00  0.00    +0.000 A 
ATOM     19  C   UNL     1     -30.606 100.229  14.923  0.00  0.00    +0.000 A 
ENDBRANCH  13  14
BRANCH  13  20
ATOM     20  C   UNL     1     -31.349 103.280  16.011  0.00  0.00    +0.000 C 
BRANCH  20  21
ATOM     21  O   UNL     1     -30.662 104.327  16.457  0.00  0.00    +0.000 OA
ATOM     22  H   UNL     1     -30.130 104.716  15.741  0.00  0.00    +0.000 HD
ENDBRANCH  20  21
ENDBRANCH  13  20
ENDBRANCH   2  13
TORSDOF 6
ENDMDL
MODEL 8
REMARK VINA RESULT:      -4.5     21.233     23.645
REMARK  Name = Hyoscyamine.pdbqt.pdb
REMARK  6 active torsions:
REMARK  status: ('A' for Active; 'I' for Inactive)
REMARK    1  A    between atoms: C_2  and  O_3
REMARK    2  A    between atoms: C_2  and  C_13
REMARK    3  A    between atoms: O_3  and  C_4
REMARK    4  A    between atoms: C_13  and  C_14
REMARK    5  A    between atoms: C_13  and  C_20
REMARK    6  A    between atoms: C_20  and  O_21
REMARK                            x       y       z     vdW  Elec       q    Type
REMARK                         _______ _______ _______ _____ _____    ______ ____
ROOT
ATOM      1  O   UNL     1     -52.297  95.922   3.795  0.00  0.00    +0.000 OA
ATOM      2  C   UNL     1     -51.206  95.430   3.530  0.00  0.00    +0.000 C 
ENDROOT
BRANCH   2   3
ATOM      3  O   UNL     1     -50.444  94.643   4.343  0.00  0.00    +0.000 OA
BRANCH   3   4
ATOM      4  C   UNL     1     -51.103  93.483   4.751  0.00  0.00    +0.000 C 
ATOM      5  C   UNL     1     -51.738  92.607   3.782  0.00  0.00    +0.000 C 
ATOM      6  C   UNL     1     -53.032  91.928   3.925  0.00  0.00    +0.000 C 
ATOM      7  N   UNL     1     -53.935  92.978   4.586  0.00  0.00    +0.000 NA
ATOM      8  C   UNL     1     -53.000  90.835   4.881  0.00  0.00    +0.000 C 
ATOM      9  C   UNL     1     -53.323  92.891   5.993  0.00  0.00    +0.000 C 
ATOM     10  C   UNL     1     -55.343  92.555   4.585  0.00  0.00    +0.000 C 
ATOM     11  C   UNL     1     -53.196  91.465   6.261  0.00  0.00    +0.000 C 
ATOM     12  C   UNL     1     -52.026  93.573   5.864  0.00  0.00    +0.000 C 
ENDBRANCH   3   4
ENDBRANCH   2   3
BRANCH   2  13
ATOM     13  C   UNL     1     -50.506  95.665   2.233  0.00  0.00    +0.000 C 
BRANCH  13  14
ATOM     14  C   UNL     1     -49.492  96.717   2.027  0.00  0.00    +0.000 A 
ATOM     15  C   UNL     1     -49.210  97.634   3.045  0.00  0.00    +0.000 A 
ATOM     16  C   UNL     1     -48.280  98.655   2.852  0.00  0.00    +0.000 A 
ATOM     17  C   UNL     1     -47.626  98.777   1.631  0.00  0.00    +0.000 A 
ATOM     18  C   UNL     1     -47.903  97.880   0.605  0.00  0.00    +0.000 A 
ATOM     19  C   UNL     1     -48.833  96.861   0.804  0.00  0.00    +0.000 A 
ENDBRANCH  13  14
BRANCH  13  20
ATOM     20  C   UNL     1     -50.806  94.764   1.163  0.00  0.00    +0.000 C 
BRANCH  20  21
ATOM     21  O   UNL     1     -51.086  93.926   0.170  0.00  0.00    +0.000 OA
ATOM     22  H   UNL     1     -51.827  94.264  -0.363  0.00  0.00    +0.000 HD
ENDBRANCH  20  21
ENDBRANCH  13  20
ENDBRANCH   2  13
TORSDOF 6
ENDMDL
MODEL 9
REMARK VINA RESULT:      -4.5     19.683     21.472
REMARK  Name = Hyoscyamine.pdbqt.pdb
REMARK  6 active torsions:
REMARK  status: ('A' for Active; 'I' for Inactive)
REMARK    1  A    between atoms: C_2  and  O_3
REMARK    2  A    between atoms: C_2  and  C_13
REMARK    3  A    between atoms: O_3  and  C_4
REMARK    4  A    between atoms: C_13  and  C_14
REMARK    5  A    between atoms: C_13  and  C_20
REMARK    6  A    between atoms: C_20  and  O_21
REMARK                            x       y       z     vdW  Elec       q    Type
REMARK                         _______ _______ _______ _____ _____    ______ ____
ROOT
ATOM      1  O   UNL     1     -25.219 104.799  -5.226  0.00  0.00    +0.000 OA
ATOM      2  C   UNL     1     -25.116 103.692  -4.711  0.00  0.00    +0.000 C 
ENDROOT
BRANCH   2   3
ATOM      3  O   UNL     1     -25.374 103.367  -3.411  0.00  0.00    +0.000 OA
BRANCH   3   4
ATOM      4  C   UNL     1     -24.473 103.944  -2.517  0.00  0.00    +0.000 C 
ATOM      5  C   UNL     1     -23.566 103.121  -1.737  0.00  0.00    +0.000 C 
ATOM      6  C   UNL     1     -23.200 103.307  -0.327  0.00  0.00    +0.000 C 
ATOM      7  N   UNL     1     -24.520 103.697   0.354  0.00  0.00    +0.000 NA
ATOM      8  C   UNL     1     -22.336 104.454  -0.108  0.00  0.00    +0.000 C 
ATOM      9  C   UNL     1     -24.595 105.131  -0.193  0.00  0.00    +0.000 C 
ATOM     10  C   UNL     1     -24.393 103.685   1.819  0.00  0.00    +0.000 C 
ATOM     11  C   UNL     1     -23.255 105.673  -0.014  0.00  0.00    +0.000 C 
ATOM     12  C   UNL     1     -24.965 104.959  -1.606  0.00  0.00    +0.000 C 
ENDBRANCH   3   4
ENDBRANCH   2   3
BRANCH   2  13
ATOM     13  C   UNL     1     -24.633 102.494  -5.459  0.00  0.00    +0.000 C 
BRANCH  13  14
ATOM     14  C   UNL     1     -23.379 102.462  -6.235  0.00  0.00    +0.000 A 
ATOM     15  C   UNL     1     -22.207 101.954  -5.664  0.00  0.00    +0.000 A 
ATOM     16  C   UNL     1     -21.007 101.951  -6.373  0.00  0.00    +0.000 A 
ATOM     17  C   UNL     1     -20.962 102.467  -7.664  0.00  0.00    +0.000 A 
ATOM     18  C   UNL     1     -22.115 102.985  -8.243  0.00  0.00    +0.000 A 
ATOM     19  C   UNL     1     -23.312 102.985  -7.529  0.00  0.00    +0.000 A 
ENDBRANCH  13  14
BRANCH  13  20
ATOM     20  C   UNL     1     -25.416 101.302  -5.345  0.00  0.00    +0.000 C 
BRANCH  20  21
ATOM     21  O   UNL     1     -26.144 100.195  -5.239  0.00  0.00    +0.000 OA
ATOM     22  H   UNL     1     -26.292  99.973  -4.303  0.00  0.00    +0.000 HD
ENDBRANCH  20  21
ENDBRANCH  13  20
ENDBRANCH   2  13
TORSDOF 6
ENDMDL
