MODEL 1
REMARK VINA RESULT:      -5.9      0.000      0.000
REMARK  Name = 
REMARK  6 active torsions:
REMARK  status: ('A' for Active; 'I' for Inactive)
REMARK    1  A    between atoms: O_3  and  C_16
REMARK    2  A    between atoms: O_4  and  C_17
REMARK    3  A    between atoms: O_4  and  C_22
REMARK    4  A    between atoms: O_5  and  C_19
REMARK    5  A    between atoms: O_5  and  C_23
REMARK    6  A    between atoms: O_6  and  C_21
REMARK                            x       y       z     vdW  Elec       q    Type
REMARK                         _______ _______ _______ _____ _____    ______ ____
ROOT
ATOM      1  O   UNL     1     -29.772 100.750  15.127  0.00  0.00    +0.000 OA
ATOM      2  O   UNL     1     -32.933  98.686  16.283  0.00  0.00    +0.000 OA
ATOM      3  C   UNL     1     -30.562  98.528  15.657  0.00  0.00    +0.000 C 
ATOM      4  C   UNL     1     -30.714  99.727  14.715  0.00  0.00    +0.000 C 
ATOM      5  C   UNL     1     -29.965  99.212  16.838  0.00  0.00    +0.000 A 
ATOM      6  C   UNL     1     -31.884  97.816  15.858  0.00  0.00    +0.000 C 
ATOM      7  C   UNL     1     -32.113 100.303  14.677  0.00  0.00    +0.000 A 
ATOM      8  C   UNL     1     -29.507 100.461  16.443  0.00  0.00    +0.000 A 
ATOM      9  C   UNL     1     -33.142  99.768  15.470  0.00  0.00    +0.000 A 
ATOM     10  C   UNL     1     -29.774  98.764  18.134  0.00  0.00    +0.000 A 
ATOM     11  C   UNL     1     -32.382 101.398  13.835  0.00  0.00    +0.000 A 
ATOM     12  C   UNL     1     -28.845 101.290  17.325  0.00  0.00    +0.000 A 
ATOM     13  C   UNL     1     -34.413 100.360  15.455  0.00  0.00    +0.000 A 
ATOM     14  C   UNL     1     -29.116  99.603  19.045  0.00  0.00    +0.000 A 
ATOM     15  C   UNL     1     -28.648 100.867  18.646  0.00  0.00    +0.000 A 
ATOM     16  C   UNL     1     -33.658 101.952  13.778  0.00  0.00    +0.000 A 
ATOM     17  C   UNL     1     -34.659 101.425  14.581  0.00  0.00    +0.000 A 
ENDROOT
BRANCH  12  18
ATOM     18  O   UNL     1     -28.392 102.514  16.918  0.00  0.00    +0.000 OA
ATOM     19  H   UNL     1     -28.100 102.382  15.997  0.00  0.00    +0.000 HD
ENDBRANCH  12  18
BRANCH  13  20
ATOM     20  O   UNL     1     -35.504  99.954  16.186  0.00  0.00    +0.000 OA
ATOM     21  C   UNL     1     -36.240  98.881  15.601  0.00  0.00    +0.000 C 
ENDBRANCH  13  20
BRANCH  15  22
ATOM     22  O   UNL     1     -27.986 101.767  19.446  0.00  0.00    +0.000 OA
ATOM     23  C   UNL     1     -28.347 101.786  20.822  0.00  0.00    +0.000 C 
ENDBRANCH  15  22
BRANCH  17  24
ATOM     24  O   UNL     1     -35.907 101.984  14.511  0.00  0.00    +0.000 OA
ATOM     25  H   UNL     1     -36.163 102.141  15.439  0.00  0.00    +0.000 HD
ENDBRANCH  17  24
TORSDOF 4
ENDMDL
MODEL 2
REMARK VINA RESULT:      -5.9      1.315      6.390
REMARK  Name = 
REMARK  6 active torsions:
REMARK  status: ('A' for Active; 'I' for Inactive)
REMARK    1  A    between atoms: O_3  and  C_16
REMARK    2  A    between atoms: O_4  and  C_17
REMARK    3  A    between atoms: O_4  and  C_22
REMARK    4  A    between atoms: O_5  and  C_19
REMARK    5  A    between atoms: O_5  and  C_23
REMARK    6  A    between atoms: O_6  and  C_21
REMARK                            x       y       z     vdW  Elec       q    Type
REMARK                         _______ _______ _______ _____ _____    ______ ____
ROOT
ATOM      1  O   UNL     1     -31.686  98.114  15.880  0.00  0.00    +0.000 OA
ATOM      2  O   UNL     1     -29.082 100.967  16.695  0.00  0.00    +0.000 OA
ATOM      3  C   UNL     1     -29.940  99.489  14.930  0.00  0.00    +0.000 C 
ATOM      4  C   UNL     1     -30.270  98.412  15.969  0.00  0.00    +0.000 C 
ATOM      5  C   UNL     1     -31.291 100.093  14.759  0.00  0.00    +0.000 A 
ATOM      6  C   UNL     1     -28.827 100.396  15.413  0.00  0.00    +0.000 C 
ATOM      7  C   UNL     1     -29.916  98.801  17.389  0.00  0.00    +0.000 A 
ATOM      8  C   UNL     1     -32.234  99.230  15.297  0.00  0.00    +0.000 A 
ATOM      9  C   UNL     1     -29.359 100.057  17.681  0.00  0.00    +0.000 A 
ATOM     10  C   UNL     1     -31.678 101.264  14.130  0.00  0.00    +0.000 A 
ATOM     11  C   UNL     1     -30.156  97.888  18.432  0.00  0.00    +0.000 A 
ATOM     12  C   UNL     1     -33.584  99.508  15.219  0.00  0.00    +0.000 A 
ATOM     13  C   UNL     1     -29.094 100.410  19.012  0.00  0.00    +0.000 A 
ATOM     14  C   UNL     1     -33.045 101.566  14.056  0.00  0.00    +0.000 A 
ATOM     15  C   UNL     1     -34.003 100.692  14.597  0.00  0.00    +0.000 A 
ATOM     16  C   UNL     1     -29.842  98.216  19.748  0.00  0.00    +0.000 A 
ATOM     17  C   UNL     1     -29.311  99.466  20.023  0.00  0.00    +0.000 A 
ENDROOT
BRANCH  12  18
ATOM     18  O   UNL     1     -34.501  98.643  15.746  0.00  0.00    +0.000 OA
ATOM     19  H   UNL     1     -34.904  99.125  16.492  0.00  0.00    +0.000 HD
ENDBRANCH  12  18
BRANCH  13  20
ATOM     20  O   UNL     1     -28.566 101.603  19.444  0.00  0.00    +0.000 OA
ATOM     21  C   UNL     1     -29.525 102.646  19.614  0.00  0.00    +0.000 C 
ENDBRANCH  13  20
BRANCH  15  22
ATOM     22  O   UNL     1     -35.364 100.880  14.577  0.00  0.00    +0.000 OA
ATOM     23  C   UNL     1     -36.013 100.722  13.320  0.00  0.00    +0.000 C 
ENDBRANCH  15  22
BRANCH  17  24
ATOM     24  O   UNL     1     -29.010  99.770  21.324  0.00  0.00    +0.000 OA
ATOM     25  H   UNL     1     -29.519  99.127  21.855  0.00  0.00    +0.000 HD
ENDBRANCH  17  24
TORSDOF 4
ENDMDL
MODEL 3
REMARK VINA RESULT:      -5.8     18.577     20.272
REMARK  Name = 
REMARK  6 active torsions:
REMARK  status: ('A' for Active; 'I' for Inactive)
REMARK    1  A    between atoms: O_3  and  C_16
REMARK    2  A    between atoms: O_4  and  C_17
REMARK    3  A    between atoms: O_4  and  C_22
REMARK    4  A    between atoms: O_5  and  C_19
REMARK    5  A    between atoms: O_5  and  C_23
REMARK    6  A    between atoms: O_6  and  C_21
REMARK                            x       y       z     vdW  Elec       q    Type
REMARK                         _______ _______ _______ _____ _____    ______ ____
ROOT
ATOM      1  O   UNL     1     -18.570  89.983   1.954  0.00  0.00    +0.000 OA
ATOM      2  O   UNL     1     -20.126  89.234   5.505  0.00  0.00    +0.000 OA
ATOM      3  C   UNL     1     -18.027  89.554   4.270  0.00  0.00    +0.000 C 
ATOM      4  C   UNL     1     -18.667  88.983   3.001  0.00  0.00    +0.000 C 
ATOM      5  C   UNL     1     -18.149  91.010   3.978  0.00  0.00    +0.000 A 
ATOM      6  C   UNL     1     -18.714  89.032   5.515  0.00  0.00    +0.000 C 
ATOM      7  C   UNL     1     -20.110  88.562   3.177  0.00  0.00    +0.000 A 
ATOM      8  C   UNL     1     -18.427  91.170   2.628  0.00  0.00    +0.000 A 
ATOM      9  C   UNL     1     -20.769  88.724   4.407  0.00  0.00    +0.000 A 
ATOM     10  C   UNL     1     -17.971  92.109   4.801  0.00  0.00    +0.000 A 
ATOM     11  C   UNL     1     -20.802  88.007   2.086  0.00  0.00    +0.000 A 
ATOM     12  C   UNL     1     -18.528  92.426   2.065  0.00  0.00    +0.000 A 
ATOM     13  C   UNL     1     -22.122  88.377   4.524  0.00  0.00    +0.000 A 
ATOM     14  C   UNL     1     -18.086  93.391   4.243  0.00  0.00    +0.000 A 
ATOM     15  C   UNL     1     -18.363  93.556   2.876  0.00  0.00    +0.000 A 
ATOM     16  C   UNL     1     -22.131  87.611   2.216  0.00  0.00    +0.000 A 
ATOM     17  C   UNL     1     -22.773  87.794   3.431  0.00  0.00    +0.000 A 
ENDROOT
BRANCH  12  18
ATOM     18  O   UNL     1     -18.793  92.566   0.731  0.00  0.00    +0.000 OA
ATOM     19  H   UNL     1     -18.616  93.505   0.535  0.00  0.00    +0.000 HD
ENDBRANCH  12  18
BRANCH  13  20
ATOM     20  O   UNL     1     -22.894  88.493   5.656  0.00  0.00    +0.000 OA
ATOM     21  C   UNL     1     -22.769  87.404   6.569  0.00  0.00    +0.000 C 
ENDBRANCH  13  20
BRANCH  15  22
ATOM     22  O   UNL     1     -18.489  94.757   2.222  0.00  0.00    +0.000 OA
ATOM     23  C   UNL     1     -19.583  95.583   2.606  0.00  0.00    +0.000 C 
ENDBRANCH  15  22
BRANCH  17  24
ATOM     24  O   UNL     1     -24.080  87.399   3.538  0.00  0.00    +0.000 OA
ATOM     25  H   UNL     1     -24.404  87.825   4.354  0.00  0.00    +0.000 HD
ENDBRANCH  17  24
TORSDOF 4
ENDMDL
MODEL 4
REMARK VINA RESULT:      -5.7      2.425      5.526
REMARK  Name = 
REMARK  6 active torsions:
REMARK  status: ('A' for Active; 'I' for Inactive)
REMARK    1  A    between atoms: O_3  and  C_16
REMARK    2  A    between atoms: O_4  and  C_17
REMARK    3  A    between atoms: O_4  and  C_22
REMARK    4  A    between atoms: O_5  and  C_19
REMARK    5  A    between atoms: O_5  and  C_23
REMARK    6  A    between atoms: O_6  and  C_21
REMARK                            x       y       z     vdW  Elec       q    Type
REMARK                         _______ _______ _______ _____ _____    ______ ____
ROOT
ATOM      1  O   UNL     1     -30.936  98.622  15.412  0.00  0.00    +0.000 OA
ATOM      2  O   UNL     1     -31.934 102.434  15.173  0.00  0.00    +0.000 OA
ATOM      3  C   UNL     1     -32.379 100.191  14.273  0.00  0.00    +0.000 C 
ATOM      4  C   UNL     1     -30.927  99.779  14.538  0.00  0.00    +0.000 C 
ATOM      5  C   UNL     1     -33.031  99.588  15.469  0.00  0.00    +0.000 A 
ATOM      6  C   UNL     1     -32.500 101.690  14.095  0.00  0.00    +0.000 C 
ATOM      7  C   UNL     1     -30.080 100.875  15.147  0.00  0.00    +0.000 A 
ATOM      8  C   UNL     1     -32.155  98.678  16.041  0.00  0.00    +0.000 A 
ATOM      9  C   UNL     1     -30.626 102.134  15.448  0.00  0.00    +0.000 A 
ATOM     10  C   UNL     1     -34.306  99.763  15.981  0.00  0.00    +0.000 A 
ATOM     11  C   UNL     1     -28.723 100.623  15.422  0.00  0.00    +0.000 A 
ATOM     12  C   UNL     1     -32.526  97.919  17.133  0.00  0.00    +0.000 A 
ATOM     13  C   UNL     1     -29.830 103.110  16.064  0.00  0.00    +0.000 A 
ATOM     14  C   UNL     1     -34.690  99.009  17.099  0.00  0.00    +0.000 A 
ATOM     15  C   UNL     1     -33.806  98.084  17.678  0.00  0.00    +0.000 A 
ATOM     16  C   UNL     1     -27.918 101.610  15.983  0.00  0.00    +0.000 A 
ATOM     17  C   UNL     1     -28.475 102.841  16.292  0.00  0.00    +0.000 A 
ENDROOT
BRANCH  12  18
ATOM     18  O   UNL     1     -31.653  97.020  17.680  0.00  0.00    +0.000 OA
ATOM     19  H   UNL     1     -31.806  96.190  17.192  0.00  0.00    +0.000 HD
ENDBRANCH  12  18
BRANCH  13  20
ATOM     20  O   UNL     1     -30.233 104.374  16.427  0.00  0.00    +0.000 OA
ATOM     21  C   UNL     1     -30.922 104.438  17.674  0.00  0.00    +0.000 C 
ENDBRANCH  13  20
BRANCH  15  22
ATOM     22  O   UNL     1     -34.075  97.289  18.765  0.00  0.00    +0.000 OA
ATOM     23  C   UNL     1     -35.094  96.309  18.605  0.00  0.00    +0.000 C 
ENDBRANCH  15  22
BRANCH  17  24
ATOM     24  O   UNL     1     -27.666 103.799  16.844  0.00  0.00    +0.000 OA
ATOM     25  H   UNL     1     -26.767 103.569  16.542  0.00  0.00    +0.000 HD
ENDBRANCH  17  24
TORSDOF 4
ENDMDL
MODEL 5
REMARK VINA RESULT:      -5.4     21.359     23.423
REMARK  Name = 
REMARK  6 active torsions:
REMARK  status: ('A' for Active; 'I' for Inactive)
REMARK    1  A    between atoms: O_3  and  C_16
REMARK    2  A    between atoms: O_4  and  C_17
REMARK    3  A    between atoms: O_4  and  C_22
REMARK    4  A    between atoms: O_5  and  C_19
REMARK    5  A    between atoms: O_5  and  C_23
REMARK    6  A    between atoms: O_6  and  C_21
REMARK                            x       y       z     vdW  Elec       q    Type
REMARK                         _______ _______ _______ _____ _____    ______ ____
ROOT
ATOM      1  O   UNL     1     -32.287  77.972   6.138  0.00  0.00    +0.000 OA
ATOM      2  O   UNL     1     -35.874  78.690   7.621  0.00  0.00    +0.000 OA
ATOM      3  C   UNL     1     -33.783  77.447   7.962  0.00  0.00    +0.000 C 
ATOM      4  C   UNL     1     -33.566  77.364   6.448  0.00  0.00    +0.000 C 
ATOM      5  C   UNL     1     -32.883  78.591   8.280  0.00  0.00    +0.000 A 
ATOM      6  C   UNL     1     -35.251  77.601   8.299  0.00  0.00    +0.000 C 
ATOM      7  C   UNL     1     -34.658  78.024   5.634  0.00  0.00    +0.000 A 
ATOM      8  C   UNL     1     -32.037  78.805   7.201  0.00  0.00    +0.000 A 
ATOM      9  C   UNL     1     -35.742  78.665   6.258  0.00  0.00    +0.000 A 
ATOM     10  C   UNL     1     -32.762  79.345   9.436  0.00  0.00    +0.000 A 
ATOM     11  C   UNL     1     -34.580  77.998   4.230  0.00  0.00    +0.000 A 
ATOM     12  C   UNL     1     -31.050  79.768   7.248  0.00  0.00    +0.000 A 
ATOM     13  C   UNL     1     -36.709  79.316   5.478  0.00  0.00    +0.000 A 
ATOM     14  C   UNL     1     -31.772  80.336   9.490  0.00  0.00    +0.000 A 
ATOM     15  C   UNL     1     -30.912  80.552   8.400  0.00  0.00    +0.000 A 
ATOM     16  C   UNL     1     -35.569  78.597   3.454  0.00  0.00    +0.000 A 
ATOM     17  C   UNL     1     -36.622  79.242   4.083  0.00  0.00    +0.000 A 
ENDROOT
BRANCH  12  18
ATOM     18  O   UNL     1     -30.219  79.959   6.179  0.00  0.00    +0.000 OA
ATOM     19  H   UNL     1     -29.383  80.283   6.563  0.00  0.00    +0.000 HD
ENDBRANCH  12  18
BRANCH  13  20
ATOM     20  O   UNL     1     -37.809  79.992   5.950  0.00  0.00    +0.000 OA
ATOM     21  C   UNL     1     -38.910  79.155   6.299  0.00  0.00    +0.000 C 
ENDBRANCH  13  20
BRANCH  15  22
ATOM     22  O   UNL     1     -29.905  81.485   8.344  0.00  0.00    +0.000 OA
ATOM     23  C   UNL     1     -29.474  82.037   9.583  0.00  0.00    +0.000 C 
ENDBRANCH  15  22
BRANCH  17  24
ATOM     24  O   UNL     1     -37.584  79.826   3.302  0.00  0.00    +0.000 OA
ATOM     25  H   UNL     1     -37.653  79.248   2.518  0.00  0.00    +0.000 HD
ENDBRANCH  17  24
TORSDOF 4
ENDMDL
MODEL 6
REMARK VINA RESULT:      -5.4     13.907     16.436
REMARK  Name = 
REMARK  6 active torsions:
REMARK  status: ('A' for Active; 'I' for Inactive)
REMARK    1  A    between atoms: O_3  and  C_16
REMARK    2  A    between atoms: O_4  and  C_17
REMARK    3  A    between atoms: O_4  and  C_22
REMARK    4  A    between atoms: O_5  and  C_19
REMARK    5  A    between atoms: O_5  and  C_23
REMARK    6  A    between atoms: O_6  and  C_21
REMARK                            x       y       z     vdW  Elec       q    Type
REMARK                         _______ _______ _______ _____ _____    ______ ____
ROOT
ATOM      1  O   UNL     1     -38.962 101.601   3.440  0.00  0.00    +0.000 OA
ATOM      2  O   UNL     1     -41.873 104.263   3.260  0.00  0.00    +0.000 OA
ATOM      3  C   UNL     1     -40.598 102.793   4.761  0.00  0.00    +0.000 C 
ATOM      4  C   UNL     1     -40.389 101.787   3.624  0.00  0.00    +0.000 C 
ATOM      5  C   UNL     1     -39.286 103.497   4.715  0.00  0.00    +0.000 A 
ATOM      6  C   UNL     1     -41.844 103.624   4.536  0.00  0.00    +0.000 C 
ATOM      7  C   UNL     1     -41.026 102.199   2.315  0.00  0.00    +0.000 A 
ATOM      8  C   UNL     1     -38.398 102.735   3.971  0.00  0.00    +0.000 A 
ATOM      9  C   UNL     1     -41.717 103.416   2.194  0.00  0.00    +0.000 A 
ATOM     10  C   UNL     1     -38.876 104.671   5.324  0.00  0.00    +0.000 A 
ATOM     11  C   UNL     1     -40.917 101.349   1.199  0.00  0.00    +0.000 A 
ATOM     12  C   UNL     1     -37.082 103.119   3.818  0.00  0.00    +0.000 A 
ATOM     13  C   UNL     1     -42.248 103.796   0.953  0.00  0.00    +0.000 A 
ATOM     14  C   UNL     1     -37.544 105.080   5.165  0.00  0.00    +0.000 A 
ATOM     15  C   UNL     1     -36.641 104.308   4.414  0.00  0.00    +0.000 A 
ATOM     16  C   UNL     1     -41.491 101.700  -0.019  0.00  0.00    +0.000 A 
ATOM     17  C   UNL     1     -42.154 102.913  -0.128  0.00  0.00    +0.000 A 
ENDROOT
BRANCH  12  18
ATOM     18  O   UNL     1     -36.217 102.351   3.089  0.00  0.00    +0.000 OA
ATOM     19  H   UNL     1     -36.468 102.500   2.159  0.00  0.00    +0.000 HD
ENDBRANCH  12  18
BRANCH  13  20
ATOM     20  O   UNL     1     -42.932 104.959   0.687  0.00  0.00    +0.000 OA
ATOM     21  C   UNL     1     -42.101 106.069   0.354  0.00  0.00    +0.000 C 
ENDBRANCH  13  20
BRANCH  15  22
ATOM     22  O   UNL     1     -35.318 104.604   4.197  0.00  0.00    +0.000 OA
ATOM     23  C   UNL     1     -35.041 105.715   3.353  0.00  0.00    +0.000 C 
ENDBRANCH  15  22
BRANCH  17  24
ATOM     24  O   UNL     1     -42.712 103.240  -1.335  0.00  0.00    +0.000 OA
ATOM     25  H   UNL     1     -42.835 104.208  -1.299  0.00  0.00    +0.000 HD
ENDBRANCH  17  24
TORSDOF 4
ENDMDL
MODEL 7
REMARK VINA RESULT:      -5.3     14.044     16.212
REMARK  Name = 
REMARK  6 active torsions:
REMARK  status: ('A' for Active; 'I' for Inactive)
REMARK    1  A    between atoms: O_3  and  C_16
REMARK    2  A    between atoms: O_4  and  C_17
REMARK    3  A    between atoms: O_4  and  C_22
REMARK    4  A    between atoms: O_5  and  C_19
REMARK    5  A    between atoms: O_5  and  C_23
REMARK    6  A    between atoms: O_6  and  C_21
REMARK                            x       y       z     vdW  Elec       q    Type
REMARK                         _______ _______ _______ _____ _____    ______ ____
ROOT
ATOM      1  O   UNL     1     -39.086 102.585   5.273  0.00  0.00    +0.000 OA
ATOM      2  O   UNL     1     -39.482 103.203   1.394  0.00  0.00    +0.000 OA
ATOM      3  C   UNL     1     -40.204 101.801   3.278  0.00  0.00    +0.000 C 
ATOM      4  C   UNL     1     -38.850 102.001   3.966  0.00  0.00    +0.000 C 
ATOM      5  C   UNL     1     -41.012 102.810   4.020  0.00  0.00    +0.000 A 
ATOM      6  C   UNL     1     -40.087 101.969   1.777  0.00  0.00    +0.000 C 
ATOM      7  C   UNL     1     -37.886 102.867   3.184  0.00  0.00    +0.000 A 
ATOM      8  C   UNL     1     -40.319 103.180   5.163  0.00  0.00    +0.000 A 
ATOM      9  C   UNL     1     -38.254 103.435   1.953  0.00  0.00    +0.000 A 
ATOM     10  C   UNL     1     -42.274 103.316   3.760  0.00  0.00    +0.000 A 
ATOM     11  C   UNL     1     -36.602 103.110   3.706  0.00  0.00    +0.000 A 
ATOM     12  C   UNL     1     -40.866 104.058   6.076  0.00  0.00    +0.000 A 
ATOM     13  C   UNL     1     -37.359 104.278   1.280  0.00  0.00    +0.000 A 
ATOM     14  C   UNL     1     -42.835 104.221   4.673  0.00  0.00    +0.000 A 
ATOM     15  C   UNL     1     -42.137 104.595   5.834  0.00  0.00    +0.000 A 
ATOM     16  C   UNL     1     -35.693 103.903   3.011  0.00  0.00    +0.000 A 
ATOM     17  C   UNL     1     -36.076 104.472   1.806  0.00  0.00    +0.000 A 
ENDROOT
BRANCH  12  18
ATOM     18  O   UNL     1     -40.174 104.406   7.203  0.00  0.00    +0.000 OA
ATOM     19  H   UNL     1     -40.116 105.379   7.175  0.00  0.00    +0.000 HD
ENDBRANCH  12  18
BRANCH  13  20
ATOM     20  O   UNL     1     -37.588 104.911   0.081  0.00  0.00    +0.000 OA
ATOM     21  C   UNL     1     -38.291 106.147   0.191  0.00  0.00    +0.000 C 
ENDBRANCH  13  20
BRANCH  15  22
ATOM     22  O   UNL     1     -42.588 105.463   6.798  0.00  0.00    +0.000 OA
ATOM     23  C   UNL     1     -43.662 105.010   7.615  0.00  0.00    +0.000 C 
ENDBRANCH  15  22
BRANCH  17  24
ATOM     24  O   UNL     1     -35.168 105.249   1.139  0.00  0.00    +0.000 OA
ATOM     25  H   UNL     1     -34.328 104.754   1.192  0.00  0.00    +0.000 HD
ENDBRANCH  17  24
TORSDOF 4
ENDMDL
MODEL 8
REMARK VINA RESULT:      -5.0     13.728     16.172
REMARK  Name = 
REMARK  6 active torsions:
REMARK  status: ('A' for Active; 'I' for Inactive)
REMARK    1  A    between atoms: O_3  and  C_16
REMARK    2  A    between atoms: O_4  and  C_17
REMARK    3  A    between atoms: O_4  and  C_22
REMARK    4  A    between atoms: O_5  and  C_19
REMARK    5  A    between atoms: O_5  and  C_23
REMARK    6  A    between atoms: O_6  and  C_21
REMARK                            x       y       z     vdW  Elec       q    Type
REMARK                         _______ _______ _______ _____ _____    ______ ____
ROOT
ATOM      1  O   UNL     1     -38.960 103.284   5.554  0.00  0.00    +0.000 OA
ATOM      2  O   UNL     1     -37.199 104.119   2.121  0.00  0.00    +0.000 OA
ATOM      3  C   UNL     1     -37.776 102.314   3.684  0.00  0.00    +0.000 C 
ATOM      4  C   UNL     1     -37.684 103.285   4.866  0.00  0.00    +0.000 C 
ATOM      5  C   UNL     1     -39.252 102.300   3.487  0.00  0.00    +0.000 A 
ATOM      6  C   UNL     1     -36.922 102.779   2.523  0.00  0.00    +0.000 C 
ATOM      7  C   UNL     1     -37.315 104.699   4.471  0.00  0.00    +0.000 A 
ATOM      8  C   UNL     1     -39.856 102.839   4.614  0.00  0.00    +0.000 A 
ATOM      9  C   UNL     1     -37.109 105.047   3.125  0.00  0.00    +0.000 A 
ATOM     10  C   UNL     1     -40.015 101.800   2.445  0.00  0.00    +0.000 A 
ATOM     11  C   UNL     1     -37.184 105.680   5.470  0.00  0.00    +0.000 A 
ATOM     12  C   UNL     1     -41.230 102.890   4.732  0.00  0.00    +0.000 A 
ATOM     13  C   UNL     1     -36.825 106.377   2.785  0.00  0.00    +0.000 A 
ATOM     14  C   UNL     1     -41.412 101.859   2.546  0.00  0.00    +0.000 A 
ATOM     15  C   UNL     1     -42.026 102.402   3.688  0.00  0.00    +0.000 A 
ATOM     16  C   UNL     1     -36.847 106.989   5.138  0.00  0.00    +0.000 A 
ATOM     17  C   UNL     1     -36.665 107.323   3.805  0.00  0.00    +0.000 A 
ENDROOT
BRANCH  12  18
ATOM     18  O   UNL     1     -41.809 103.416   5.853  0.00  0.00    +0.000 OA
ATOM     19  H   UNL     1     -42.256 102.665   6.284  0.00  0.00    +0.000 HD
ENDBRANCH  12  18
BRANCH  13  20
ATOM     20  O   UNL     1     -36.615 106.862   1.516  0.00  0.00    +0.000 OA
ATOM     21  C   UNL     1     -37.807 107.189   0.805  0.00  0.00    +0.000 C 
ENDBRANCH  13  20
BRANCH  15  22
ATOM     22  O   UNL     1     -43.379 102.504   3.900  0.00  0.00    +0.000 OA
ATOM     23  C   UNL     1     -44.082 101.292   4.147  0.00  0.00    +0.000 C 
ENDBRANCH  15  22
BRANCH  17  24
ATOM     24  O   UNL     1     -36.335 108.616   3.500  0.00  0.00    +0.000 OA
ATOM     25  H   UNL     1     -36.326 109.081   4.358  0.00  0.00    +0.000 HD
ENDBRANCH  17  24
TORSDOF 4
ENDMDL
MODEL 9
REMARK VINA RESULT:      -5.0     18.595     20.409
REMARK  Name = 
REMARK  6 active torsions:
REMARK  status: ('A' for Active; 'I' for Inactive)
REMARK    1  A    between atoms: O_3  and  C_16
REMARK    2  A    between atoms: O_4  and  C_17
REMARK    3  A    between atoms: O_4  and  C_22
REMARK    4  A    between atoms: O_5  and  C_19
REMARK    5  A    between atoms: O_5  and  C_23
REMARK    6  A    between atoms: O_6  and  C_21
REMARK                            x       y       z     vdW  Elec       q    Type
REMARK                         _______ _______ _______ _____ _____    ______ ____
ROOT
ATOM      1  O   UNL     1     -18.660  89.797   5.253  0.00  0.00    +0.000 OA
ATOM      2  O   UNL     1     -18.617  92.059   2.018  0.00  0.00    +0.000 OA
ATOM      3  C   UNL     1     -18.101  89.826   2.901  0.00  0.00    +0.000 C 
ATOM      4  C   UNL     1     -17.790  90.424   4.277  0.00  0.00    +0.000 C 
ATOM      5  C   UNL     1     -19.490  89.347   3.146  0.00  0.00    +0.000 A 
ATOM      6  C   UNL     1     -17.898  90.846   1.801  0.00  0.00    +0.000 C 
ATOM      7  C   UNL     1     -17.947  91.928   4.342  0.00  0.00    +0.000 A 
ATOM      8  C   UNL     1     -19.718  89.327   4.514  0.00  0.00    +0.000 A 
ATOM      9  C   UNL     1     -18.366  92.664   3.221  0.00  0.00    +0.000 A 
ATOM     10  C   UNL     1     -20.455  88.902   2.259  0.00  0.00    +0.000 A 
ATOM     11  C   UNL     1     -17.673  92.597   5.550  0.00  0.00    +0.000 A 
ATOM     12  C   UNL     1     -20.909  88.861   5.032  0.00  0.00    +0.000 A 
ATOM     13  C   UNL     1     -18.557  94.049   3.329  0.00  0.00    +0.000 A 
ATOM     14  C   UNL     1     -21.676  88.439   2.772  0.00  0.00    +0.000 A 
ATOM     15  C   UNL     1     -21.909  88.414   4.157  0.00  0.00    +0.000 A 
ATOM     16  C   UNL     1     -17.809  93.979   5.641  0.00  0.00    +0.000 A 
ATOM     17  C   UNL     1     -18.242  94.690   4.532  0.00  0.00    +0.000 A 
ENDROOT
BRANCH  12  18
ATOM     18  O   UNL     1     -21.115  88.839   6.383  0.00  0.00    +0.000 OA
ATOM     19  H   UNL     1     -21.738  88.104   6.533  0.00  0.00    +0.000 HD
ENDBRANCH  12  18
BRANCH  13  20
ATOM     20  O   UNL     1     -18.976  94.889   2.324  0.00  0.00    +0.000 OA
ATOM     21  C   UNL     1     -17.934  95.341   1.460  0.00  0.00    +0.000 C 
ENDBRANCH  13  20
BRANCH  15  22
ATOM     22  O   UNL     1     -23.057  87.977   4.771  0.00  0.00    +0.000 OA
ATOM     23  C   UNL     1     -23.413  86.614   4.566  0.00  0.00    +0.000 C 
ENDBRANCH  15  22
BRANCH  17  24
ATOM     24  O   UNL     1     -18.370  96.049   4.644  0.00  0.00    +0.000 OA
ATOM     25  H   UNL     1     -19.328  96.201   4.753  0.00  0.00    +0.000 HD
ENDBRANCH  17  24
TORSDOF 4
ENDMDL
