MODEL 1
REMARK VINA RESULT:      -6.5      0.000      0.000
REMARK  Name = 
REMARK  9 active torsions:
REMARK  status: ('A' for Active; 'I' for Inactive)
REMARK    1  A    between atoms: O_1  and  N_7
REMARK    2  A    between atoms: O_1  and  C_20
REMARK    3  A    between atoms: O_2  and  C_14
REMARK    4  A    between atoms: O_3  and  C_18
REMARK    5  A    between atoms: O_4  and  C_25
REMARK    6  A    between atoms: C_8  and  C_10
REMARK    7  A    between atoms: C_17  and  C_18
REMARK    8  A    between atoms: C_17  and  C_20
REMARK    9  A    between atoms: C_18  and  C_25
REMARK                            x       y       z     vdW  Elec       q    Type
REMARK                         _______ _______ _______ _____ _____    ______ ____
ROOT
ATOM      1  N   UNL     1     -34.128 100.063  13.741  0.00  0.00    +0.000 NA
ATOM      2  N   UNL     1     -34.908  98.853  16.982  0.00  0.00    +0.000 NA
ATOM      3  C   UNL     1     -33.772  99.576  14.902  0.00  0.00    +0.000 C 
ATOM      4  C   UNL     1     -34.985  99.228  15.745  0.00  0.00    +0.000 C 
ATOM      5  C   UNL     1     -36.116  99.503  14.870  0.00  0.00    +0.000 A 
ATOM      6  C   UNL     1     -35.532 100.011  13.710  0.00  0.00    +0.000 A 
ATOM      7  C   UNL     1     -37.486  99.370  15.014  0.00  0.00    +0.000 A 
ATOM      8  C   UNL     1     -36.326 100.406  12.647  0.00  0.00    +0.000 A 
ATOM      9  C   UNL     1     -38.289  99.767  13.942  0.00  0.00    +0.000 A 
ATOM     10  C   UNL     1     -37.714 100.282  12.767  0.00  0.00    +0.000 A 
ENDROOT
BRANCH   3  12
ATOM     11  N   UNL     1     -30.457  98.608  16.012  0.00  0.00    +0.000 N 
ATOM     12  C   UNL     1     -32.375  99.446  15.248  0.00  0.00    +0.000 A 
ATOM     13  C   UNL     1     -31.327 100.399  15.021  0.00  0.00    +0.000 A 
ATOM     14  C   UNL     1     -30.145  99.853  15.520  0.00  0.00    +0.000 A 
ATOM     15  C   UNL     1     -31.789  98.338  15.836  0.00  0.00    +0.000 A 
ATOM     16  C   UNL     1     -31.274 101.689  14.449  0.00  0.00    +0.000 A 
ATOM     17  C   UNL     1     -28.917 100.523  15.475  0.00  0.00    +0.000 A 
ATOM     18  C   UNL     1     -30.056 102.375  14.395  0.00  0.00    +0.000 A 
ATOM     19  C   UNL     1     -28.894 101.798  14.902  0.00  0.00    +0.000 A 
ATOM     20  H   UNL     1     -29.779  97.980  16.417  0.00  0.00    +0.000 HD
BRANCH  15  21
ATOM     21  O   UNL     1     -32.314  97.166  16.175  0.00  0.00    +0.000 OA
ATOM     22  H   UNL     1     -31.898  96.826  16.983  0.00  0.00    +0.000 HD
ENDBRANCH  15  21
ENDBRANCH   3  12
BRANCH   2  23
ATOM     23  O   UNL     1     -36.166  98.638  17.550  0.00  0.00    +0.000 OA
BRANCH  23  24
ATOM     24  C   UNL     1     -36.028  97.689  18.604  0.00  0.00    +0.000 C 
BRANCH  24  25
ATOM     25  C   UNL     1     -35.486  96.384  18.041  0.00  0.00    +0.000 C 
BRANCH  25  26
ATOM     26  C   UNL     1     -34.341  95.779  18.854  0.00  0.00    +0.000 C 
BRANCH  26  27
ATOM     27  O   UNL     1     -33.386  95.232  17.932  0.00  0.00    +0.000 OA
ATOM     28  H   UNL     1     -33.932  94.796  17.247  0.00  0.00    +0.000 HD
ENDBRANCH  26  27
BRANCH  26  29
ATOM     29  C   UNL     1     -33.616  96.785  19.754  0.00  0.00    +0.000 C 
BRANCH  29  30
ATOM     30  O   UNL     1     -32.642  97.471  18.960  0.00  0.00    +0.000 OA
ATOM     31  H   UNL     1     -31.771  97.134  19.236  0.00  0.00    +0.000 HD
ENDBRANCH  29  30
ENDBRANCH  26  29
ENDBRANCH  25  26
ENDBRANCH  24  25
ENDBRANCH  23  24
ENDBRANCH   2  23
TORSDOF 9
ENDMDL
MODEL 2
REMARK VINA RESULT:      -5.7      2.115      6.231
REMARK  Name = 
REMARK  9 active torsions:
REMARK  status: ('A' for Active; 'I' for Inactive)
REMARK    1  A    between atoms: O_1  and  N_7
REMARK    2  A    between atoms: O_1  and  C_20
REMARK    3  A    between atoms: O_2  and  C_14
REMARK    4  A    between atoms: O_3  and  C_18
REMARK    5  A    between atoms: O_4  and  C_25
REMARK    6  A    between atoms: C_8  and  C_10
REMARK    7  A    between atoms: C_17  and  C_18
REMARK    8  A    between atoms: C_17  and  C_20
REMARK    9  A    between atoms: C_18  and  C_25
REMARK                            x       y       z     vdW  Elec       q    Type
REMARK                         _______ _______ _______ _____ _____    ______ ____
ROOT
ATOM      1  N   UNL     1     -34.944  99.049  17.332  0.00  0.00    +0.000 NA
ATOM      2  N   UNL     1     -31.934  98.425  15.563  0.00  0.00    +0.000 NA
ATOM      3  C   UNL     1     -34.222  99.090  16.240  0.00  0.00    +0.000 C 
ATOM      4  C   UNL     1     -32.882  98.407  16.444  0.00  0.00    +0.000 C 
ATOM      5  C   UNL     1     -32.956  97.877  17.799  0.00  0.00    +0.000 A 
ATOM      6  C   UNL     1     -34.196  98.312  18.267  0.00  0.00    +0.000 A 
ATOM      7  C   UNL     1     -32.089  97.132  18.578  0.00  0.00    +0.000 A 
ATOM      8  C   UNL     1     -34.601  98.003  19.553  0.00  0.00    +0.000 A 
ATOM      9  C   UNL     1     -32.496  96.818  19.877  0.00  0.00    +0.000 A 
ATOM     10  C   UNL     1     -33.743  97.251  20.362  0.00  0.00    +0.000 A 
ENDROOT
BRANCH   3  12
ATOM     11  N   UNL     1     -34.801 100.947  13.179  0.00  0.00    +0.000 N 
ATOM     12  C   UNL     1     -34.721  99.745  15.053  0.00  0.00    +0.000 A 
ATOM     13  C   UNL     1     -36.063  99.727  14.545  0.00  0.00    +0.000 A 
ATOM     14  C   UNL     1     -36.083 100.496  13.382  0.00  0.00    +0.000 A 
ATOM     15  C   UNL     1     -33.964 100.486  14.162  0.00  0.00    +0.000 A 
ATOM     16  C   UNL     1     -37.272  99.138  14.974  0.00  0.00    +0.000 A 
ATOM     17  C   UNL     1     -37.243 100.706  12.626  0.00  0.00    +0.000 A 
ATOM     18  C   UNL     1     -38.442  99.336  14.232  0.00  0.00    +0.000 A 
ATOM     19  C   UNL     1     -38.425 100.110  13.075  0.00  0.00    +0.000 A 
ATOM     20  H   UNL     1     -34.524 101.514  12.392  0.00  0.00    +0.000 HD
BRANCH  15  21
ATOM     21  O   UNL     1     -32.660 100.737  14.143  0.00  0.00    +0.000 OA
ATOM     22  H   UNL     1     -32.375 100.994  13.251  0.00  0.00    +0.000 HD
ENDBRANCH  15  21
ENDBRANCH   3  12
BRANCH   2  23
ATOM     23  O   UNL     1     -30.785  97.766  16.008  0.00  0.00    +0.000 OA
BRANCH  23  24
ATOM     24  C   UNL     1     -29.656  98.585  15.716  0.00  0.00    +0.000 C 
BRANCH  24  25
ATOM     25  C   UNL     1     -29.770  99.895  16.482  0.00  0.00    +0.000 C 
BRANCH  25  26
ATOM     26  C   UNL     1     -29.591  99.753  17.994  0.00  0.00    +0.000 C 
BRANCH  26  27
ATOM     27  O   UNL     1     -28.754  98.611  18.233  0.00  0.00    +0.000 OA
ATOM     28  H   UNL     1     -27.892  98.992  18.494  0.00  0.00    +0.000 HD
ENDBRANCH  26  27
BRANCH  26  29
ATOM     29  C   UNL     1     -28.942 100.970  18.662  0.00  0.00    +0.000 C 
BRANCH  29  30
ATOM     30  O   UNL     1     -27.587 100.636  18.977  0.00  0.00    +0.000 OA
ATOM     31  H   UNL     1     -27.240 101.366  19.521  0.00  0.00    +0.000 HD
ENDBRANCH  29  30
ENDBRANCH  26  29
ENDBRANCH  25  26
ENDBRANCH  24  25
ENDBRANCH  23  24
ENDBRANCH   2  23
TORSDOF 9
ENDMDL
MODEL 3
REMARK VINA RESULT:      -5.6     27.178     29.862
REMARK  Name = 
REMARK  9 active torsions:
REMARK  status: ('A' for Active; 'I' for Inactive)
REMARK    1  A    between atoms: O_1  and  N_7
REMARK    2  A    between atoms: O_1  and  C_20
REMARK    3  A    between atoms: O_2  and  C_14
REMARK    4  A    between atoms: O_3  and  C_18
REMARK    5  A    between atoms: O_4  and  C_25
REMARK    6  A    between atoms: C_8  and  C_10
REMARK    7  A    between atoms: C_17  and  C_18
REMARK    8  A    between atoms: C_17  and  C_20
REMARK    9  A    between atoms: C_18  and  C_25
REMARK                            x       y       z     vdW  Elec       q    Type
REMARK                         _______ _______ _______ _____ _____    ______ ____
ROOT
ATOM      1  N   UNL     1     -34.074  96.311 -12.972  0.00  0.00    +0.000 NA
ATOM      2  N   UNL     1     -31.472  98.703 -13.269  0.00  0.00    +0.000 NA
ATOM      3  C   UNL     1     -33.621  97.536 -12.873  0.00  0.00    +0.000 C 
ATOM      4  C   UNL     1     -32.194  97.633 -13.379  0.00  0.00    +0.000 C 
ATOM      5  C   UNL     1     -31.900  96.295 -13.875  0.00  0.00    +0.000 A 
ATOM      6  C   UNL     1     -33.053  95.565 -13.583  0.00  0.00    +0.000 A 
ATOM      7  C   UNL     1     -30.796  95.727 -14.485  0.00  0.00    +0.000 A 
ATOM      8  C   UNL     1     -33.123  94.221 -13.903  0.00  0.00    +0.000 A 
ATOM      9  C   UNL     1     -30.866  94.370 -14.810  0.00  0.00    +0.000 A 
ATOM     10  C   UNL     1     -32.020  93.621 -14.520  0.00  0.00    +0.000 A 
ENDROOT
BRANCH   3  12
ATOM     11  N   UNL     1     -35.515  99.881 -10.855  0.00  0.00    +0.000 N 
ATOM     12  C   UNL     1     -34.447  98.583 -12.319  0.00  0.00    +0.000 A 
ATOM     13  C   UNL     1     -35.151  99.610 -13.033  0.00  0.00    +0.000 A 
ATOM     14  C   UNL     1     -35.818 100.396 -12.093  0.00  0.00    +0.000 A 
ATOM     15  C   UNL     1     -34.674  98.804 -10.971  0.00  0.00    +0.000 A 
ATOM     16  C   UNL     1     -35.296  99.939 -14.398  0.00  0.00    +0.000 A 
ATOM     17  C   UNL     1     -36.617 101.490 -12.444  0.00  0.00    +0.000 A 
ATOM     18  C   UNL     1     -36.091 101.029 -14.768  0.00  0.00    +0.000 A 
ATOM     19  C   UNL     1     -36.742 101.792 -13.803  0.00  0.00    +0.000 A 
ATOM     20  H   UNL     1     -35.851 100.272  -9.988  0.00  0.00    +0.000 HD
BRANCH  15  21
ATOM     21  O   UNL     1     -34.190  98.179  -9.904  0.00  0.00    +0.000 OA
ATOM     22  H   UNL     1     -34.615  97.313  -9.795  0.00  0.00    +0.000 HD
ENDBRANCH  15  21
ENDBRANCH   3  12
BRANCH   2  23
ATOM     23  O   UNL     1     -30.179  98.522 -13.769  0.00  0.00    +0.000 OA
BRANCH  23  24
ATOM     24  C   UNL     1     -29.943  99.508 -14.770  0.00  0.00    +0.000 C 
BRANCH  24  25
ATOM     25  C   UNL     1     -28.792 100.404 -14.336  0.00  0.00    +0.000 C 
BRANCH  25  26
ATOM     26  C   UNL     1     -27.537  99.645 -13.904  0.00  0.00    +0.000 C 
BRANCH  26  27
ATOM     27  O   UNL     1     -27.786  99.087 -12.605  0.00  0.00    +0.000 OA
ATOM     28  H   UNL     1     -27.072  99.450 -12.043  0.00  0.00    +0.000 HD
ENDBRANCH  26  27
BRANCH  26  29
ATOM     29  C   UNL     1     -27.142  98.505 -14.847  0.00  0.00    +0.000 C 
BRANCH  29  30
ATOM     30  O   UNL     1     -27.352  97.266 -14.161  0.00  0.00    +0.000 OA
ATOM     31  H   UNL     1     -26.530  97.074 -13.676  0.00  0.00    +0.000 HD
ENDBRANCH  29  30
ENDBRANCH  26  29
ENDBRANCH  25  26
ENDBRANCH  24  25
ENDBRANCH  23  24
ENDBRANCH   2  23
TORSDOF 9
ENDMDL
MODEL 4
REMARK VINA RESULT:      -5.5      2.181      3.488
REMARK  Name = 
REMARK  9 active torsions:
REMARK  status: ('A' for Active; 'I' for Inactive)
REMARK    1  A    between atoms: O_1  and  N_7
REMARK    2  A    between atoms: O_1  and  C_20
REMARK    3  A    between atoms: O_2  and  C_14
REMARK    4  A    between atoms: O_3  and  C_18
REMARK    5  A    between atoms: O_4  and  C_25
REMARK    6  A    between atoms: C_8  and  C_10
REMARK    7  A    between atoms: C_17  and  C_18
REMARK    8  A    between atoms: C_17  and  C_20
REMARK    9  A    between atoms: C_18  and  C_25
REMARK                            x       y       z     vdW  Elec       q    Type
REMARK                         _______ _______ _______ _____ _____    ______ ____
ROOT
ATOM      1  N   UNL     1     -34.327  99.422  14.593  0.00  0.00    +0.000 NA
ATOM      2  N   UNL     1     -36.073  98.336  17.483  0.00  0.00    +0.000 NA
ATOM      3  C   UNL     1     -34.353  98.883  15.787  0.00  0.00    +0.000 C 
ATOM      4  C   UNL     1     -35.778  98.721  16.282  0.00  0.00    +0.000 C 
ATOM      5  C   UNL     1     -36.597  99.166  15.163  0.00  0.00    +0.000 A 
ATOM      6  C   UNL     1     -35.668  99.583  14.209  0.00  0.00    +0.000 A 
ATOM      7  C   UNL     1     -37.962  99.242  14.953  0.00  0.00    +0.000 A 
ATOM      8  C   UNL     1     -36.099 100.095  12.998  0.00  0.00    +0.000 A 
ATOM      9  C   UNL     1     -38.399  99.758  13.731  0.00  0.00    +0.000 A 
ATOM     10  C   UNL     1     -37.475 100.183  12.760  0.00  0.00    +0.000 A 
ENDROOT
BRANCH   3  12
ATOM     11  N   UNL     1     -31.621  97.441  17.688  0.00  0.00    +0.000 N 
ATOM     12  C   UNL     1     -33.125  98.543  16.467  0.00  0.00    +0.000 A 
ATOM     13  C   UNL     1     -31.903  99.296  16.493  0.00  0.00    +0.000 A 
ATOM     14  C   UNL     1     -30.989  98.589  17.274  0.00  0.00    +0.000 A 
ATOM     15  C   UNL     1     -32.899  97.387  17.194  0.00  0.00    +0.000 A 
ATOM     16  C   UNL     1     -31.491 100.526  15.936  0.00  0.00    +0.000 A 
ATOM     17  C   UNL     1     -29.688  99.043  17.524  0.00  0.00    +0.000 A 
ATOM     18  C   UNL     1     -30.195 100.996  16.175  0.00  0.00    +0.000 A 
ATOM     19  C   UNL     1     -29.308 100.263  16.958  0.00  0.00    +0.000 A 
ATOM     20  H   UNL     1     -31.181  96.732  18.255  0.00  0.00    +0.000 HD
BRANCH  15  21
ATOM     21  O   UNL     1     -33.685  96.338  17.407  0.00  0.00    +0.000 OA
ATOM     22  H   UNL     1     -34.244  96.167  16.632  0.00  0.00    +0.000 HD
ENDBRANCH  15  21
ENDBRANCH   3  12
BRANCH   2  23
ATOM     23  O   UNL     1     -37.452  98.313  17.707  0.00  0.00    +0.000 OA
BRANCH  23  24
ATOM     24  C   UNL     1     -37.682  98.426  19.109  0.00  0.00    +0.000 C 
BRANCH  24  25
ATOM     25  C   UNL     1     -39.178  98.511  19.371  0.00  0.00    +0.000 C 
BRANCH  25  26
ATOM     26  C   UNL     1     -39.781  99.892  19.109  0.00  0.00    +0.000 C 
BRANCH  26  27
ATOM     27  O   UNL     1     -38.838 100.644  18.331  0.00  0.00    +0.000 OA
ATOM     28  H   UNL     1     -39.381 101.320  17.878  0.00  0.00    +0.000 HD
ENDBRANCH  26  27
BRANCH  26  29
ATOM     29  C   UNL     1     -41.111  99.858  18.348  0.00  0.00    +0.000 C 
BRANCH  29  30
ATOM     30  O   UNL     1     -40.874  99.270  17.065  0.00  0.00    +0.000 OA
ATOM     31  H   UNL     1     -41.748  99.037  16.701  0.00  0.00    +0.000 HD
ENDBRANCH  29  30
ENDBRANCH  26  29
ENDBRANCH  25  26
ENDBRANCH  24  25
ENDBRANCH  23  24
ENDBRANCH   2  23
TORSDOF 9
ENDMDL
MODEL 5
REMARK VINA RESULT:      -5.1     19.162     21.978
REMARK  Name = 
REMARK  9 active torsions:
REMARK  status: ('A' for Active; 'I' for Inactive)
REMARK    1  A    between atoms: O_1  and  N_7
REMARK    2  A    between atoms: O_1  and  C_20
REMARK    3  A    between atoms: O_2  and  C_14
REMARK    4  A    between atoms: O_3  and  C_18
REMARK    5  A    between atoms: O_4  and  C_25
REMARK    6  A    between atoms: C_8  and  C_10
REMARK    7  A    between atoms: C_17  and  C_18
REMARK    8  A    between atoms: C_17  and  C_20
REMARK    9  A    between atoms: C_18  and  C_25
REMARK                            x       y       z     vdW  Elec       q    Type
REMARK                         _______ _______ _______ _____ _____    ______ ____
ROOT
ATOM      1  N   UNL     1     -24.535 106.633  -2.171  0.00  0.00    +0.000 NA
ATOM      2  N   UNL     1     -25.289 103.563  -3.779  0.00  0.00    +0.000 NA
ATOM      3  C   UNL     1     -24.663 105.330  -2.159  0.00  0.00    +0.000 C 
ATOM      4  C   UNL     1     -24.985 104.799  -3.544  0.00  0.00    +0.000 C 
ATOM      5  C   UNL     1     -24.942 105.980  -4.396  0.00  0.00    +0.000 A 
ATOM      6  C   UNL     1     -24.689 107.028  -3.511  0.00  0.00    +0.000 A 
ATOM      7  C   UNL     1     -25.112 106.181  -5.754  0.00  0.00    +0.000 A 
ATOM      8  C   UNL     1     -24.600 108.327  -3.979  0.00  0.00    +0.000 A 
ATOM      9  C   UNL     1     -25.022 107.492  -6.229  0.00  0.00    +0.000 A 
ATOM     10  C   UNL     1     -24.769 108.558  -5.348  0.00  0.00    +0.000 A 
ENDROOT
BRANCH   3  12
ATOM     11  N   UNL     1     -23.918 103.016   0.533  0.00  0.00    +0.000 N 
ATOM     12  C   UNL     1     -24.518 104.588  -0.929  0.00  0.00    +0.000 A 
ATOM     13  C   UNL     1     -25.031 104.935   0.366  0.00  0.00    +0.000 A 
ATOM     14  C   UNL     1     -24.651 103.928   1.254  0.00  0.00    +0.000 A 
ATOM     15  C   UNL     1     -23.810 103.408  -0.776  0.00  0.00    +0.000 A 
ATOM     16  C   UNL     1     -25.799 106.008   0.868  0.00  0.00    +0.000 A 
ATOM     17  C   UNL     1     -24.995 103.938   2.611  0.00  0.00    +0.000 A 
ATOM     18  C   UNL     1     -26.152 106.036   2.221  0.00  0.00    +0.000 A 
ATOM     19  C   UNL     1     -25.755 105.014   3.079  0.00  0.00    +0.000 A 
ATOM     20  H   UNL     1     -23.500 102.190   0.934  0.00  0.00    +0.000 HD
BRANCH  15  21
ATOM     21  O   UNL     1     -23.090 102.718  -1.654  0.00  0.00    +0.000 OA
ATOM     22  H   UNL     1     -23.354 101.784  -1.653  0.00  0.00    +0.000 HD
ENDBRANCH  15  21
ENDBRANCH   3  12
BRANCH   2  23
ATOM     23  O   UNL     1     -25.589 103.338  -5.124  0.00  0.00    +0.000 OA
BRANCH  23  24
ATOM     24  C   UNL     1     -24.927 102.147  -5.540  0.00  0.00    +0.000 C 
BRANCH  24  25
ATOM     25  C   UNL     1     -23.744 102.509  -6.426  0.00  0.00    +0.000 C 
BRANCH  25  26
ATOM     26  C   UNL     1     -22.387 102.411  -5.728  0.00  0.00    +0.000 C 
BRANCH  26  27
ATOM     27  O   UNL     1     -22.614 102.477  -4.312  0.00  0.00    +0.000 OA
ATOM     28  H   UNL     1     -23.359 101.862  -4.156  0.00  0.00    +0.000 HD
ENDBRANCH  26  27
BRANCH  26  29
ATOM     29  C   UNL     1     -21.622 101.118  -6.030  0.00  0.00    +0.000 C 
BRANCH  29  30
ATOM     30  O   UNL     1     -20.953 100.706  -4.833  0.00  0.00    +0.000 OA
ATOM     31  H   UNL     1     -20.912 101.489  -4.255  0.00  0.00    +0.000 HD
ENDBRANCH  29  30
ENDBRANCH  26  29
ENDBRANCH  25  26
ENDBRANCH  24  25
ENDBRANCH  23  24
ENDBRANCH   2  23
TORSDOF 9
ENDMDL
MODEL 6
REMARK VINA RESULT:      -5.1      2.924      7.708
REMARK  Name = 
REMARK  9 active torsions:
REMARK  status: ('A' for Active; 'I' for Inactive)
REMARK    1  A    between atoms: O_1  and  N_7
REMARK    2  A    between atoms: O_1  and  C_20
REMARK    3  A    between atoms: O_2  and  C_14
REMARK    4  A    between atoms: O_3  and  C_18
REMARK    5  A    between atoms: O_4  and  C_25
REMARK    6  A    between atoms: C_8  and  C_10
REMARK    7  A    between atoms: C_17  and  C_18
REMARK    8  A    between atoms: C_17  and  C_20
REMARK    9  A    between atoms: C_18  and  C_25
REMARK                            x       y       z     vdW  Elec       q    Type
REMARK                         _______ _______ _______ _____ _____    ______ ____
ROOT
ATOM      1  N   UNL     1     -34.588  98.639  18.409  0.00  0.00    +0.000 NA
ATOM      2  N   UNL     1     -36.116  99.129  15.246  0.00  0.00    +0.000 NA
ATOM      3  C   UNL     1     -35.649  98.731  17.647  0.00  0.00    +0.000 C 
ATOM      4  C   UNL     1     -35.261  98.885  16.187  0.00  0.00    +0.000 C 
ATOM      5  C   UNL     1     -33.808  98.783  16.193  0.00  0.00    +0.000 A 
ATOM      6  C   UNL     1     -33.482  98.657  17.543  0.00  0.00    +0.000 A 
ATOM      7  C   UNL     1     -32.847  98.810  15.197  0.00  0.00    +0.000 A 
ATOM      8  C   UNL     1     -32.158  98.553  17.932  0.00  0.00    +0.000 A 
ATOM      9  C   UNL     1     -31.510  98.705  15.587  0.00  0.00    +0.000 A 
ATOM     10  C   UNL     1     -31.167  98.578  16.945  0.00  0.00    +0.000 A 
ENDROOT
BRANCH   3  12
ATOM     11  N   UNL     1     -39.073  99.253  18.722  0.00  0.00    +0.000 N 
ATOM     12  C   UNL     1     -36.973  98.700  18.221  0.00  0.00    +0.000 A 
ATOM     13  C   UNL     1     -37.523  97.702  19.096  0.00  0.00    +0.000 A 
ATOM     14  C   UNL     1     -38.829  98.083  19.401  0.00  0.00    +0.000 A 
ATOM     15  C   UNL     1     -37.975  99.626  17.991  0.00  0.00    +0.000 A 
ATOM     16  C   UNL     1     -37.025  96.514  19.671  0.00  0.00    +0.000 A 
ATOM     17  C   UNL     1     -39.662  97.340  20.245  0.00  0.00    +0.000 A 
ATOM     18  C   UNL     1     -37.842  95.757  20.518  0.00  0.00    +0.000 A 
ATOM     19  C   UNL     1     -39.142  96.167  20.800  0.00  0.00    +0.000 A 
ATOM     20  H   UNL     1     -39.955  99.742  18.748  0.00  0.00    +0.000 HD
BRANCH  15  21
ATOM     21  O   UNL     1     -37.994 100.693  17.200  0.00  0.00    +0.000 OA
ATOM     22  H   UNL     1     -38.832 101.173  17.294  0.00  0.00    +0.000 HD
ENDBRANCH  15  21
ENDBRANCH   3  12
BRANCH   2  23
ATOM     23  O   UNL     1     -35.504  99.275  13.999  0.00  0.00    +0.000 OA
BRANCH  23  24
ATOM     24  C   UNL     1     -36.513  99.558  13.033  0.00  0.00    +0.000 C 
BRANCH  24  25
ATOM     25  C   UNL     1     -37.285 100.798  13.458  0.00  0.00    +0.000 C 
BRANCH  25  26
ATOM     26  C   UNL     1     -38.803 100.616  13.468  0.00  0.00    +0.000 C 
BRANCH  26  27
ATOM     27  O   UNL     1     -39.127  99.671  14.499  0.00  0.00    +0.000 OA
ATOM     28  H   UNL     1     -39.041  98.798  14.065  0.00  0.00    +0.000 HD
ENDBRANCH  26  27
BRANCH  26  29
ATOM     29  C   UNL     1     -39.585 101.906  13.738  0.00  0.00    +0.000 C 
BRANCH  29  30
ATOM     30  O   UNL     1     -40.966 101.659  13.449  0.00  0.00    +0.000 OA
ATOM     31  H   UNL     1     -41.416 102.521  13.492  0.00  0.00    +0.000 HD
ENDBRANCH  29  30
ENDBRANCH  26  29
ENDBRANCH  25  26
ENDBRANCH  24  25
ENDBRANCH  23  24
ENDBRANCH   2  23
TORSDOF 9
ENDMDL
MODEL 7
REMARK VINA RESULT:      -5.1      9.710     11.953
REMARK  Name = 
REMARK  9 active torsions:
REMARK  status: ('A' for Active; 'I' for Inactive)
REMARK    1  A    between atoms: O_1  and  N_7
REMARK    2  A    between atoms: O_1  and  C_20
REMARK    3  A    between atoms: O_2  and  C_14
REMARK    4  A    between atoms: O_3  and  C_18
REMARK    5  A    between atoms: O_4  and  C_25
REMARK    6  A    between atoms: C_8  and  C_10
REMARK    7  A    between atoms: C_17  and  C_18
REMARK    8  A    between atoms: C_17  and  C_20
REMARK    9  A    between atoms: C_18  and  C_25
REMARK                            x       y       z     vdW  Elec       q    Type
REMARK                         _______ _______ _______ _____ _____    ______ ____
ROOT
ATOM      1  N   UNL     1     -33.265  86.834  17.643  0.00  0.00    +0.000 NA
ATOM      2  N   UNL     1     -36.273  88.400  18.685  0.00  0.00    +0.000 NA
ATOM      3  C   UNL     1     -33.909  87.757  18.313  0.00  0.00    +0.000 C 
ATOM      4  C   UNL     1     -35.410  87.552  18.222  0.00  0.00    +0.000 C 
ATOM      5  C   UNL     1     -35.555  86.315  17.468  0.00  0.00    +0.000 A 
ATOM      6  C   UNL     1     -34.245  85.960  17.144  0.00  0.00    +0.000 A 
ATOM      7  C   UNL     1     -36.647  85.566  17.068  0.00  0.00    +0.000 A 
ATOM      8  C   UNL     1     -33.998  84.821  16.398  0.00  0.00    +0.000 A 
ATOM      9  C   UNL     1     -36.400  84.415  16.315  0.00  0.00    +0.000 A 
ATOM     10  C   UNL     1     -35.086  84.046  15.981  0.00  0.00    +0.000 A 
ENDROOT
BRANCH   3  12
ATOM     11  N   UNL     1     -32.518  90.217  20.587  0.00  0.00    +0.000 N 
ATOM     12  C   UNL     1     -33.189  88.805  18.999  0.00  0.00    +0.000 A 
ATOM     13  C   UNL     1     -32.123  89.615  18.482  0.00  0.00    +0.000 A 
ATOM     14  C   UNL     1     -31.734  90.495  19.492  0.00  0.00    +0.000 A 
ATOM     15  C   UNL     1     -33.383  89.189  20.315  0.00  0.00    +0.000 A 
ATOM     16  C   UNL     1     -31.458  89.694  17.239  0.00  0.00    +0.000 A 
ATOM     17  C   UNL     1     -30.718  91.444  19.327  0.00  0.00    +0.000 A 
ATOM     18  C   UNL     1     -30.440  90.636  17.056  0.00  0.00    +0.000 A 
ATOM     19  C   UNL     1     -30.077  91.498  18.086  0.00  0.00    +0.000 A 
ATOM     20  H   UNL     1     -32.434  90.695  21.471  0.00  0.00    +0.000 HD
BRANCH  15  21
ATOM     21  O   UNL     1     -34.197  88.699  21.243  0.00  0.00    +0.000 OA
ATOM     22  H   UNL     1     -35.073  88.515  20.865  0.00  0.00    +0.000 HD
ENDBRANCH  15  21
ENDBRANCH   3  12
BRANCH   2  23
ATOM     23  O   UNL     1     -37.589  88.006  18.435  0.00  0.00    +0.000 OA
BRANCH  23  24
ATOM     24  C   UNL     1     -38.226  87.748  19.683  0.00  0.00    +0.000 C 
BRANCH  24  25
ATOM     25  C   UNL     1     -39.728  87.943  19.535  0.00  0.00    +0.000 C 
BRANCH  25  26
ATOM     26  C   UNL     1     -40.131  89.325  19.020  0.00  0.00    +0.000 C 
BRANCH  26  27
ATOM     27  O   UNL     1     -39.060  90.235  19.317  0.00  0.00    +0.000 OA
ATOM     28  H   UNL     1     -38.250  89.692  19.238  0.00  0.00    +0.000 HD
ENDBRANCH  26  27
BRANCH  26  29
ATOM     29  C   UNL     1     -40.397  89.376  17.512  0.00  0.00    +0.000 C 
BRANCH  29  30
ATOM     30  O   UNL     1     -40.246  88.052  16.987  0.00  0.00    +0.000 OA
ATOM     31  H   UNL     1     -39.537  88.098  16.320  0.00  0.00    +0.000 HD
ENDBRANCH  29  30
ENDBRANCH  26  29
ENDBRANCH  25  26
ENDBRANCH  24  25
ENDBRANCH  23  24
ENDBRANCH   2  23
TORSDOF 9
ENDMDL
MODEL 8
REMARK VINA RESULT:      -5.0     15.513     19.135
REMARK  Name = 
REMARK  9 active torsions:
REMARK  status: ('A' for Active; 'I' for Inactive)
REMARK    1  A    between atoms: O_1  and  N_7
REMARK    2  A    between atoms: O_1  and  C_20
REMARK    3  A    between atoms: O_2  and  C_14
REMARK    4  A    between atoms: O_3  and  C_18
REMARK    5  A    between atoms: O_4  and  C_25
REMARK    6  A    between atoms: C_8  and  C_10
REMARK    7  A    between atoms: C_17  and  C_18
REMARK    8  A    between atoms: C_17  and  C_20
REMARK    9  A    between atoms: C_18  and  C_25
REMARK                            x       y       z     vdW  Elec       q    Type
REMARK                         _______ _______ _______ _____ _____    ______ ____
ROOT
ATOM      1  N   UNL     1     -43.532  84.479  17.991  0.00  0.00    +0.000 NA
ATOM      2  N   UNL     1     -41.308  82.677  15.896  0.00  0.00    +0.000 NA
ATOM      3  C   UNL     1     -43.264  83.480  17.187  0.00  0.00    +0.000 C 
ATOM      4  C   UNL     1     -41.800  83.479  16.786  0.00  0.00    +0.000 C 
ATOM      5  C   UNL     1     -41.223  84.580  17.545  0.00  0.00    +0.000 A 
ATOM      6  C   UNL     1     -42.311  85.135  18.219  0.00  0.00    +0.000 A 
ATOM      7  C   UNL     1     -39.941  85.090  17.657  0.00  0.00    +0.000 A 
ATOM      8  C   UNL     1     -42.133  86.236  19.038  0.00  0.00    +0.000 A 
ATOM      9  C   UNL     1     -39.759  86.201  18.485  0.00  0.00    +0.000 A 
ATOM     10  C   UNL     1     -40.847  86.771  19.169  0.00  0.00    +0.000 A 
ENDROOT
BRANCH   3  12
ATOM     11  N   UNL     1     -45.382  80.682  16.271  0.00  0.00    +0.000 N 
ATOM     12  C   UNL     1     -44.304  82.565  16.779  0.00  0.00    +0.000 A 
ATOM     13  C   UNL     1     -45.654  82.885  16.412  0.00  0.00    +0.000 A 
ATOM     14  C   UNL     1     -46.297  81.691  16.088  0.00  0.00    +0.000 A 
ATOM     15  C   UNL     1     -44.185  81.188  16.708  0.00  0.00    +0.000 A 
ATOM     16  C   UNL     1     -46.390  84.086  16.310  0.00  0.00    +0.000 A 
ATOM     17  C   UNL     1     -47.633  81.632  15.672  0.00  0.00    +0.000 A 
ATOM     18  C   UNL     1     -47.726  84.048  15.895  0.00  0.00    +0.000 A 
ATOM     19  C   UNL     1     -48.336  82.837  15.581  0.00  0.00    +0.000 A 
ATOM     20  H   UNL     1     -45.589  79.705  16.127  0.00  0.00    +0.000 HD
BRANCH  15  21
ATOM     21  O   UNL     1     -43.164  80.396  17.017  0.00  0.00    +0.000 OA
ATOM     22  H   UNL     1     -42.322  80.868  16.909  0.00  0.00    +0.000 HD
ENDBRANCH  15  21
ENDBRANCH   3  12
BRANCH   2  23
ATOM     23  O   UNL     1     -39.948  82.907  15.672  0.00  0.00    +0.000 OA
BRANCH  23  24
ATOM     24  C   UNL     1     -39.231  81.723  16.007  0.00  0.00    +0.000 C 
BRANCH  24  25
ATOM     25  C   UNL     1     -37.974  82.094  16.780  0.00  0.00    +0.000 C 
BRANCH  25  26
ATOM     26  C   UNL     1     -36.766  82.407  15.897  0.00  0.00    +0.000 C 
BRANCH  26  27
ATOM     27  O   UNL     1     -37.042  81.907  14.579  0.00  0.00    +0.000 OA
ATOM     28  H   UNL     1     -37.995  81.685  14.598  0.00  0.00    +0.000 HD
ENDBRANCH  26  27
BRANCH  26  29
ATOM     29  C   UNL     1     -36.446  83.902  15.784  0.00  0.00    +0.000 C 
BRANCH  29  30
ATOM     30  O   UNL     1     -37.312  84.469  14.795  0.00  0.00    +0.000 OA
ATOM     31  H   UNL     1     -37.852  85.139  15.252  0.00  0.00    +0.000 HD
ENDBRANCH  29  30
ENDBRANCH  26  29
ENDBRANCH  25  26
ENDBRANCH  24  25
ENDBRANCH  23  24
ENDBRANCH   2  23
TORSDOF 9
ENDMDL
MODEL 9
REMARK VINA RESULT:      -4.9     13.476     16.284
REMARK  Name = 
REMARK  9 active torsions:
REMARK  status: ('A' for Active; 'I' for Inactive)
REMARK    1  A    between atoms: O_1  and  N_7
REMARK    2  A    between atoms: O_1  and  C_20
REMARK    3  A    between atoms: O_2  and  C_14
REMARK    4  A    between atoms: O_3  and  C_18
REMARK    5  A    between atoms: O_4  and  C_25
REMARK    6  A    between atoms: C_8  and  C_10
REMARK    7  A    between atoms: C_17  and  C_18
REMARK    8  A    between atoms: C_17  and  C_20
REMARK    9  A    between atoms: C_18  and  C_25
REMARK                            x       y       z     vdW  Elec       q    Type
REMARK                         _______ _______ _______ _____ _____    ______ ____
ROOT
ATOM      1  N   UNL     1     -38.951 104.780   4.811  0.00  0.00    +0.000 NA
ATOM      2  N   UNL     1     -40.615 102.595   2.566  0.00  0.00    +0.000 NA
ATOM      3  C   UNL     1     -39.003 104.103   3.691  0.00  0.00    +0.000 C 
ATOM      4  C   UNL     1     -40.352 103.429   3.521  0.00  0.00    +0.000 C 
ATOM      5  C   UNL     1     -41.123 103.882   4.671  0.00  0.00    +0.000 A 
ATOM      6  C   UNL     1     -40.223 104.662   5.397  0.00  0.00    +0.000 A 
ATOM      7  C   UNL     1     -42.423 103.663   5.092  0.00  0.00    +0.000 A 
ATOM      8  C   UNL     1     -40.615 105.251   6.586  0.00  0.00    +0.000 A 
ATOM      9  C   UNL     1     -42.821 104.258   6.292  0.00  0.00    +0.000 A 
ATOM     10  C   UNL     1     -41.924 105.045   7.034  0.00  0.00    +0.000 A 
ENDROOT
BRANCH   3  12
ATOM     11  N   UNL     1     -35.806 103.672   2.033  0.00  0.00    +0.000 N 
ATOM     12  C   UNL     1     -37.860 104.051   2.810  0.00  0.00    +0.000 A 
ATOM     13  C   UNL     1     -37.791 104.484   1.443  0.00  0.00    +0.000 A 
ATOM     14  C   UNL     1     -36.493 104.246   0.990  0.00  0.00    +0.000 A 
ATOM     15  C   UNL     1     -36.619 103.527   3.127  0.00  0.00    +0.000 A 
ATOM     16  C   UNL     1     -38.709 105.073   0.547  0.00  0.00    +0.000 A 
ATOM     17  C   UNL     1     -36.067 104.562  -0.305  0.00  0.00    +0.000 A 
ATOM     18  C   UNL     1     -38.303 105.395  -0.752  0.00  0.00    +0.000 A 
ATOM     19  C   UNL     1     -36.999 105.143  -1.170  0.00  0.00    +0.000 A 
ATOM     20  H   UNL     1     -34.843 103.377   1.974  0.00  0.00    +0.000 HD
BRANCH  15  21
ATOM     21  O   UNL     1     -36.194 102.935   4.238  0.00  0.00    +0.000 OA
ATOM     22  H   UNL     1     -35.740 102.103   4.029  0.00  0.00    +0.000 HD
ENDBRANCH  15  21
ENDBRANCH   3  12
BRANCH   2  23
ATOM     23  O   UNL     1     -41.909 102.077   2.657  0.00  0.00    +0.000 OA
BRANCH  23  24
ATOM     24  C   UNL     1     -42.111 101.178   1.570  0.00  0.00    +0.000 C 
BRANCH  24  25
ATOM     25  C   UNL     1     -43.110 101.782   0.594  0.00  0.00    +0.000 C 
BRANCH  25  26
ATOM     26  C   UNL     1     -42.541 102.045  -0.801  0.00  0.00    +0.000 C 
BRANCH  26  27
ATOM     27  O   UNL     1     -41.864 100.855  -1.232  0.00  0.00    +0.000 OA
ATOM     28  H   UNL     1     -42.000 100.219  -0.501  0.00  0.00    +0.000 HD
ENDBRANCH  26  27
BRANCH  26  29
ATOM     29  C   UNL     1     -43.599 102.400  -1.850  0.00  0.00    +0.000 C 
BRANCH  29  30
ATOM     30  O   UNL     1     -43.763 101.273  -2.717  0.00  0.00    +0.000 OA
ATOM     31  H   UNL     1     -43.311 100.525  -2.287  0.00  0.00    +0.000 HD
ENDBRANCH  29  30
ENDBRANCH  26  29
ENDBRANCH  25  26
ENDBRANCH  24  25
ENDBRANCH  23  24
ENDBRANCH   2  23
TORSDOF 9
ENDMDL
