MODEL 1
REMARK VINA RESULT:      -6.4      0.000      0.000
REMARK  Name = IPA3.pdbqt.pdb
REMARK  5 active torsions:
REMARK  status: ('A' for Active; 'I' for Inactive)
REMARK    1  A    between atoms: S_1  and  S_2
REMARK    2  A    between atoms: S_1  and  C_15
REMARK    3  A    between atoms: S_2  and  C_3
REMARK    4  A    between atoms: C_10  and  O_13
REMARK    5  A    between atoms: C_22  and  O_25
REMARK                            x       y       z     vdW  Elec       q    Type
REMARK                         _______ _______ _______ _____ _____    ______ ____
ROOT
ATOM      1  S   UNL     1     -33.122 101.771  14.392  0.00  0.00    +0.000 S 
ENDROOT
BRANCH   1   2
ATOM      2  C   UNL     1     -34.623 100.810  14.146  0.00  0.00    +0.000 A 
ATOM      3  C   UNL     1     -35.167 100.022  15.189  0.00  0.00    +0.000 A 
ATOM      4  C   UNL     1     -36.365  99.307  14.953  0.00  0.00    +0.000 A 
ATOM      5  C   UNL     1     -34.589  99.917  16.466  0.00  0.00    +0.000 A 
ATOM      6  C   UNL     1     -36.989  99.362  13.710  0.00  0.00    +0.000 A 
ATOM      7  C   UNL     1     -36.943  98.539  15.964  0.00  0.00    +0.000 A 
ATOM      8  C   UNL     1     -36.444 100.123  12.683  0.00  0.00    +0.000 A 
ATOM      9  C   UNL     1     -35.273 100.841  12.902  0.00  0.00    +0.000 A 
ATOM     10  C   UNL     1     -36.350  98.463  17.221  0.00  0.00    +0.000 A 
ATOM     11  C   UNL     1     -35.170  99.151  17.473  0.00  0.00    +0.000 A 
BRANCH   9  12
ATOM     12  O   UNL     1     -34.801 101.575  11.846  0.00  0.00    +0.000 OA
ATOM     13  H   UNL     1     -34.944 102.517  12.052  0.00  0.00    +0.000 HD
ENDBRANCH   9  12
ENDBRANCH   1   2
BRANCH   1  14
ATOM     14  S   UNL     1     -31.676 100.462  13.729  0.00  0.00    +0.000 S 
BRANCH  14  15
ATOM     15  C   UNL     1     -30.421 100.629  15.006  0.00  0.00    +0.000 A 
ATOM     16  C   UNL     1     -30.405  99.773  16.133  0.00  0.00    +0.000 A 
ATOM     17  C   UNL     1     -29.380  99.927  17.096  0.00  0.00    +0.000 A 
ATOM     18  C   UNL     1     -31.353  98.756  16.351  0.00  0.00    +0.000 A 
ATOM     19  C   UNL     1     -28.412 100.915  16.946  0.00  0.00    +0.000 A 
ATOM     20  C   UNL     1     -29.319  99.087  18.208  0.00  0.00    +0.000 A 
ATOM     21  C   UNL     1     -28.438 101.766  15.847  0.00  0.00    +0.000 A 
ATOM     22  C   UNL     1     -29.433 101.620  14.887  0.00  0.00    +0.000 A 
ATOM     23  C   UNL     1     -30.267  98.083  18.389  0.00  0.00    +0.000 A 
ATOM     24  C   UNL     1     -31.288  97.919  17.461  0.00  0.00    +0.000 A 
BRANCH  22  25
ATOM     25  O   UNL     1     -29.388 102.488  13.827  0.00  0.00    +0.000 OA
ATOM     26  H   UNL     1     -29.010 102.007  13.068  0.00  0.00    +0.000 HD
ENDBRANCH  22  25
ENDBRANCH  14  15
ENDBRANCH   1  14
TORSDOF 5
ENDMDL
MODEL 2
REMARK VINA RESULT:      -6.1     12.887     14.505
REMARK  Name = IPA3.pdbqt.pdb
REMARK  5 active torsions:
REMARK  status: ('A' for Active; 'I' for Inactive)
REMARK    1  A    between atoms: S_1  and  S_2
REMARK    2  A    between atoms: S_1  and  C_15
REMARK    3  A    between atoms: S_2  and  C_3
REMARK    4  A    between atoms: C_10  and  O_13
REMARK    5  A    between atoms: C_22  and  O_25
REMARK                            x       y       z     vdW  Elec       q    Type
REMARK                         _______ _______ _______ _____ _____    ______ ____
ROOT
ATOM      1  S   UNL     1     -41.235 104.491   4.342  0.00  0.00    +0.000 S 
ENDROOT
BRANCH   1   2
ATOM      2  C   UNL     1     -42.385 103.123   4.138  0.00  0.00    +0.000 A 
ATOM      3  C   UNL     1     -42.367 102.320   2.971  0.00  0.00    +0.000 A 
ATOM      4  C   UNL     1     -43.273 101.238   2.871  0.00  0.00    +0.000 A 
ATOM      5  C   UNL     1     -41.482 102.527   1.899  0.00  0.00    +0.000 A 
ATOM      6  C   UNL     1     -44.180 100.977   3.895  0.00  0.00    +0.000 A 
ATOM      7  C   UNL     1     -43.268 100.411   1.748  0.00  0.00    +0.000 A 
ATOM      8  C   UNL     1     -44.207 101.777   5.031  0.00  0.00    +0.000 A 
ATOM      9  C   UNL     1     -43.315 102.838   5.150  0.00  0.00    +0.000 A 
ATOM     10  C   UNL     1     -42.373 100.638   0.706  0.00  0.00    +0.000 A 
ATOM     11  C   UNL     1     -41.479 101.698   0.780  0.00  0.00    +0.000 A 
BRANCH   9  12
ATOM     12  O   UNL     1     -43.394 103.575   6.302  0.00  0.00    +0.000 OA
ATOM     13  H   UNL     1     -42.545 103.483   6.771  0.00  0.00    +0.000 HD
ENDBRANCH   9  12
ENDBRANCH   1   2
BRANCH   1  14
ATOM     14  S   UNL     1     -39.893 103.709   5.696  0.00  0.00    +0.000 S 
BRANCH  14  15
ATOM     15  C   UNL     1     -38.401 103.585   4.700  0.00  0.00    +0.000 A 
ATOM     16  C   UNL     1     -37.384 104.565   4.782  0.00  0.00    +0.000 A 
ATOM     17  C   UNL     1     -36.216 104.409   3.998  0.00  0.00    +0.000 A 
ATOM     18  C   UNL     1     -37.458 105.696   5.616  0.00  0.00    +0.000 A 
ATOM     19  C   UNL     1     -36.078 103.316   3.146  0.00  0.00    +0.000 A 
ATOM     20  C   UNL     1     -35.183 105.342   4.070  0.00  0.00    +0.000 A 
ATOM     21  C   UNL     1     -37.085 102.363   3.055  0.00  0.00    +0.000 A 
ATOM     22  C   UNL     1     -38.234 102.498   3.827  0.00  0.00    +0.000 A 
ATOM     23  C   UNL     1     -35.283 106.446   4.913  0.00  0.00    +0.000 A 
ATOM     24  C   UNL     1     -36.423 106.624   5.687  0.00  0.00    +0.000 A 
BRANCH  22  25
ATOM     25  O   UNL     1     -39.178 101.514   3.691  0.00  0.00    +0.000 OA
ATOM     26  H   UNL     1     -38.767 100.775   3.205  0.00  0.00    +0.000 HD
ENDBRANCH  22  25
ENDBRANCH  14  15
ENDBRANCH   1  14
TORSDOF 5
ENDMDL
MODEL 3
REMARK VINA RESULT:      -5.8      2.043      3.774
REMARK  Name = IPA3.pdbqt.pdb
REMARK  5 active torsions:
REMARK  status: ('A' for Active; 'I' for Inactive)
REMARK    1  A    between atoms: S_1  and  S_2
REMARK    2  A    between atoms: S_1  and  C_15
REMARK    3  A    between atoms: S_2  and  C_3
REMARK    4  A    between atoms: C_10  and  O_13
REMARK    5  A    between atoms: C_22  and  O_25
REMARK                            x       y       z     vdW  Elec       q    Type
REMARK                         _______ _______ _______ _____ _____    ______ ____
ROOT
ATOM      1  S   UNL     1     -34.021 101.796  15.153  0.00  0.00    +0.000 S 
ENDROOT
BRANCH   1   2
ATOM      2  C   UNL     1     -35.385 100.756  15.694  0.00  0.00    +0.000 A 
ATOM      3  C   UNL     1     -36.531 100.570  14.882  0.00  0.00    +0.000 A 
ATOM      4  C   UNL     1     -37.564  99.719  15.340  0.00  0.00    +0.000 A 
ATOM      5  C   UNL     1     -36.699 101.177  13.625  0.00  0.00    +0.000 A 
ATOM      6  C   UNL     1     -37.465  99.088  16.578  0.00  0.00    +0.000 A 
ATOM      7  C   UNL     1     -38.696  99.493  14.557  0.00  0.00    +0.000 A 
ATOM      8  C   UNL     1     -36.347  99.286  17.380  0.00  0.00    +0.000 A 
ATOM      9  C   UNL     1     -35.318 100.111  16.939  0.00  0.00    +0.000 A 
ATOM     10  C   UNL     1     -38.829 100.103  13.313  0.00  0.00    +0.000 A 
ATOM     11  C   UNL     1     -37.830 100.947  12.846  0.00  0.00    +0.000 A 
BRANCH   9  12
ATOM     12  O   UNL     1     -34.245 100.249  17.779  0.00  0.00    +0.000 OA
ATOM     13  H   UNL     1     -33.581 100.799  17.325  0.00  0.00    +0.000 HD
ENDBRANCH   9  12
ENDBRANCH   1   2
BRANCH   1  14
ATOM     14  S   UNL     1     -32.961 100.501  13.951  0.00  0.00    +0.000 S 
BRANCH  14  15
ATOM     15  C   UNL     1     -31.597 100.040  15.028  0.00  0.00    +0.000 A 
ATOM     16  C   UNL     1     -30.406 100.804  15.069  0.00  0.00    +0.000 A 
ATOM     17  C   UNL     1     -29.373 100.416  15.953  0.00  0.00    +0.000 A 
ATOM     18  C   UNL     1     -30.190 101.949  14.281  0.00  0.00    +0.000 A 
ATOM     19  C   UNL     1     -29.517  99.289  16.758  0.00  0.00    +0.000 A 
ATOM     20  C   UNL     1     -28.195 101.158  16.037  0.00  0.00    +0.000 A 
ATOM     21  C   UNL     1     -30.681  98.531  16.706  0.00  0.00    +0.000 A 
ATOM     22  C   UNL     1     -31.710  98.906  15.849  0.00  0.00    +0.000 A 
ATOM     23  C   UNL     1     -28.015 102.293  15.251  0.00  0.00    +0.000 A 
ATOM     24  C   UNL     1     -29.014 102.689  14.369  0.00  0.00    +0.000 A 
BRANCH  22  25
ATOM     25  O   UNL     1     -32.829  98.115  15.859  0.00  0.00    +0.000 OA
ATOM     26  H   UNL     1     -32.623  97.318  16.382  0.00  0.00    +0.000 HD
ENDBRANCH  22  25
ENDBRANCH  14  15
ENDBRANCH   1  14
TORSDOF 5
ENDMDL
MODEL 4
REMARK VINA RESULT:      -5.8     13.081     16.131
REMARK  Name = IPA3.pdbqt.pdb
REMARK  5 active torsions:
REMARK  status: ('A' for Active; 'I' for Inactive)
REMARK    1  A    between atoms: S_1  and  S_2
REMARK    2  A    between atoms: S_1  and  C_15
REMARK    3  A    between atoms: S_2  and  C_3
REMARK    4  A    between atoms: C_10  and  O_13
REMARK    5  A    between atoms: C_22  and  O_25
REMARK                            x       y       z     vdW  Elec       q    Type
REMARK                         _______ _______ _______ _____ _____    ______ ____
ROOT
ATOM      1  S   UNL     1     -40.039 105.901   4.952  0.00  0.00    +0.000 S 
ENDROOT
BRANCH   1   2
ATOM      2  C   UNL     1     -38.992 104.635   4.218  0.00  0.00    +0.000 A 
ATOM      3  C   UNL     1     -38.392 104.826   2.950  0.00  0.00    +0.000 A 
ATOM      4  C   UNL     1     -37.554 103.812   2.429  0.00  0.00    +0.000 A 
ATOM      5  C   UNL     1     -38.570 105.984   2.173  0.00  0.00    +0.000 A 
ATOM      6  C   UNL     1     -37.338 102.637   3.144  0.00  0.00    +0.000 A 
ATOM      7  C   UNL     1     -36.927 103.975   1.194  0.00  0.00    +0.000 A 
ATOM      8  C   UNL     1     -37.941 102.445   4.381  0.00  0.00    +0.000 A 
ATOM      9  C   UNL     1     -38.759 103.437   4.912  0.00  0.00    +0.000 A 
ATOM     10  C   UNL     1     -37.117 105.138   0.453  0.00  0.00    +0.000 A 
ATOM     11  C   UNL     1     -37.940 106.144   0.941  0.00  0.00    +0.000 A 
BRANCH   9  12
ATOM     12  O   UNL     1     -39.310 103.181   6.139  0.00  0.00    +0.000 OA
ATOM     13  H   UNL     1     -38.604 102.836   6.716  0.00  0.00    +0.000 HD
ENDBRANCH   9  12
ENDBRANCH   1   2
BRANCH   1  14
ATOM     14  S   UNL     1     -41.766 105.707   3.844  0.00  0.00    +0.000 S 
BRANCH  14  15
ATOM     15  C   UNL     1     -41.849 103.926   3.609  0.00  0.00    +0.000 A 
ATOM     16  C   UNL     1     -41.587 103.342   2.346  0.00  0.00    +0.000 A 
ATOM     17  C   UNL     1     -41.638 101.934   2.219  0.00  0.00    +0.000 A 
ATOM     18  C   UNL     1     -41.264 104.086   1.197  0.00  0.00    +0.000 A 
ATOM     19  C   UNL     1     -41.957 101.136   3.314  0.00  0.00    +0.000 A 
ATOM     20  C   UNL     1     -41.364 101.321   0.996  0.00  0.00    +0.000 A 
ATOM     21  C   UNL     1     -42.229 101.712   4.550  0.00  0.00    +0.000 A 
ATOM     22  C   UNL     1     -42.173 103.094   4.693  0.00  0.00    +0.000 A 
ATOM     23  C   UNL     1     -41.037 102.086  -0.121  0.00  0.00    +0.000 A 
ATOM     24  C   UNL     1     -40.989 103.471  -0.021  0.00  0.00    +0.000 A 
BRANCH  22  25
ATOM     25  O   UNL     1     -42.443 103.588   5.942  0.00  0.00    +0.000 OA
ATOM     26  H   UNL     1     -42.267 104.547   5.925  0.00  0.00    +0.000 HD
ENDBRANCH  22  25
ENDBRANCH  14  15
ENDBRANCH   1  14
TORSDOF 5
ENDMDL
MODEL 5
REMARK VINA RESULT:      -5.8     14.871     17.290
REMARK  Name = IPA3.pdbqt.pdb
REMARK  5 active torsions:
REMARK  status: ('A' for Active; 'I' for Inactive)
REMARK    1  A    between atoms: S_1  and  S_2
REMARK    2  A    between atoms: S_1  and  C_15
REMARK    3  A    between atoms: S_2  and  C_3
REMARK    4  A    between atoms: C_10  and  O_13
REMARK    5  A    between atoms: C_22  and  O_25
REMARK                            x       y       z     vdW  Elec       q    Type
REMARK                         _______ _______ _______ _____ _____    ______ ____
ROOT
ATOM      1  S   UNL     1     -20.466  90.400  17.889  0.00  0.00    +0.000 S 
ENDROOT
BRANCH   1   2
ATOM      2  C   UNL     1     -19.268  91.535  18.604  0.00  0.00    +0.000 A 
ATOM      3  C   UNL     1     -19.665  92.533  19.527  0.00  0.00    +0.000 A 
ATOM      4  C   UNL     1     -18.680  93.383  20.083  0.00  0.00    +0.000 A 
ATOM      5  C   UNL     1     -20.996  92.724  19.939  0.00  0.00    +0.000 A 
ATOM      6  C   UNL     1     -17.344  93.252  19.715  0.00  0.00    +0.000 A 
ATOM      7  C   UNL     1     -19.032  94.362  21.012  0.00  0.00    +0.000 A 
ATOM      8  C   UNL     1     -16.958  92.283  18.798  0.00  0.00    +0.000 A 
ATOM      9  C   UNL     1     -17.913  91.432  18.250  0.00  0.00    +0.000 A 
ATOM     10  C   UNL     1     -20.357  94.520  21.407  0.00  0.00    +0.000 A 
ATOM     11  C   UNL     1     -21.341  93.702  20.869  0.00  0.00    +0.000 A 
BRANCH   9  12
ATOM     12  O   UNL     1     -17.457  90.496  17.360  0.00  0.00    +0.000 OA
ATOM     13  H   UNL     1     -17.755  90.761  16.471  0.00  0.00    +0.000 HD
ENDBRANCH   9  12
ENDBRANCH   1   2
BRANCH   1  14
ATOM     14  S   UNL     1     -20.252  88.749  19.104  0.00  0.00    +0.000 S 
BRANCH  14  15
ATOM     15  C   UNL     1     -20.717  89.416  20.708  0.00  0.00    +0.000 A 
ATOM     16  C   UNL     1     -19.735  89.815  21.647  0.00  0.00    +0.000 A 
ATOM     17  C   UNL     1     -20.152  90.359  22.884  0.00  0.00    +0.000 A 
ATOM     18  C   UNL     1     -18.351  89.714  21.415  0.00  0.00    +0.000 A 
ATOM     19  C   UNL     1     -21.505  90.484  23.182  0.00  0.00    +0.000 A 
ATOM     20  C   UNL     1     -19.213  90.785  23.824  0.00  0.00    +0.000 A 
ATOM     21  C   UNL     1     -22.468  90.076  22.265  0.00  0.00    +0.000 A 
ATOM     22  C   UNL     1     -22.075  89.549  21.041  0.00  0.00    +0.000 A 
ATOM     23  C   UNL     1     -17.850  90.680  23.560  0.00  0.00    +0.000 A 
ATOM     24  C   UNL     1     -17.417  90.142  22.355  0.00  0.00    +0.000 A 
BRANCH  22  25
ATOM     25  O   UNL     1     -23.079  89.179  20.186  0.00  0.00    +0.000 OA
ATOM     26  H   UNL     1     -23.113  89.837  19.467  0.00  0.00    +0.000 HD
ENDBRANCH  22  25
ENDBRANCH  14  15
ENDBRANCH   1  14
TORSDOF 5
ENDMDL
MODEL 6
REMARK VINA RESULT:      -5.7     22.456     25.288
REMARK  Name = IPA3.pdbqt.pdb
REMARK  5 active torsions:
REMARK  status: ('A' for Active; 'I' for Inactive)
REMARK    1  A    between atoms: S_1  and  S_2
REMARK    2  A    between atoms: S_1  and  C_15
REMARK    3  A    between atoms: S_2  and  C_3
REMARK    4  A    between atoms: C_10  and  O_13
REMARK    5  A    between atoms: C_22  and  O_25
REMARK                            x       y       z     vdW  Elec       q    Type
REMARK                         _______ _______ _______ _____ _____    ______ ____
ROOT
ATOM      1  S   UNL     1     -42.934  81.650   4.548  0.00  0.00    +0.000 S 
ENDROOT
BRANCH   1   2
ATOM      2  C   UNL     1     -44.213  81.455   5.797  0.00  0.00    +0.000 A 
ATOM      3  C   UNL     1     -44.966  82.565   6.253  0.00  0.00    +0.000 A 
ATOM      4  C   UNL     1     -45.980  82.355   7.217  0.00  0.00    +0.000 A 
ATOM      5  C   UNL     1     -44.773  83.878   5.789  0.00  0.00    +0.000 A 
ATOM      6  C   UNL     1     -46.222  81.080   7.723  0.00  0.00    +0.000 A 
ATOM      7  C   UNL     1     -46.757  83.420   7.671  0.00  0.00    +0.000 A 
ATOM      8  C   UNL     1     -45.471  79.996   7.286  0.00  0.00    +0.000 A 
ATOM      9  C   UNL     1     -44.478  80.184   6.331  0.00  0.00    +0.000 A 
ATOM     10  C   UNL     1     -46.547  84.707   7.186  0.00  0.00    +0.000 A 
ATOM     11  C   UNL     1     -45.553  84.938   6.245  0.00  0.00    +0.000 A 
BRANCH   9  12
ATOM     12  O   UNL     1     -43.786  79.067   5.942  0.00  0.00    +0.000 OA
ATOM     13  H   UNL     1     -42.885  79.346   5.698  0.00  0.00    +0.000 HD
ENDBRANCH   9  12
ENDBRANCH   1   2
BRANCH   1  14
ATOM     14  S   UNL     1     -43.908  81.002   2.851  0.00  0.00    +0.000 S 
BRANCH  14  15
ATOM     15  C   UNL     1     -45.452  81.919   2.945  0.00  0.00    +0.000 A 
ATOM     16  C   UNL     1     -46.647  81.298   3.380  0.00  0.00    +0.000 A 
ATOM     17  C   UNL     1     -47.829  82.069   3.464  0.00  0.00    +0.000 A 
ATOM     18  C   UNL     1     -46.728  79.943   3.752  0.00  0.00    +0.000 A 
ATOM     19  C   UNL     1     -47.822  83.415   3.107  0.00  0.00    +0.000 A 
ATOM     20  C   UNL     1     -49.020  81.496   3.910  0.00  0.00    +0.000 A 
ATOM     21  C   UNL     1     -46.652  84.020   2.665  0.00  0.00    +0.000 A 
ATOM     22  C   UNL     1     -45.479  83.277   2.587  0.00  0.00    +0.000 A 
ATOM     23  C   UNL     1     -49.065  80.155   4.280  0.00  0.00    +0.000 A 
ATOM     24  C   UNL     1     -47.918  79.376   4.199  0.00  0.00    +0.000 A 
BRANCH  22  25
ATOM     25  O   UNL     1     -44.364  83.944   2.152  0.00  0.00    +0.000 OA
ATOM     26  H   UNL     1     -44.134  84.608   2.828  0.00  0.00    +0.000 HD
ENDBRANCH  22  25
ENDBRANCH  14  15
ENDBRANCH   1  14
TORSDOF 5
ENDMDL
MODEL 7
REMARK VINA RESULT:      -5.6     12.958     16.090
REMARK  Name = IPA3.pdbqt.pdb
REMARK  5 active torsions:
REMARK  status: ('A' for Active; 'I' for Inactive)
REMARK    1  A    between atoms: S_1  and  S_2
REMARK    2  A    between atoms: S_1  and  C_15
REMARK    3  A    between atoms: S_2  and  C_3
REMARK    4  A    between atoms: C_10  and  O_13
REMARK    5  A    between atoms: C_22  and  O_25
REMARK                            x       y       z     vdW  Elec       q    Type
REMARK                         _______ _______ _______ _____ _____    ______ ____
ROOT
ATOM      1  S   UNL     1     -21.971 102.583   6.233  0.00  0.00    +0.000 S 
ENDROOT
BRANCH   1   2
ATOM      2  C   UNL     1     -21.526 101.203   7.297  0.00  0.00    +0.000 A 
ATOM      3  C   UNL     1     -20.588 100.229   6.878  0.00  0.00    +0.000 A 
ATOM      4  C   UNL     1     -20.250  99.178   7.764  0.00  0.00    +0.000 A 
ATOM      5  C   UNL     1     -19.953 100.250   5.624  0.00  0.00    +0.000 A 
ATOM      6  C   UNL     1     -20.843  99.094   9.021  0.00  0.00    +0.000 A 
ATOM      7  C   UNL     1     -19.312  98.214   7.395  0.00  0.00    +0.000 A 
ATOM      8  C   UNL     1     -21.776 100.042   9.423  0.00  0.00    +0.000 A 
ATOM      9  C   UNL     1     -22.111 101.087   8.568  0.00  0.00    +0.000 A 
ATOM     10  C   UNL     1     -18.695  98.268   6.148  0.00  0.00    +0.000 A 
ATOM     11  C   UNL     1     -19.016  99.285   5.260  0.00  0.00    +0.000 A 
BRANCH   9  12
ATOM     12  O   UNL     1     -23.029 101.989   9.038  0.00  0.00    +0.000 OA
ATOM     13  H   UNL     1     -23.910 101.697   8.741  0.00  0.00    +0.000 HD
ENDBRANCH   9  12
ENDBRANCH   1   2
BRANCH   1  14
ATOM     14  S   UNL     1     -23.938 102.153   5.796  0.00  0.00    +0.000 S 
BRANCH  14  15
ATOM     15  C   UNL     1     -23.923 102.167   3.998  0.00  0.00    +0.000 A 
ATOM     16  C   UNL     1     -24.432 103.270   3.270  0.00  0.00    +0.000 A 
ATOM     17  C   UNL     1     -24.372 103.245   1.857  0.00  0.00    +0.000 A 
ATOM     18  C   UNL     1     -24.989 104.411   3.876  0.00  0.00    +0.000 A 
ATOM     19  C   UNL     1     -23.837 102.145   1.192  0.00  0.00    +0.000 A 
ATOM     20  C   UNL     1     -24.842 104.323   1.108  0.00  0.00    +0.000 A 
ATOM     21  C   UNL     1     -23.353 101.056   1.907  0.00  0.00    +0.000 A 
ATOM     22  C   UNL     1     -23.395 101.071   3.296  0.00  0.00    +0.000 A 
ATOM     23  C   UNL     1     -25.379 105.443   1.738  0.00  0.00    +0.000 A 
ATOM     24  C   UNL     1     -25.455 105.486   3.125  0.00  0.00    +0.000 A 
BRANCH  22  25
ATOM     25  O   UNL     1     -22.891  99.967   3.932  0.00  0.00    +0.000 OA
ATOM     26  H   UNL     1     -22.063 100.232   4.373  0.00  0.00    +0.000 HD
ENDBRANCH  22  25
ENDBRANCH  14  15
ENDBRANCH   1  14
TORSDOF 5
ENDMDL
MODEL 8
REMARK VINA RESULT:      -5.5     13.558     16.167
REMARK  Name = IPA3.pdbqt.pdb
REMARK  5 active torsions:
REMARK  status: ('A' for Active; 'I' for Inactive)
REMARK    1  A    between atoms: S_1  and  S_2
REMARK    2  A    between atoms: S_1  and  C_15
REMARK    3  A    between atoms: S_2  and  C_3
REMARK    4  A    between atoms: C_10  and  O_13
REMARK    5  A    between atoms: C_22  and  O_25
REMARK                            x       y       z     vdW  Elec       q    Type
REMARK                         _______ _______ _______ _____ _____    ______ ____
ROOT
ATOM      1  S   UNL     1     -40.204 106.205   4.899  0.00  0.00    +0.000 S 
ENDROOT
BRANCH   1   2
ATOM      2  C   UNL     1     -39.086 105.992   3.505  0.00  0.00    +0.000 A 
ATOM      3  C   UNL     1     -38.373 104.783   3.318  0.00  0.00    +0.000 A 
ATOM      4  C   UNL     1     -37.528 104.654   2.190  0.00  0.00    +0.000 A 
ATOM      5  C   UNL     1     -38.465 103.683   4.188  0.00  0.00    +0.000 A 
ATOM      6  C   UNL     1     -37.386 105.706   1.289  0.00  0.00    +0.000 A 
ATOM      7  C   UNL     1     -36.829 103.470   1.960  0.00  0.00    +0.000 A 
ATOM      8  C   UNL     1     -38.074 106.897   1.484  0.00  0.00    +0.000 A 
ATOM      9  C   UNL     1     -38.917 107.036   2.582  0.00  0.00    +0.000 A 
ATOM     10  C   UNL     1     -36.948 102.396   2.837  0.00  0.00    +0.000 A 
ATOM     11  C   UNL     1     -37.766 102.501   3.953  0.00  0.00    +0.000 A 
BRANCH   9  12
ATOM     12  O   UNL     1     -39.570 108.234   2.703  0.00  0.00    +0.000 OA
ATOM     13  H   UNL     1     -38.975 108.931   2.371  0.00  0.00    +0.000 HD
ENDBRANCH   9  12
ENDBRANCH   1   2
BRANCH   1  14
ATOM     14  S   UNL     1     -42.031 105.812   4.032  0.00  0.00    +0.000 S 
BRANCH  14  15
ATOM     15  C   UNL     1     -41.904 104.049   3.700  0.00  0.00    +0.000 A 
ATOM     16  C   UNL     1     -41.569 103.569   2.411  0.00  0.00    +0.000 A 
ATOM     17  C   UNL     1     -41.454 102.174   2.208  0.00  0.00    +0.000 A 
ATOM     18  C   UNL     1     -41.327 104.407   1.308  0.00  0.00    +0.000 A 
ATOM     19  C   UNL     1     -41.685 101.286   3.255  0.00  0.00    +0.000 A 
ATOM     20  C   UNL     1     -41.103 101.665   0.958  0.00  0.00    +0.000 A 
ATOM     21  C   UNL     1     -42.030 101.758   4.516  0.00  0.00    +0.000 A 
ATOM     22  C   UNL     1     -42.136 103.127   4.734  0.00  0.00    +0.000 A 
ATOM     23  C   UNL     1     -40.860 102.523  -0.112  0.00  0.00    +0.000 A 
ATOM     24  C   UNL     1     -40.974 103.896   0.062  0.00  0.00    +0.000 A 
BRANCH  22  25
ATOM     25  O   UNL     1     -42.470 103.517   6.004  0.00  0.00    +0.000 OA
ATOM     26  H   UNL     1     -42.476 104.492   6.021  0.00  0.00    +0.000 HD
ENDBRANCH  22  25
ENDBRANCH  14  15
ENDBRANCH   1  14
TORSDOF 5
ENDMDL
MODEL 9
REMARK VINA RESULT:      -5.5     10.509     12.321
REMARK  Name = IPA3.pdbqt.pdb
REMARK  5 active torsions:
REMARK  status: ('A' for Active; 'I' for Inactive)
REMARK    1  A    between atoms: S_1  and  S_2
REMARK    2  A    between atoms: S_1  and  C_15
REMARK    3  A    between atoms: S_2  and  C_3
REMARK    4  A    between atoms: C_10  and  O_13
REMARK    5  A    between atoms: C_22  and  O_25
REMARK                            x       y       z     vdW  Elec       q    Type
REMARK                         _______ _______ _______ _____ _____    ______ ____
ROOT
ATOM      1  S   UNL     1     -29.843  88.888  18.472  0.00  0.00    +0.000 S 
ENDROOT
BRANCH   1   2
ATOM      2  C   UNL     1     -30.775  90.317  19.042  0.00  0.00    +0.000 A 
ATOM      3  C   UNL     1     -31.944  90.163  19.827  0.00  0.00    +0.000 A 
ATOM      4  C   UNL     1     -32.625  91.319  20.274  0.00  0.00    +0.000 A 
ATOM      5  C   UNL     1     -32.466  88.914  20.206  0.00  0.00    +0.000 A 
ATOM      6  C   UNL     1     -32.165  92.589  19.933  0.00  0.00    +0.000 A 
ATOM      7  C   UNL     1     -33.765  91.206  21.069  0.00  0.00    +0.000 A 
ATOM      8  C   UNL     1     -31.028  92.737  19.149  0.00  0.00    +0.000 A 
ATOM      9  C   UNL     1     -30.340  91.610  18.710  0.00  0.00    +0.000 A 
ATOM     10  C   UNL     1     -34.253  89.955  21.434  0.00  0.00    +0.000 A 
ATOM     11  C   UNL     1     -33.604  88.806  21.001  0.00  0.00    +0.000 A 
BRANCH   9  12
ATOM     12  O   UNL     1     -29.223  91.836  17.949  0.00  0.00    +0.000 OA
ATOM     13  H   UNL     1     -29.469  91.707  17.015  0.00  0.00    +0.000 HD
ENDBRANCH   9  12
ENDBRANCH   1   2
BRANCH   1  14
ATOM     14  S   UNL     1     -30.653  88.582  16.602  0.00  0.00    +0.000 S 
BRANCH  14  15
ATOM     15  C   UNL     1     -29.185  88.246  15.620  0.00  0.00    +0.000 A 
ATOM     16  C   UNL     1     -28.805  86.920  15.301  0.00  0.00    +0.000 A 
ATOM     17  C   UNL     1     -27.657  86.709  14.502  0.00  0.00    +0.000 A 
ATOM     18  C   UNL     1     -29.517  85.784  15.727  0.00  0.00    +0.000 A 
ATOM     19  C   UNL     1     -26.903  87.788  14.050  0.00  0.00    +0.000 A 
ATOM     20  C   UNL     1     -27.266  85.418  14.149  0.00  0.00    +0.000 A 
ATOM     21  C   UNL     1     -27.268  89.089  14.376  0.00  0.00    +0.000 A 
ATOM     22  C   UNL     1     -28.400  89.313  15.153  0.00  0.00    +0.000 A 
ATOM     23  C   UNL     1     -27.998  84.314  14.578  0.00  0.00    +0.000 A 
ATOM     24  C   UNL     1     -29.124  84.497  15.371  0.00  0.00    +0.000 A 
BRANCH  22  25
ATOM     25  O   UNL     1     -28.702  90.621  15.425  0.00  0.00    +0.000 OA
ATOM     26  H   UNL     1     -28.152  91.179  14.845  0.00  0.00    +0.000 HD
ENDBRANCH  22  25
ENDBRANCH  14  15
ENDBRANCH   1  14
TORSDOF 5
ENDMDL
