MODEL 1
REMARK VINA RESULT:      -7.3      0.000      0.000
REMARK  Name = 
REMARK  8 active torsions:
REMARK  status: ('A' for Active; 'I' for Inactive)
REMARK    1  A    between atoms: O_1  and  C_21
REMARK    2  A    between atoms: O_1  and  C_38
REMARK    3  A    between atoms: O_4  and  C_26
REMARK    4  A    between atoms: N_7  and  C_11
REMARK    5  A    between atoms: C_26  and  C_33
REMARK    6  A    between atoms: C_29  and  C_37
REMARK    7  A    between atoms: C_33  and  C_42
REMARK    8  A    between atoms: C_37  and  C_43
REMARK                            x       y       z     vdW  Elec       q    Type
REMARK                         _______ _______ _______ _____ _____    ______ ____
ROOT
ATOM      1  O   UNL     1     -49.568 100.171   3.891  0.00  0.00    +0.000 OA
ATOM      2  O   UNL     1     -46.564 100.184   0.937  0.00  0.00    +0.000 OA
ATOM      3  O   UNL     1     -49.807  99.934   6.112  0.00  0.00    +0.000 OA
ATOM      4  N   UNL     1     -44.992 100.956   2.420  0.00  0.00    +0.000 N 
ATOM      5  N   UNL     1     -42.527 102.208   4.705  0.00  0.00    +0.000 NA
ATOM      6  C   UNL     1     -44.654 101.435   3.670  0.00  0.00    +0.000 A 
ATOM      7  C   UNL     1     -42.717 101.401   2.421  0.00  0.00    +0.000 A 
ATOM      8  C   UNL     1     -43.822 100.892   1.541  0.00  0.00    +0.000 C 
ATOM      9  C   UNL     1     -46.955 101.206   4.347  0.00  0.00    +0.000 A 
ATOM     10  C   UNL     1     -48.017 101.397   5.401  0.00  0.00    +0.000 C 
ATOM     11  C   UNL     1     -43.223 101.719   3.676  0.00  0.00    +0.000 A 
ATOM     12  C   UNL     1     -47.292 100.738   3.129  0.00  0.00    +0.000 A 
ATOM     13  C   UNL     1     -41.366 101.588   2.168  0.00  0.00    +0.000 A 
ATOM     14  C   UNL     1     -45.572 101.573   4.631  0.00  0.00    +0.000 A 
ATOM     15  C   UNL     1     -46.261 100.592   2.053  0.00  0.00    +0.000 A 
ATOM     16  C   UNL     1     -40.579 102.123   3.229  0.00  0.00    +0.000 A 
ATOM     17  C   UNL     1     -48.685 100.359   2.765  0.00  0.00    +0.000 C 
ATOM     18  C   UNL     1     -41.220 102.409   4.478  0.00  0.00    +0.000 A 
ATOM     19  C   UNL     1     -49.191 100.420   5.163  0.00  0.00    +0.000 C 
ATOM     20  C   UNL     1     -38.485 102.923   4.186  0.00  0.00    +0.000 A 
ATOM     21  C   UNL     1     -39.197 102.387   3.114  0.00  0.00    +0.000 A 
ATOM     22  C   UNL     1     -40.466 102.922   5.526  0.00  0.00    +0.000 A 
ATOM     23  C   UNL     1     -39.100 103.177   5.400  0.00  0.00    +0.000 A 
ENDROOT
BRANCH  10  24
ATOM     24  O   UNL     1     -47.447 101.113   6.686  0.00  0.00    +0.000 OA
ATOM     25  H   UNL     1     -47.219 100.162   6.680  0.00  0.00    +0.000 HD
ENDBRANCH  10  24
BRANCH  10  26
ATOM     26  C   UNL     1     -48.533 102.852   5.392  0.00  0.00    +0.000 C 
ATOM     27  C   UNL     1     -48.929 103.392   6.763  0.00  0.00    +0.000 C 
ENDBRANCH  10  26
BRANCH  13  28
ATOM     28  C   UNL     1     -40.805 101.260   0.806  0.00  0.00    +0.000 C 
ATOM     29  C   UNL     1     -41.068 102.366  -0.205  0.00  0.00    +0.000 C 
ENDBRANCH  13  28
BRANCH  20  30
ATOM     30  O   UNL     1     -37.112 103.132   4.054  0.00  0.00    +0.000 OA
BRANCH  30  38
ATOM     31  O   UNL     1     -36.679 105.219   4.959  0.00  0.00    +0.000 OA
ATOM     32  N   UNL     1     -36.487 104.888   2.688  0.00  0.00    +0.000 N 
ATOM     33  C   UNL     1     -36.909 106.054   0.038  0.00  0.00    +0.000 C 
ATOM     34  C   UNL     1     -37.352 104.616   0.406  0.00  0.00    +0.000 C 
ATOM     35  C   UNL     1     -36.872 106.900   1.336  0.00  0.00    +0.000 C 
ATOM     36  C   UNL     1     -36.513 104.013   1.529  0.00  0.00    +0.000 C 
ATOM     37  C   UNL     1     -36.043 106.245   2.436  0.00  0.00    +0.000 C 
ATOM     38  C   UNL     1     -36.751 104.474   3.986  0.00  0.00    +0.000 C 
BRANCH  33  39
ATOM     39  N   UNL     1     -37.796 106.667  -1.000  0.00  0.00    +0.000 NA
ATOM     40  C   UNL     1     -37.172 106.654  -2.341  0.00  0.00    +0.000 C 
ATOM     41  C   UNL     1     -39.122 106.018  -1.057  0.00  0.00    +0.000 C 
ATOM     42  C   UNL     1     -38.051 107.305  -3.412  0.00  0.00    +0.000 C 
ATOM     43  C   UNL     1     -40.051 106.651  -2.096  0.00  0.00    +0.000 C 
ATOM     44  C   UNL     1     -39.422 106.653  -3.478  0.00  0.00    +0.000 C 
ENDBRANCH  33  39
ENDBRANCH  30  38
ENDBRANCH  20  30
TORSDOF 6
ENDMDL
MODEL 2
REMARK VINA RESULT:      -7.0     23.227     24.509
REMARK  Name = 
REMARK  8 active torsions:
REMARK  status: ('A' for Active; 'I' for Inactive)
REMARK    1  A    between atoms: O_1  and  C_21
REMARK    2  A    between atoms: O_1  and  C_38
REMARK    3  A    between atoms: O_4  and  C_26
REMARK    4  A    between atoms: N_7  and  C_11
REMARK    5  A    between atoms: C_26  and  C_33
REMARK    6  A    between atoms: C_29  and  C_37
REMARK    7  A    between atoms: C_33  and  C_42
REMARK    8  A    between atoms: C_37  and  C_43
REMARK                            x       y       z     vdW  Elec       q    Type
REMARK                         _______ _______ _______ _____ _____    ______ ____
ROOT
ATOM      1  O   UNL     1     -47.686  84.335  17.511  0.00  0.00    +0.000 OA
ATOM      2  O   UNL     1     -44.155  85.800  19.282  0.00  0.00    +0.000 OA
ATOM      3  O   UNL     1     -48.417  83.471  15.570  0.00  0.00    +0.000 OA
ATOM      4  N   UNL     1     -42.840  84.441  17.981  0.00  0.00    +0.000 N 
ATOM      5  N   UNL     1     -40.763  82.293  15.997  0.00  0.00    +0.000 NA
ATOM      6  C   UNL     1     -42.710  83.428  17.054  0.00  0.00    +0.000 A 
ATOM      7  C   UNL     1     -40.577  84.094  17.617  0.00  0.00    +0.000 A 
ATOM      8  C   UNL     1     -41.531  84.942  18.409  0.00  0.00    +0.000 C 
ATOM      9  C   UNL     1     -45.111  83.258  16.947  0.00  0.00    +0.000 A 
ATOM     10  C   UNL     1     -46.335  82.564  16.403  0.00  0.00    +0.000 C 
ATOM     11  C   UNL     1     -41.288  83.203  16.822  0.00  0.00    +0.000 A 
ATOM     12  C   UNL     1     -45.246  84.247  17.852  0.00  0.00    +0.000 A 
ATOM     13  C   UNL     1     -39.190  84.078  17.581  0.00  0.00    +0.000 A 
ATOM     14  C   UNL     1     -43.782  82.826  16.529  0.00  0.00    +0.000 A 
ATOM     15  C   UNL     1     -44.041  84.912  18.443  0.00  0.00    +0.000 A 
ATOM     16  C   UNL     1     -38.579  83.114  16.728  0.00  0.00    +0.000 A 
ATOM     17  C   UNL     1     -46.569  84.727  18.335  0.00  0.00    +0.000 C 
ATOM     18  C   UNL     1     -39.423  82.251  15.957  0.00  0.00    +0.000 A 
ATOM     19  C   UNL     1     -47.554  83.512  16.449  0.00  0.00    +0.000 C 
ATOM     20  C   UNL     1     -36.644  81.994  15.759  0.00  0.00    +0.000 A 
ATOM     21  C   UNL     1     -37.180  82.965  16.602  0.00  0.00    +0.000 A 
ATOM     22  C   UNL     1     -38.843  81.312  15.112  0.00  0.00    +0.000 A 
ATOM     23  C   UNL     1     -37.459  81.176  14.996  0.00  0.00    +0.000 A 
ENDROOT
BRANCH  10  24
ATOM     24  O   UNL     1     -46.092  82.206  15.035  0.00  0.00    +0.000 OA
ATOM     25  H   UNL     1     -46.971  82.089  14.623  0.00  0.00    +0.000 HD
ENDBRANCH  10  24
BRANCH  10  26
ATOM     26  C   UNL     1     -46.634  81.283  17.211  0.00  0.00    +0.000 C 
ATOM     27  C   UNL     1     -46.273  79.984  16.494  0.00  0.00    +0.000 C 
ENDBRANCH  10  26
BRANCH  13  28
ATOM     28  C   UNL     1     -38.406  85.031  18.450  0.00  0.00    +0.000 C 
ATOM     29  C   UNL     1     -38.098  86.338  17.734  0.00  0.00    +0.000 C 
ENDBRANCH  13  28
BRANCH  20  30
ATOM     30  O   UNL     1     -35.258  81.901  15.624  0.00  0.00    +0.000 OA
BRANCH  30  38
ATOM     31  O   UNL     1     -34.581  81.180  17.719  0.00  0.00    +0.000 OA
ATOM     32  N   UNL     1     -33.858  83.213  16.913  0.00  0.00    +0.000 N 
ATOM     33  C   UNL     1     -33.223  85.987  17.591  0.00  0.00    +0.000 C 
ATOM     34  C   UNL     1     -34.098  85.596  16.373  0.00  0.00    +0.000 C 
ATOM     35  C   UNL     1     -33.335  84.864  18.652  0.00  0.00    +0.000 C 
ATOM     36  C   UNL     1     -33.782  84.198  15.848  0.00  0.00    +0.000 C 
ATOM     37  C   UNL     1     -33.035  83.484  18.075  0.00  0.00    +0.000 C 
ATOM     38  C   UNL     1     -34.567  82.023  16.826  0.00  0.00    +0.000 C 
BRANCH  33  39
ATOM     39  N   UNL     1     -33.604  87.322  18.151  0.00  0.00    +0.000 NA
ATOM     40  C   UNL     1     -34.738  87.225  19.095  0.00  0.00    +0.000 C 
ATOM     41  C   UNL     1     -32.465  88.001  18.802  0.00  0.00    +0.000 C 
ATOM     42  C   UNL     1     -35.163  88.584  19.656  0.00  0.00    +0.000 C 
ATOM     43  C   UNL     1     -32.832  89.379  19.357  0.00  0.00    +0.000 C 
ATOM     44  C   UNL     1     -34.001  89.298  20.324  0.00  0.00    +0.000 C 
ENDBRANCH  33  39
ENDBRANCH  30  38
ENDBRANCH  20  30
TORSDOF 6
ENDMDL
MODEL 3
REMARK VINA RESULT:      -7.0      7.494     15.539
REMARK  Name = 
REMARK  8 active torsions:
REMARK  status: ('A' for Active; 'I' for Inactive)
REMARK    1  A    between atoms: O_1  and  C_21
REMARK    2  A    between atoms: O_1  and  C_38
REMARK    3  A    between atoms: O_4  and  C_26
REMARK    4  A    between atoms: N_7  and  C_11
REMARK    5  A    between atoms: C_26  and  C_33
REMARK    6  A    between atoms: C_29  and  C_37
REMARK    7  A    between atoms: C_33  and  C_42
REMARK    8  A    between atoms: C_37  and  C_43
REMARK                            x       y       z     vdW  Elec       q    Type
REMARK                         _______ _______ _______ _____ _____    ______ ____
ROOT
ATOM      1  O   UNL     1     -46.230 102.911   1.360  0.00  0.00    +0.000 OA
ATOM      2  O   UNL     1     -47.856  99.932  -1.136  0.00  0.00    +0.000 OA
ATOM      3  O   UNL     1     -46.503 103.786   3.412  0.00  0.00    +0.000 OA
ATOM      4  N   UNL     1     -48.482  98.649   0.662  0.00  0.00    +0.000 N 
ATOM      5  N   UNL     1     -49.427  96.602   3.451  0.00  0.00    +0.000 NA
ATOM      6  C   UNL     1     -48.489  98.410   2.021  0.00  0.00    +0.000 A 
ATOM      7  C   UNL     1     -49.643  96.678   1.032  0.00  0.00    +0.000 A 
ATOM      8  C   UNL     1     -49.197  97.598  -0.067  0.00  0.00    +0.000 C 
ATOM      9  C   UNL     1     -47.226 100.435   2.354  0.00  0.00    +0.000 A 
ATOM     10  C   UNL     1     -46.506 101.369   3.294  0.00  0.00    +0.000 C 
ATOM     11  C   UNL     1     -49.217  97.169   2.260  0.00  0.00    +0.000 A 
ATOM     12  C   UNL     1     -47.215 100.674   1.028  0.00  0.00    +0.000 A 
ATOM     13  C   UNL     1     -50.362  95.492   0.989  0.00  0.00    +0.000 A 
ATOM     14  C   UNL     1     -47.892  99.247   2.875  0.00  0.00    +0.000 A 
ATOM     15  C   UNL     1     -47.878  99.730   0.073  0.00  0.00    +0.000 A 
ATOM     16  C   UNL     1     -50.601  94.837   2.232  0.00  0.00    +0.000 A 
ATOM     17  C   UNL     1     -46.542 101.857   0.425  0.00  0.00    +0.000 C 
ATOM     18  C   UNL     1     -50.109  95.447   3.432  0.00  0.00    +0.000 A 
ATOM     19  C   UNL     1     -46.437 102.790   2.689  0.00  0.00    +0.000 C 
ATOM     20  C   UNL     1     -51.488  93.017   3.589  0.00  0.00    +0.000 A 
ATOM     21  C   UNL     1     -51.299  93.614   2.344  0.00  0.00    +0.000 A 
ATOM     22  C   UNL     1     -50.341  94.826   4.653  0.00  0.00    +0.000 A 
ATOM     23  C   UNL     1     -51.033  93.619   4.750  0.00  0.00    +0.000 A 
ENDROOT
BRANCH  10  24
ATOM     24  O   UNL     1     -47.239 101.438   4.525  0.00  0.00    +0.000 OA
ATOM     25  H   UNL     1     -47.769 102.259   4.482  0.00  0.00    +0.000 HD
ENDBRANCH  10  24
BRANCH  10  26
ATOM     26  C   UNL     1     -45.082 100.851   3.586  0.00  0.00    +0.000 C 
ATOM     27  C   UNL     1     -44.497 101.324   4.914  0.00  0.00    +0.000 C 
ENDBRANCH  10  26
BRANCH  13  28
ATOM     28  C   UNL     1     -50.820  94.940  -0.339  0.00  0.00    +0.000 C 
ATOM     29  C   UNL     1     -52.180  95.485  -0.749  0.00  0.00    +0.000 C 
ENDBRANCH  13  28
BRANCH  20  30
ATOM     30  O   UNL     1     -52.219  91.831   3.670  0.00  0.00    +0.000 OA
BRANCH  30  38
ATOM     31  O   UNL     1     -54.318  92.694   3.208  0.00  0.00    +0.000 OA
ATOM     32  N   UNL     1     -54.001  91.373   5.068  0.00  0.00    +0.000 N 
ATOM     33  C   UNL     1     -54.724  90.942   7.870  0.00  0.00    +0.000 C 
ATOM     34  C   UNL     1     -53.260  90.918   7.364  0.00  0.00    +0.000 C 
ATOM     35  C   UNL     1     -55.557  91.830   6.911  0.00  0.00    +0.000 C 
ATOM     36  C   UNL     1     -53.154  90.529   5.893  0.00  0.00    +0.000 C 
ATOM     37  C   UNL     1     -55.399  91.419   5.451  0.00  0.00    +0.000 C 
ATOM     38  C   UNL     1     -53.575  92.022   3.919  0.00  0.00    +0.000 C 
BRANCH  33  39
ATOM     39  N   UNL     1     -54.822  91.412   9.289  0.00  0.00    +0.000 NA
ATOM     40  C   UNL     1     -53.492  91.678   9.878  0.00  0.00    +0.000 C 
ATOM     41  C   UNL     1     -55.679  92.608   9.423  0.00  0.00    +0.000 C 
ATOM     42  C   UNL     1     -53.568  92.130  11.338  0.00  0.00    +0.000 C 
ATOM     43  C   UNL     1     -55.810  93.085  10.872  0.00  0.00    +0.000 C 
ATOM     44  C   UNL     1     -54.452  93.355  11.495  0.00  0.00    +0.000 C 
ENDBRANCH  33  39
ENDBRANCH  30  38
ENDBRANCH  20  30
TORSDOF 6
ENDMDL
MODEL 4
REMARK VINA RESULT:      -6.9     11.219     13.985
REMARK  Name = 
REMARK  8 active torsions:
REMARK  status: ('A' for Active; 'I' for Inactive)
REMARK    1  A    between atoms: O_1  and  C_21
REMARK    2  A    between atoms: O_1  and  C_38
REMARK    3  A    between atoms: O_4  and  C_26
REMARK    4  A    between atoms: N_7  and  C_11
REMARK    5  A    between atoms: C_26  and  C_33
REMARK    6  A    between atoms: C_29  and  C_37
REMARK    7  A    between atoms: C_33  and  C_42
REMARK    8  A    between atoms: C_37  and  C_43
REMARK                            x       y       z     vdW  Elec       q    Type
REMARK                         _______ _______ _______ _____ _____    ______ ____
ROOT
ATOM      1  O   UNL     1     -46.626 104.744  13.460  0.00  0.00    +0.000 OA
ATOM      2  O   UNL     1     -43.128 106.092  15.383  0.00  0.00    +0.000 OA
ATOM      3  O   UNL     1     -47.266 103.631  11.615  0.00  0.00    +0.000 OA
ATOM      4  N   UNL     1     -41.883 104.377  14.501  0.00  0.00    +0.000 N 
ATOM      5  N   UNL     1     -39.924 101.680  13.178  0.00  0.00    +0.000 NA
ATOM      6  C   UNL     1     -41.797 103.204  13.780  0.00  0.00    +0.000 A 
ATOM      7  C   UNL     1     -39.663 103.712  14.484  0.00  0.00    +0.000 A 
ATOM      8  C   UNL     1     -40.568 104.794  14.998  0.00  0.00    +0.000 C 
ATOM      9  C   UNL     1     -44.176 103.294  13.407  0.00  0.00    +0.000 A 
ATOM     10  C   UNL     1     -45.420 102.658  12.840  0.00  0.00    +0.000 C 
ATOM     11  C   UNL     1     -40.402 102.779  13.767  0.00  0.00    +0.000 A 
ATOM     12  C   UNL     1     -44.267 104.440  14.110  0.00  0.00    +0.000 A 
ATOM     13  C   UNL     1     -38.294 103.530  14.623  0.00  0.00    +0.000 A 
ATOM     14  C   UNL     1     -42.881 102.644  13.235  0.00  0.00    +0.000 A 
ATOM     15  C   UNL     1     -43.050 105.059  14.726  0.00  0.00    +0.000 A 
ATOM     16  C   UNL     1     -37.734 102.364  14.025  0.00  0.00    +0.000 A 
ATOM     17  C   UNL     1     -45.556 105.149  14.338  0.00  0.00    +0.000 C 
ATOM     18  C   UNL     1     -38.604 101.478  13.311  0.00  0.00    +0.000 A 
ATOM     19  C   UNL     1     -46.499 103.732  12.574  0.00  0.00    +0.000 C 
ATOM     20  C   UNL     1     -35.879 100.872  13.505  0.00  0.00    +0.000 A 
ATOM     21  C   UNL     1     -36.363 102.035  14.101  0.00  0.00    +0.000 A 
ATOM     22  C   UNL     1     -38.073 100.341  12.715  0.00  0.00    +0.000 A 
ATOM     23  C   UNL     1     -36.716 100.028  12.795  0.00  0.00    +0.000 A 
ENDROOT
BRANCH  10  24
ATOM     24  O   UNL     1     -45.090 102.032  11.592  0.00  0.00    +0.000 OA
ATOM     25  H   UNL     1     -44.885 101.098  11.801  0.00  0.00    +0.000 HD
ENDBRANCH  10  24
BRANCH  10  26
ATOM     26  C   UNL     1     -45.969 101.588  13.807  0.00  0.00    +0.000 C 
ATOM     27  C   UNL     1     -47.483 101.402  13.752  0.00  0.00    +0.000 C 
ENDBRANCH  10  26
BRANCH  13  28
ATOM     28  C   UNL     1     -37.481 104.529  15.410  0.00  0.00    +0.000 C 
ATOM     29  C   UNL     1     -36.993 105.682  14.544  0.00  0.00    +0.000 C 
ENDBRANCH  13  28
BRANCH  20  30
ATOM     30  O   UNL     1     -34.512 100.597  13.561  0.00  0.00    +0.000 OA
BRANCH  30  38
ATOM     31  O   UNL     1     -34.962  99.123  15.290  0.00  0.00    +0.000 OA
ATOM     32  N   UNL     1     -32.782  99.590  14.714  0.00  0.00    +0.000 N 
ATOM     33  C   UNL     1     -30.067 100.032  15.711  0.00  0.00    +0.000 C 
ATOM     34  C   UNL     1     -30.744 100.960  14.671  0.00  0.00    +0.000 C 
ATOM     35  C   UNL     1     -31.176  99.355  16.555  0.00  0.00    +0.000 C 
ATOM     36  C   UNL     1     -31.811 100.240  13.850  0.00  0.00    +0.000 C 
ATOM     37  C   UNL     1     -32.231  98.671  15.691  0.00  0.00    +0.000 C 
ATOM     38  C   UNL     1     -34.156  99.718  14.579  0.00  0.00    +0.000 C 
BRANCH  33  39
ATOM     39  N   UNL     1     -29.087 100.771  16.569  0.00  0.00    +0.000 NA
ATOM     40  C   UNL     1     -28.219 101.667  15.776  0.00  0.00    +0.000 C 
ATOM     41  C   UNL     1     -29.752 101.538  17.643  0.00  0.00    +0.000 C 
ATOM     42  C   UNL     1     -27.190 102.409  16.632  0.00  0.00    +0.000 C 
ATOM     43  C   UNL     1     -28.762 102.277  18.546  0.00  0.00    +0.000 C 
ATOM     44  C   UNL     1     -27.857 103.197  17.746  0.00  0.00    +0.000 C 
ENDBRANCH  33  39
ENDBRANCH  30  38
ENDBRANCH  20  30
TORSDOF 6
ENDMDL
MODEL 5
REMARK VINA RESULT:      -6.4      4.296      6.349
REMARK  Name = 
REMARK  8 active torsions:
REMARK  status: ('A' for Active; 'I' for Inactive)
REMARK    1  A    between atoms: O_1  and  C_21
REMARK    2  A    between atoms: O_1  and  C_38
REMARK    3  A    between atoms: O_4  and  C_26
REMARK    4  A    between atoms: N_7  and  C_11
REMARK    5  A    between atoms: C_26  and  C_33
REMARK    6  A    between atoms: C_29  and  C_37
REMARK    7  A    between atoms: C_33  and  C_42
REMARK    8  A    between atoms: C_37  and  C_43
REMARK                            x       y       z     vdW  Elec       q    Type
REMARK                         _______ _______ _______ _____ _____    ______ ____
ROOT
ATOM      1  O   UNL     1     -45.799 101.466   4.413  0.00  0.00    +0.000 OA
ATOM      2  O   UNL     1     -41.709 100.568   4.879  0.00  0.00    +0.000 OA
ATOM      3  O   UNL     1     -47.137 103.159   3.783  0.00  0.00    +0.000 OA
ATOM      4  N   UNL     1     -41.111 102.042   3.225  0.00  0.00    +0.000 N 
ATOM      5  N   UNL     1     -40.152 104.303   0.610  0.00  0.00    +0.000 NA
ATOM      6  C   UNL     1     -41.456 102.920   2.217  0.00  0.00    +0.000 A 
ATOM      7  C   UNL     1     -39.154 102.859   2.290  0.00  0.00    +0.000 A 
ATOM      8  C   UNL     1     -39.656 101.930   3.357  0.00  0.00    +0.000 C 
ATOM      9  C   UNL     1     -43.782 102.506   2.692  0.00  0.00    +0.000 A 
ATOM     10  C   UNL     1     -45.232 102.739   2.351  0.00  0.00    +0.000 C 
ATOM     11  C   UNL     1     -40.228 103.436   1.623  0.00  0.00    +0.000 A 
ATOM     12  C   UNL     1     -43.452 101.647   3.677  0.00  0.00    +0.000 A 
ATOM     13  C   UNL     1     -37.861 103.188   1.905  0.00  0.00    +0.000 A 
ATOM     14  C   UNL     1     -42.736 103.172   1.925  0.00  0.00    +0.000 A 
ATOM     15  C   UNL     1     -42.017 101.362   3.996  0.00  0.00    +0.000 A 
ATOM     16  C   UNL     1     -37.724 104.098   0.818  0.00  0.00    +0.000 A 
ATOM     17  C   UNL     1     -44.466 100.921   4.490  0.00  0.00    +0.000 C 
ATOM     18  C   UNL     1     -38.912 104.625   0.213  0.00  0.00    +0.000 A 
ATOM     19  C   UNL     1     -46.122 102.487   3.590  0.00  0.00    +0.000 C 
ATOM     20  C   UNL     1     -36.408 105.394  -0.772  0.00  0.00    +0.000 A 
ATOM     21  C   UNL     1     -36.475 104.510   0.303  0.00  0.00    +0.000 A 
ATOM     22  C   UNL     1     -38.796 105.521  -0.842  0.00  0.00    +0.000 A 
ATOM     23  C   UNL     1     -37.556 105.921  -1.341  0.00  0.00    +0.000 A 
ENDROOT
BRANCH  10  24
ATOM     24  O   UNL     1     -45.396 104.106   1.948  0.00  0.00    +0.000 OA
ATOM     25  H   UNL     1     -46.042 104.098   1.213  0.00  0.00    +0.000 HD
ENDBRANCH  10  24
BRANCH  10  26
ATOM     26  C   UNL     1     -45.670 101.819   1.192  0.00  0.00    +0.000 C 
ATOM     27  C   UNL     1     -45.945 102.544  -0.123  0.00  0.00    +0.000 C 
ENDBRANCH  10  26
BRANCH  13  28
ATOM     28  C   UNL     1     -36.686 102.558   2.612  0.00  0.00    +0.000 C 
ATOM     29  C   UNL     1     -36.226 103.381   3.806  0.00  0.00    +0.000 C 
ENDBRANCH  13  28
BRANCH  20  30
ATOM     30  O   UNL     1     -35.159 105.814  -1.230  0.00  0.00    +0.000 OA
BRANCH  30  38
ATOM     31  O   UNL     1     -34.425 103.770  -2.033  0.00  0.00    +0.000 OA
ATOM     32  N   UNL     1     -34.251 105.652  -3.349  0.00  0.00    +0.000 N 
ATOM     33  C   UNL     1     -32.613 107.082  -5.306  0.00  0.00    +0.000 C 
ATOM     34  C   UNL     1     -33.237 107.770  -4.066  0.00  0.00    +0.000 C 
ATOM     35  C   UNL     1     -32.424 105.578  -4.985  0.00  0.00    +0.000 C 
ATOM     36  C   UNL     1     -34.499 107.066  -3.577  0.00  0.00    +0.000 C 
ATOM     37  C   UNL     1     -33.705 104.924  -4.477  0.00  0.00    +0.000 C 
ATOM     38  C   UNL     1     -34.600 104.975  -2.189  0.00  0.00    +0.000 C 
BRANCH  33  39
ATOM     39  N   UNL     1     -31.328 107.729  -5.721  0.00  0.00    +0.000 NA
ATOM     40  C   UNL     1     -30.240 107.472  -4.753  0.00  0.00    +0.000 C 
ATOM     41  C   UNL     1     -30.905 107.314  -7.075  0.00  0.00    +0.000 C 
ATOM     42  C   UNL     1     -28.925 108.150  -5.144  0.00  0.00    +0.000 C 
ATOM     43  C   UNL     1     -29.606 107.987  -7.524  0.00  0.00    +0.000 C 
ATOM     44  C   UNL     1     -28.479 107.740  -6.537  0.00  0.00    +0.000 C 
ENDBRANCH  33  39
ENDBRANCH  30  38
ENDBRANCH  20  30
TORSDOF 6
ENDMDL
MODEL 6
REMARK VINA RESULT:      -6.3      8.822     16.566
REMARK  Name = 
REMARK  8 active torsions:
REMARK  status: ('A' for Active; 'I' for Inactive)
REMARK    1  A    between atoms: O_1  and  C_21
REMARK    2  A    between atoms: O_1  and  C_38
REMARK    3  A    between atoms: O_4  and  C_26
REMARK    4  A    between atoms: N_7  and  C_11
REMARK    5  A    between atoms: C_26  and  C_33
REMARK    6  A    between atoms: C_29  and  C_37
REMARK    7  A    between atoms: C_33  and  C_42
REMARK    8  A    between atoms: C_37  and  C_43
REMARK                            x       y       z     vdW  Elec       q    Type
REMARK                         _______ _______ _______ _____ _____    ______ ____
ROOT
ATOM      1  O   UNL     1     -46.429 102.690   2.727  0.00  0.00    +0.000 OA
ATOM      2  O   UNL     1     -47.623  99.856  -0.153  0.00  0.00    +0.000 OA
ATOM      3  O   UNL     1     -47.018 103.442   4.761  0.00  0.00    +0.000 OA
ATOM      4  N   UNL     1     -48.495  98.468   1.453  0.00  0.00    +0.000 N 
ATOM      5  N   UNL     1     -49.822  96.256   3.946  0.00  0.00    +0.000 NA
ATOM      6  C   UNL     1     -48.703  98.149   2.779  0.00  0.00    +0.000 A 
ATOM      7  C   UNL     1     -49.673  96.473   1.530  0.00  0.00    +0.000 A 
ATOM      8  C   UNL     1     -49.079  97.458   0.566  0.00  0.00    +0.000 C 
ATOM      9  C   UNL     1     -47.530 100.156   3.415  0.00  0.00    +0.000 A 
ATOM     10  C   UNL     1     -46.973 101.037   4.505  0.00  0.00    +0.000 C 
ATOM     11  C   UNL     1     -49.443  96.893   2.835  0.00  0.00    +0.000 A 
ATOM     12  C   UNL     1     -47.323 100.473   2.122  0.00  0.00    +0.000 A 
ATOM     13  C   UNL     1     -50.362  95.289   1.311  0.00  0.00    +0.000 A 
ATOM     14  C   UNL     1     -48.253  98.937   3.761  0.00  0.00    +0.000 A 
ATOM     15  C   UNL     1     -47.824  99.584   1.026  0.00  0.00    +0.000 A 
ATOM     16  C   UNL     1     -50.777  94.561   2.464  0.00  0.00    +0.000 A 
ATOM     17  C   UNL     1     -46.583 101.692   1.696  0.00  0.00    +0.000 C 
ATOM     18  C   UNL     1     -50.478  95.102   3.757  0.00  0.00    +0.000 A 
ATOM     19  C   UNL     1     -46.832 102.491   4.000  0.00  0.00    +0.000 C 
ATOM     20  C   UNL     1     -51.834  92.662   3.565  0.00  0.00    +0.000 A 
ATOM     21  C   UNL     1     -51.467  93.331   2.399  0.00  0.00    +0.000 A 
ATOM     22  C   UNL     1     -50.883  94.410   4.892  0.00  0.00    +0.000 A 
ATOM     23  C   UNL     1     -51.567  93.196   4.814  0.00  0.00    +0.000 A 
ENDROOT
BRANCH  10  24
ATOM     24  O   UNL     1     -47.883 101.030   5.614  0.00  0.00    +0.000 OA
ATOM     25  H   UNL     1     -48.162 100.100   5.731  0.00  0.00    +0.000 HD
ENDBRANCH  10  24
BRANCH  10  26
ATOM     26  C   UNL     1     -45.602 100.508   4.978  0.00  0.00    +0.000 C 
ATOM     27  C   UNL     1     -44.417 101.389   4.593  0.00  0.00    +0.000 C 
ENDBRANCH  10  26
BRANCH  13  28
ATOM     28  C   UNL     1     -50.608  94.814  -0.100  0.00  0.00    +0.000 C 
ATOM     29  C   UNL     1     -51.898  95.377  -0.679  0.00  0.00    +0.000 C 
ENDBRANCH  13  28
BRANCH  20  30
ATOM     30  O   UNL     1     -52.554  91.470   3.467  0.00  0.00    +0.000 OA
BRANCH  30  38
ATOM     31  O   UNL     1     -54.515  92.664   3.775  0.00  0.00    +0.000 OA
ATOM     32  N   UNL     1     -54.485  90.388   4.131  0.00  0.00    +0.000 N 
ATOM     33  C   UNL     1     -55.484  88.194   5.789  0.00  0.00    +0.000 C 
ATOM     34  C   UNL     1     -53.990  88.350   5.407  0.00  0.00    +0.000 C 
ATOM     35  C   UNL     1     -56.143  89.596   5.758  0.00  0.00    +0.000 C 
ATOM     36  C   UNL     1     -53.795  89.110   4.098  0.00  0.00    +0.000 C 
ATOM     37  C   UNL     1     -55.900  90.326   4.441  0.00  0.00    +0.000 C 
ATOM     38  C   UNL     1     -53.902  91.599   3.787  0.00  0.00    +0.000 C 
BRANCH  33  39
ATOM     39  N   UNL     1     -55.658  87.527   7.117  0.00  0.00    +0.000 NA
ATOM     40  C   UNL     1     -55.021  86.193   7.156  0.00  0.00    +0.000 C 
ATOM     41  C   UNL     1     -55.153  88.357   8.231  0.00  0.00    +0.000 C 
ATOM     42  C   UNL     1     -55.214  85.481   8.497  0.00  0.00    +0.000 C 
ATOM     43  C   UNL     1     -55.348  87.700   9.599  0.00  0.00    +0.000 C 
ATOM     44  C   UNL     1     -54.706  86.325   9.654  0.00  0.00    +0.000 C 
ENDBRANCH  33  39
ENDBRANCH  30  38
ENDBRANCH  20  30
TORSDOF 6
ENDMDL
MODEL 7
REMARK VINA RESULT:      -6.2      6.700     10.963
REMARK  Name = 
REMARK  8 active torsions:
REMARK  status: ('A' for Active; 'I' for Inactive)
REMARK    1  A    between atoms: O_1  and  C_21
REMARK    2  A    between atoms: O_1  and  C_38
REMARK    3  A    between atoms: O_4  and  C_26
REMARK    4  A    between atoms: N_7  and  C_11
REMARK    5  A    between atoms: C_26  and  C_33
REMARK    6  A    between atoms: C_29  and  C_37
REMARK    7  A    between atoms: C_33  and  C_42
REMARK    8  A    between atoms: C_37  and  C_43
REMARK                            x       y       z     vdW  Elec       q    Type
REMARK                         _______ _______ _______ _____ _____    ______ ____
ROOT
ATOM      1  O   UNL     1     -53.179  91.531  -4.188  0.00  0.00    +0.000 OA
ATOM      2  O   UNL     1     -53.336  91.876   0.008  0.00  0.00    +0.000 OA
ATOM      3  O   UNL     1     -52.855  92.796  -6.016  0.00  0.00    +0.000 OA
ATOM      4  N   UNL     1     -51.885  93.655  -0.001  0.00  0.00    +0.000 N 
ATOM      5  N   UNL     1     -49.582  96.404   0.019  0.00  0.00    +0.000 NA
ATOM      6  C   UNL     1     -51.029  94.502  -0.675  0.00  0.00    +0.000 A 
ATOM      7  C   UNL     1     -50.994  95.140   1.539  0.00  0.00    +0.000 A 
ATOM      8  C   UNL     1     -51.938  93.978   1.428  0.00  0.00    +0.000 C 
ATOM      9  C   UNL     1     -51.540  93.341  -2.723  0.00  0.00    +0.000 A 
ATOM     10  C   UNL     1     -51.298  93.159  -4.201  0.00  0.00    +0.000 C 
ATOM     11  C   UNL     1     -50.463  95.438   0.290  0.00  0.00    +0.000 A 
ATOM     12  C   UNL     1     -52.377  92.510  -2.072  0.00  0.00    +0.000 A 
ATOM     13  C   UNL     1     -50.605  95.893   2.638  0.00  0.00    +0.000 A 
ATOM     14  C   UNL     1     -50.831  94.385  -1.991  0.00  0.00    +0.000 A 
ATOM     15  C   UNL     1     -52.590  92.640  -0.595  0.00  0.00    +0.000 A 
ATOM     16  C   UNL     1     -49.654  96.929   2.407  0.00  0.00    +0.000 A 
ATOM     17  C   UNL     1     -53.120  91.414  -2.751  0.00  0.00    +0.000 C 
ATOM     18  C   UNL     1     -49.182  97.137   1.070  0.00  0.00    +0.000 A 
ATOM     19  C   UNL     1     -52.525  92.497  -4.868  0.00  0.00    +0.000 C 
ATOM     20  C   UNL     1     -48.210  98.750   3.139  0.00  0.00    +0.000 A 
ATOM     21  C   UNL     1     -49.150  97.762   3.429  0.00  0.00    +0.000 A 
ATOM     22  C   UNL     1     -48.262  98.148   0.825  0.00  0.00    +0.000 A 
ATOM     23  C   UNL     1     -47.773  98.966   1.843  0.00  0.00    +0.000 A 
ENDROOT
BRANCH  10  24
ATOM     24  O   UNL     1     -51.101  94.449  -4.797  0.00  0.00    +0.000 OA
ATOM     25  H   UNL     1     -51.735  94.506  -5.541  0.00  0.00    +0.000 HD
ENDBRANCH  10  24
BRANCH  10  26
ATOM     26  C   UNL     1     -50.039  92.299  -4.441  0.00  0.00    +0.000 C 
ATOM     27  C   UNL     1     -49.432  92.441  -5.834  0.00  0.00    +0.000 C 
ENDBRANCH  10  26
BRANCH  13  28
ATOM     28  C   UNL     1     -51.164  95.572   4.003  0.00  0.00    +0.000 C 
ATOM     29  C   UNL     1     -50.401  94.446   4.685  0.00  0.00    +0.000 C 
ENDBRANCH  13  28
BRANCH  20  30
ATOM     30  O   UNL     1     -47.764  99.585   4.164  0.00  0.00    +0.000 OA
BRANCH  30  38
ATOM     31  O   UNL     1     -48.603 101.528   3.221  0.00  0.00    +0.000 OA
ATOM     32  N   UNL     1     -46.510 101.526   4.183  0.00  0.00    +0.000 N 
ATOM     33  C   UNL     1     -43.773 102.543   4.001  0.00  0.00    +0.000 C 
ATOM     34  C   UNL     1     -44.102 101.051   4.253  0.00  0.00    +0.000 C 
ATOM     35  C   UNL     1     -44.963 103.184   3.243  0.00  0.00    +0.000 C 
ATOM     36  C   UNL     1     -45.458 100.854   4.926  0.00  0.00    +0.000 C 
ATOM     37  C   UNL     1     -46.298 102.940   3.940  0.00  0.00    +0.000 C 
ATOM     38  C   UNL     1     -47.705 100.930   3.808  0.00  0.00    +0.000 C 
BRANCH  33  39
ATOM     39  N   UNL     1     -42.483 102.717   3.260  0.00  0.00    +0.000 NA
ATOM     40  C   UNL     1     -41.355 102.054   3.948  0.00  0.00    +0.000 C 
ATOM     41  C   UNL     1     -42.572 102.241   1.864  0.00  0.00    +0.000 C 
ATOM     42  C   UNL     1     -40.021 102.247   3.222  0.00  0.00    +0.000 C 
ATOM     43  C   UNL     1     -41.268 102.436   1.086  0.00  0.00    +0.000 C 
ATOM     44  C   UNL     1     -40.097 101.767   1.782  0.00  0.00    +0.000 C 
ENDBRANCH  33  39
ENDBRANCH  30  38
ENDBRANCH  20  30
TORSDOF 6
ENDMDL
MODEL 8
REMARK VINA RESULT:      -6.0     21.560     25.800
REMARK  Name = 
REMARK  8 active torsions:
REMARK  status: ('A' for Active; 'I' for Inactive)
REMARK    1  A    between atoms: O_1  and  C_21
REMARK    2  A    between atoms: O_1  and  C_38
REMARK    3  A    between atoms: O_4  and  C_26
REMARK    4  A    between atoms: N_7  and  C_11
REMARK    5  A    between atoms: C_26  and  C_33
REMARK    6  A    between atoms: C_29  and  C_37
REMARK    7  A    between atoms: C_33  and  C_42
REMARK    8  A    between atoms: C_37  and  C_43
REMARK                            x       y       z     vdW  Elec       q    Type
REMARK                         _______ _______ _______ _____ _____    ______ ____
ROOT
ATOM      1  O   UNL     1     -30.937 101.680  15.394  0.00  0.00    +0.000 OA
ATOM      2  O   UNL     1     -29.519 103.855  18.712  0.00  0.00    +0.000 OA
ATOM      3  O   UNL     1     -30.601  99.727  14.336  0.00  0.00    +0.000 OA
ATOM      4  N   UNL     1     -28.974 101.935  19.844  0.00  0.00    +0.000 N 
ATOM      5  N   UNL     1     -28.159  98.948  21.656  0.00  0.00    +0.000 NA
ATOM      6  C   UNL     1     -28.979 100.558  19.944  0.00  0.00    +0.000 A 
ATOM      7  C   UNL     1     -27.945 101.362  21.840  0.00  0.00    +0.000 A 
ATOM      8  C   UNL     1     -28.332 102.550  21.009  0.00  0.00    +0.000 C 
ATOM      9  C   UNL     1     -30.105 100.437  17.817  0.00  0.00    +0.000 A 
ATOM     10  C   UNL     1     -30.758  99.599  16.747  0.00  0.00    +0.000 C 
ATOM     11  C   UNL     1     -28.334 100.191  21.200  0.00  0.00    +0.000 A 
ATOM     12  C   UNL     1     -30.104 101.780  17.713  0.00  0.00    +0.000 A 
ATOM     13  C   UNL     1     -27.306 101.281  23.069  0.00  0.00    +0.000 A 
ATOM     14  C   UNL     1     -29.517  99.795  18.988  0.00  0.00    +0.000 A 
ATOM     15  C   UNL     1     -29.507 102.631  18.791  0.00  0.00    +0.000 A 
ATOM     16  C   UNL     1     -27.107  99.978  23.609  0.00  0.00    +0.000 A 
ATOM     17  C   UNL     1     -30.699 102.502  16.555  0.00  0.00    +0.000 C 
ATOM     18  C   UNL     1     -27.554  98.848  22.850  0.00  0.00    +0.000 A 
ATOM     19  C   UNL     1     -30.735 100.345  15.393  0.00  0.00    +0.000 C 
ATOM     20  C   UNL     1     -26.338  98.440  25.336  0.00  0.00    +0.000 A 
ATOM     21  C   UNL     1     -26.492  99.740  24.858  0.00  0.00    +0.000 A 
ATOM     22  C   UNL     1     -27.360  97.570  23.357  0.00  0.00    +0.000 A 
ATOM     23  C   UNL     1     -26.749  97.348  24.591  0.00  0.00    +0.000 A 
ENDROOT
BRANCH  10  24
ATOM     24  O   UNL     1     -30.019  98.378  16.602  0.00  0.00    +0.000 OA
ATOM     25  H   UNL     1     -29.590  98.215  17.466  0.00  0.00    +0.000 HD
ENDBRANCH  10  24
BRANCH  10  26
ATOM     26  C   UNL     1     -32.213  99.261  17.137  0.00  0.00    +0.000 C 
ATOM     27  C   UNL     1     -32.877  98.209  16.253  0.00  0.00    +0.000 C 
ENDBRANCH  10  26
BRANCH  13  28
ATOM     28  C   UNL     1     -26.889 102.545  23.782  0.00  0.00    +0.000 C 
ATOM     29  C   UNL     1     -27.975 103.063  24.714  0.00  0.00    +0.000 C 
ENDBRANCH  13  28
BRANCH  20  30
ATOM     30  O   UNL     1     -25.687  98.236  26.553  0.00  0.00    +0.000 OA
BRANCH  30  38
ATOM     31  O   UNL     1     -27.391  97.897  28.086  0.00  0.00    +0.000 OA
ATOM     32  N   UNL     1     -26.051  99.764  28.248  0.00  0.00    +0.000 N 
ATOM     33  C   UNL     1     -25.963 102.619  28.881  0.00  0.00    +0.000 C 
ATOM     34  C   UNL     1     -25.299 102.015  27.618  0.00  0.00    +0.000 C 
ATOM     35  C   UNL     1     -27.134 101.697  29.305  0.00  0.00    +0.000 C 
ATOM     36  C   UNL     1     -24.914 100.550  27.802  0.00  0.00    +0.000 C 
ATOM     37  C   UNL     1     -26.706 100.240  29.452  0.00  0.00    +0.000 C 
ATOM     38  C   UNL     1     -26.455  98.572  27.665  0.00  0.00    +0.000 C 
BRANCH  33  39
ATOM     39  N   UNL     1     -26.417 104.028  28.658  0.00  0.00    +0.000 NA
ATOM     40  C   UNL     1     -25.713 104.666  27.525  0.00  0.00    +0.000 C 
ATOM     41  C   UNL     1     -27.878 104.120  28.458  0.00  0.00    +0.000 C 
ATOM     42  C   UNL     1     -26.142 106.118  27.300  0.00  0.00    +0.000 C 
ATOM     43  C   UNL     1     -28.362 105.557  28.255  0.00  0.00    +0.000 C 
ATOM     44  C   UNL     1     -27.643 106.230  27.099  0.00  0.00    +0.000 C 
ENDBRANCH  33  39
ENDBRANCH  30  38
ENDBRANCH  20  30
TORSDOF 6
ENDMDL
MODEL 9
REMARK VINA RESULT:      -6.0     12.447     19.082
REMARK  Name = 
REMARK  8 active torsions:
REMARK  status: ('A' for Active; 'I' for Inactive)
REMARK    1  A    between atoms: O_1  and  C_21
REMARK    2  A    between atoms: O_1  and  C_38
REMARK    3  A    between atoms: O_4  and  C_26
REMARK    4  A    between atoms: N_7  and  C_11
REMARK    5  A    between atoms: C_26  and  C_33
REMARK    6  A    between atoms: C_29  and  C_37
REMARK    7  A    between atoms: C_33  and  C_42
REMARK    8  A    between atoms: C_37  and  C_43
REMARK                            x       y       z     vdW  Elec       q    Type
REMARK                         _______ _______ _______ _____ _____    ______ ____
ROOT
ATOM      1  O   UNL     1     -50.706  97.226   0.921  0.00  0.00    +0.000 OA
ATOM      2  O   UNL     1     -51.701  96.335   4.916  0.00  0.00    +0.000 OA
ATOM      3  O   UNL     1     -49.915  96.225  -0.929  0.00  0.00    +0.000 OA
ATOM      4  N   UNL     1     -52.221  94.162   4.390  0.00  0.00    +0.000 N 
ATOM      5  N   UNL     1     -53.088  90.775   3.587  0.00  0.00    +0.000 NA
ATOM      6  C   UNL     1     -52.409  93.166   3.453  0.00  0.00    +0.000 A 
ATOM      7  C   UNL     1     -52.850  92.235   5.515  0.00  0.00    +0.000 A 
ATOM      8  C   UNL     1     -52.477  93.671   5.747  0.00  0.00    +0.000 C 
ATOM      9  C   UNL     1     -51.823  94.730   1.716  0.00  0.00    +0.000 A 
ATOM     10  C   UNL     1     -51.657  95.027   0.247  0.00  0.00    +0.000 C 
ATOM     11  C   UNL     1     -52.806  91.950   4.155  0.00  0.00    +0.000 A 
ATOM     12  C   UNL     1     -51.638  95.707   2.625  0.00  0.00    +0.000 A 
ATOM     13  C   UNL     1     -53.209  91.234   6.405  0.00  0.00    +0.000 A 
ATOM     14  C   UNL     1     -52.228  93.397   2.149  0.00  0.00    +0.000 A 
ATOM     15  C   UNL     1     -51.849  95.445   4.085  0.00  0.00    +0.000 A 
ATOM     16  C   UNL     1     -53.535  89.963   5.850  0.00  0.00    +0.000 A 
ATOM     17  C   UNL     1     -51.240  97.092   2.254  0.00  0.00    +0.000 C 
ATOM     18  C   UNL     1     -53.451  89.796   4.429  0.00  0.00    +0.000 A 
ATOM     19  C   UNL     1     -50.670  96.199   0.045  0.00  0.00    +0.000 C 
ATOM     20  C   UNL     1     -54.257  87.641   6.022  0.00  0.00    +0.000 A 
ATOM     21  C   UNL     1     -53.939  88.855   6.628  0.00  0.00    +0.000 A 
ATOM     22  C   UNL     1     -53.757  88.561   3.872  0.00  0.00    +0.000 A 
ATOM     23  C   UNL     1     -54.153  87.474   4.652  0.00  0.00    +0.000 A 
ENDROOT
BRANCH  10  24
ATOM     24  O   UNL     1     -51.119  93.866  -0.400  0.00  0.00    +0.000 OA
ATOM     25  H   UNL     1     -50.150  93.907  -0.273  0.00  0.00    +0.000 HD
ENDBRANCH  10  24
BRANCH  10  26
ATOM     26  C   UNL     1     -53.020  95.371  -0.392  0.00  0.00    +0.000 C 
ATOM     27  C   UNL     1     -53.315  94.629  -1.692  0.00  0.00    +0.000 C 
ENDBRANCH  10  26
BRANCH  13  28
ATOM     28  C   UNL     1     -53.273  91.532   7.884  0.00  0.00    +0.000 C 
ATOM     29  C   UNL     1     -54.618  92.114   8.294  0.00  0.00    +0.000 C 
ENDBRANCH  13  28
BRANCH  20  30
ATOM     30  O   UNL     1     -54.610  86.554   6.823  0.00  0.00    +0.000 OA
BRANCH  30  38
ATOM     31  O   UNL     1     -53.022  86.383   8.500  0.00  0.00    +0.000 OA
ATOM     32  N   UNL     1     -53.083  84.820   6.809  0.00  0.00    +0.000 N 
ATOM     33  C   UNL     1     -51.489  83.122   5.038  0.00  0.00    +0.000 C 
ATOM     34  C   UNL     1     -52.663  83.998   4.534  0.00  0.00    +0.000 C 
ATOM     35  C   UNL     1     -50.919  83.766   6.327  0.00  0.00    +0.000 C 
ATOM     36  C   UNL     1     -53.703  84.267   5.618  0.00  0.00    +0.000 C 
ATOM     37  C   UNL     1     -51.999  84.038   7.370  0.00  0.00    +0.000 C 
ATOM     38  C   UNL     1     -53.531  85.956   7.467  0.00  0.00    +0.000 C 
BRANCH  33  39
ATOM     39  N   UNL     1     -50.433  82.942   3.992  0.00  0.00    +0.000 NA
ATOM     40  C   UNL     1     -50.577  83.911   2.885  0.00  0.00    +0.000 C 
ATOM     41  C   UNL     1     -49.069  83.022   4.556  0.00  0.00    +0.000 C 
ATOM     42  C   UNL     1     -49.524  83.723   1.790  0.00  0.00    +0.000 C 
ATOM     43  C   UNL     1     -47.977  82.813   3.503  0.00  0.00    +0.000 C 
ATOM     44  C   UNL     1     -48.115  83.796   2.354  0.00  0.00    +0.000 C 
ENDBRANCH  33  39
ENDBRANCH  30  38
ENDBRANCH  20  30
TORSDOF 6
ENDMDL
