MODEL 1
REMARK VINA RESULT:      -7.8      0.000      0.000
REMARK  Name = 
REMARK  8 active torsions:
REMARK  status: ('A' for Active; 'I' for Inactive)
REMARK    1  A    between atoms: O_1  and  C_21
REMARK    2  A    between atoms: O_1  and  C_38
REMARK    3  A    between atoms: O_4  and  C_26
REMARK    4  A    between atoms: N_7  and  C_11
REMARK    5  A    between atoms: C_26  and  C_33
REMARK    6  A    between atoms: C_29  and  C_37
REMARK    7  A    between atoms: C_33  and  C_42
REMARK    8  A    between atoms: C_37  and  C_43
REMARK                            x       y       z     vdW  Elec       q    Type
REMARK                         _______ _______ _______ _____ _____    ______ ____
ROOT
ATOM      1  O   UNL     1     -37.652 104.192   4.777  0.00  0.00    +0.000 OA
ATOM      2  O   UNL     1     -41.282 104.474   6.898  0.00  0.00    +0.000 OA
ATOM      3  O   UNL     1     -36.576 102.811   3.368  0.00  0.00    +0.000 OA
ATOM      4  N   UNL     1     -42.395 103.229   5.324  0.00  0.00    +0.000 N 
ATOM      5  N   UNL     1     -44.171 101.328   2.855  0.00  0.00    +0.000 NA
ATOM      6  C   UNL     1     -42.422 102.581   4.106  0.00  0.00    +0.000 A 
ATOM      7  C   UNL     1     -44.515 102.336   5.039  0.00  0.00    +0.000 A 
ATOM      8  C   UNL     1     -43.688 103.132   6.007  0.00  0.00    +0.000 C 
ATOM      9  C   UNL     1     -40.121 103.203   3.757  0.00  0.00    +0.000 A 
ATOM     10  C   UNL     1     -38.907 103.216   2.862  0.00  0.00    +0.000 C 
ATOM     11  C   UNL     1     -43.755 102.018   3.919  0.00  0.00    +0.000 A 
ATOM     12  C   UNL     1     -40.087 103.838   4.945  0.00  0.00    +0.000 A 
ATOM     13  C   UNL     1     -45.835 101.913   5.104  0.00  0.00    +0.000 A 
ATOM     14  C   UNL     1     -41.345 102.545   3.315  0.00  0.00    +0.000 A 
ATOM     15  C   UNL     1     -41.299 103.882   5.824  0.00  0.00    +0.000 A 
ATOM     16  C   UNL     1     -46.335 101.185   3.986  0.00  0.00    +0.000 A 
ATOM     17  C   UNL     1     -38.878 104.543   5.452  0.00  0.00    +0.000 C 
ATOM     18  C   UNL     1     -45.449 100.921   2.891  0.00  0.00    +0.000 A 
ATOM     19  C   UNL     1     -37.621 103.371   3.705  0.00  0.00    +0.000 C 
ATOM     20  C   UNL     1     -48.093 100.013   2.772  0.00  0.00    +0.000 A 
ATOM     21  C   UNL     1     -47.662 100.709   3.899  0.00  0.00    +0.000 A 
ATOM     22  C   UNL     1     -45.918 100.204   1.797  0.00  0.00    +0.000 A 
ATOM     23  C   UNL     1     -47.231  99.738   1.725  0.00  0.00    +0.000 A 
ENDROOT
BRANCH  10  24
ATOM     24  O   UNL     1     -38.839 101.966   2.160  0.00  0.00    +0.000 OA
ATOM     25  H   UNL     1     -39.002 102.173   1.218  0.00  0.00    +0.000 HD
ENDBRANCH  10  24
BRANCH  10  26
ATOM     26  C   UNL     1     -39.004 104.363   1.834  0.00  0.00    +0.000 C 
ATOM     27  C   UNL     1     -37.981 104.289   0.704  0.00  0.00    +0.000 C 
ENDBRANCH  10  26
BRANCH  13  28
ATOM     28  C   UNL     1     -46.676 102.263   6.307  0.00  0.00    +0.000 C 
ATOM     29  C   UNL     1     -47.766 103.270   5.973  0.00  0.00    +0.000 C 
ENDBRANCH  13  28
BRANCH  20  30
ATOM     30  O   UNL     1     -49.398  99.519   2.736  0.00  0.00    +0.000 OA
BRANCH  30  38
ATOM     31  O   UNL     1     -49.743  98.699   0.598  0.00  0.00    +0.000 OA
ATOM     32  N   UNL     1     -49.598  97.245   2.378  0.00  0.00    +0.000 N 
ATOM     33  C   UNL     1     -50.623  94.773   3.561  0.00  0.00    +0.000 C 
ATOM     34  C   UNL     1     -50.448  96.084   4.368  0.00  0.00    +0.000 C 
ATOM     35  C   UNL     1     -50.825  95.142   2.069  0.00  0.00    +0.000 C 
ATOM     36  C   UNL     1     -49.364  96.989   3.789  0.00  0.00    +0.000 C 
ATOM     37  C   UNL     1     -49.732  96.066   1.543  0.00  0.00    +0.000 C 
ATOM     38  C   UNL     1     -49.590  98.506   1.801  0.00  0.00    +0.000 C 
BRANCH  33  39
ATOM     39  N   UNL     1     -51.748  93.936   4.085  0.00  0.00    +0.000 NA
ATOM     40  C   UNL     1     -51.860  92.646   3.371  0.00  0.00    +0.000 C 
ATOM     41  C   UNL     1     -51.638  93.698   5.539  0.00  0.00    +0.000 C 
ATOM     42  C   UNL     1     -53.024  91.788   3.872  0.00  0.00    +0.000 C 
ATOM     43  C   UNL     1     -52.796  92.866   6.095  0.00  0.00    +0.000 C 
ATOM     44  C   UNL     1     -52.930  91.540   5.367  0.00  0.00    +0.000 C 
ENDBRANCH  33  39
ENDBRANCH  30  38
ENDBRANCH  20  30
TORSDOF 6
ENDMDL
MODEL 2
REMARK VINA RESULT:      -7.6     12.886     17.861
REMARK  Name = 
REMARK  8 active torsions:
REMARK  status: ('A' for Active; 'I' for Inactive)
REMARK    1  A    between atoms: O_1  and  C_21
REMARK    2  A    between atoms: O_1  and  C_38
REMARK    3  A    between atoms: O_4  and  C_26
REMARK    4  A    between atoms: N_7  and  C_11
REMARK    5  A    between atoms: C_26  and  C_33
REMARK    6  A    between atoms: C_29  and  C_37
REMARK    7  A    between atoms: C_33  and  C_42
REMARK    8  A    between atoms: C_37  and  C_43
REMARK                            x       y       z     vdW  Elec       q    Type
REMARK                         _______ _______ _______ _____ _____    ______ ____
ROOT
ATOM      1  O   UNL     1     -36.838 109.979  10.388  0.00  0.00    +0.000 OA
ATOM      2  O   UNL     1     -34.543 108.590  13.636  0.00  0.00    +0.000 OA
ATOM      3  O   UNL     1     -37.662 109.266   8.423  0.00  0.00    +0.000 OA
ATOM      4  N   UNL     1     -35.258 106.432  13.327  0.00  0.00    +0.000 N 
ATOM      5  N   UNL     1     -36.398 103.058  12.897  0.00  0.00    +0.000 NA
ATOM      6  C   UNL     1     -36.066 105.515  12.684  0.00  0.00    +0.000 A 
ATOM      7  C   UNL     1     -34.828 104.342  14.234  0.00  0.00    +0.000 A 
ATOM      8  C   UNL     1     -34.421 105.784  14.340  0.00  0.00    +0.000 C 
ATOM      9  C   UNL     1     -36.974 107.300  11.344  0.00  0.00    +0.000 A 
ATOM     10  C   UNL     1     -37.952 107.756  10.291  0.00  0.00    +0.000 C 
ATOM     11  C   UNL     1     -35.801 104.198  13.253  0.00  0.00    +0.000 A 
ATOM     12  C   UNL     1     -36.188 108.200  11.967  0.00  0.00    +0.000 A 
ATOM     13  C   UNL     1     -34.400 103.223  14.934  0.00  0.00    +0.000 A 
ATOM     14  C   UNL     1     -36.912 105.892  11.720  0.00  0.00    +0.000 A 
ATOM     15  C   UNL     1     -35.247 107.774  13.052  0.00  0.00    +0.000 A 
ATOM     16  C   UNL     1     -35.017 101.981  14.604  0.00  0.00    +0.000 A 
ATOM     17  C   UNL     1     -36.209 109.653  11.645  0.00  0.00    +0.000 C 
ATOM     18  C   UNL     1     -36.009 101.965  13.570  0.00  0.00    +0.000 A 
ATOM     19  C   UNL     1     -37.450 109.054   9.618  0.00  0.00    +0.000 C 
ATOM     20  C   UNL     1     -35.349  99.584  14.883  0.00  0.00    +0.000 A 
ATOM     21  C   UNL     1     -34.701 100.763  15.244  0.00  0.00    +0.000 A 
ATOM     22  C   UNL     1     -36.613 100.761  13.230  0.00  0.00    +0.000 A 
ATOM     23  C   UNL     1     -36.291  99.564  13.869  0.00  0.00    +0.000 A 
ENDROOT
BRANCH  10  24
ATOM     24  O   UNL     1     -38.056 106.738   9.286  0.00  0.00    +0.000 OA
ATOM     25  H   UNL     1     -38.563 107.132   8.549  0.00  0.00    +0.000 HD
ENDBRANCH  10  24
BRANCH  10  26
ATOM     26  C   UNL     1     -39.345 107.991  10.913  0.00  0.00    +0.000 C 
ATOM     27  C   UNL     1     -40.393 106.950  10.529  0.00  0.00    +0.000 C 
ENDBRANCH  10  26
BRANCH  13  28
ATOM     28  C   UNL     1     -33.353 103.367  16.012  0.00  0.00    +0.000 C 
ATOM     29  C   UNL     1     -31.965 102.987  15.518  0.00  0.00    +0.000 C 
ENDBRANCH  13  28
BRANCH  20  30
ATOM     30  O   UNL     1     -34.983  98.389  15.505  0.00  0.00    +0.000 OA
BRANCH  30  38
ATOM     31  O   UNL     1     -35.179  98.853  17.766  0.00  0.00    +0.000 OA
ATOM     32  N   UNL     1     -33.117  98.355  16.868  0.00  0.00    +0.000 N 
ATOM     33  C   UNL     1     -30.254  98.953  16.927  0.00  0.00    +0.000 C 
ATOM     34  C   UNL     1     -31.067  98.853  15.612  0.00  0.00    +0.000 C 
ATOM     35  C   UNL     1     -31.223  99.350  18.069  0.00  0.00    +0.000 C 
ATOM     36  C   UNL     1     -32.289  97.949  15.745  0.00  0.00    +0.000 C 
ATOM     37  C   UNL     1     -32.439  98.434  18.147  0.00  0.00    +0.000 C 
ATOM     38  C   UNL     1     -34.488  98.555  16.795  0.00  0.00    +0.000 C 
BRANCH  33  39
ATOM     39  N   UNL     1     -29.110  99.912  16.809  0.00  0.00    +0.000 NA
ATOM     40  C   UNL     1     -28.994 100.473  15.446  0.00  0.00    +0.000 C 
ATOM     41  C   UNL     1     -29.195 101.008  17.797  0.00  0.00    +0.000 C 
ATOM     42  C   UNL     1     -27.812 101.433  15.296  0.00  0.00    +0.000 C 
ATOM     43  C   UNL     1     -28.018 101.982  17.707  0.00  0.00    +0.000 C 
ATOM     44  C   UNL     1     -27.880 102.562  16.310  0.00  0.00    +0.000 C 
ENDBRANCH  33  39
ENDBRANCH  30  38
ENDBRANCH  20  30
TORSDOF 6
ENDMDL
MODEL 3
REMARK VINA RESULT:      -7.2     14.216     19.745
REMARK  Name = 
REMARK  8 active torsions:
REMARK  status: ('A' for Active; 'I' for Inactive)
REMARK    1  A    between atoms: O_1  and  C_21
REMARK    2  A    between atoms: O_1  and  C_38
REMARK    3  A    between atoms: O_4  and  C_26
REMARK    4  A    between atoms: N_7  and  C_11
REMARK    5  A    between atoms: C_26  and  C_33
REMARK    6  A    between atoms: C_29  and  C_37
REMARK    7  A    between atoms: C_33  and  C_42
REMARK    8  A    between atoms: C_37  and  C_43
REMARK                            x       y       z     vdW  Elec       q    Type
REMARK                         _______ _______ _______ _____ _____    ______ ____
ROOT
ATOM      1  O   UNL     1     -43.521 101.483  17.521  0.00  0.00    +0.000 OA
ATOM      2  O   UNL     1     -40.564 102.646  14.754  0.00  0.00    +0.000 OA
ATOM      3  O   UNL     1     -44.127  99.709  18.760  0.00  0.00    +0.000 OA
ATOM      4  N   UNL     1     -39.020 101.221  15.679  0.00  0.00    +0.000 N 
ATOM      5  N   UNL     1     -36.573  99.039  17.134  0.00  0.00    +0.000 NA
ATOM      6  C   UNL     1     -38.651 100.327  16.663  0.00  0.00    +0.000 A 
ATOM      7  C   UNL     1     -36.849 100.538  15.242  0.00  0.00    +0.000 A 
ATOM      8  C   UNL     1     -37.937 101.427  14.714  0.00  0.00    +0.000 C 
ATOM      9  C   UNL     1     -40.823 100.585  17.673  0.00  0.00    +0.000 A 
ATOM     10  C   UNL     1     -41.772 100.259  18.799  0.00  0.00    +0.000 C 
ATOM     11  C   UNL     1     -37.283  99.895  16.394  0.00  0.00    +0.000 A 
ATOM     12  C   UNL     1     -41.191 101.459  16.715  0.00  0.00    +0.000 A 
ATOM     13  C   UNL     1     -35.565 100.296  14.774  0.00  0.00    +0.000 A 
ATOM     14  C   UNL     1     -39.490  99.992  17.647  0.00  0.00    +0.000 A 
ATOM     15  C   UNL     1     -40.243 101.837  15.619  0.00  0.00    +0.000 A 
ATOM     16  C   UNL     1     -34.759  99.402  15.535  0.00  0.00    +0.000 A 
ATOM     17  C   UNL     1     -42.527 102.114  16.688  0.00  0.00    +0.000 C 
ATOM     18  C   UNL     1     -35.324  98.801  16.707  0.00  0.00    +0.000 A 
ATOM     19  C   UNL     1     -43.235 100.447  18.338  0.00  0.00    +0.000 C 
ATOM     20  C   UNL     1     -32.687  98.202  15.990  0.00  0.00    +0.000 A 
ATOM     21  C   UNL     1     -33.427  99.075  15.196  0.00  0.00    +0.000 A 
ATOM     22  C   UNL     1     -34.555  97.919  17.455  0.00  0.00    +0.000 A 
ATOM     23  C   UNL     1     -33.241  97.603  17.108  0.00  0.00    +0.000 A 
ENDROOT
BRANCH  10  24
ATOM     24  O   UNL     1     -41.588  98.886  19.172  0.00  0.00    +0.000 OA
ATOM     25  H   UNL     1     -41.976  98.792  20.065  0.00  0.00    +0.000 HD
ENDBRANCH  10  24
BRANCH  10  26
ATOM     26  C   UNL     1     -41.486 101.154  20.024  0.00  0.00    +0.000 C 
ATOM     27  C   UNL     1     -41.260 100.391  21.326  0.00  0.00    +0.000 C 
ENDBRANCH  10  26
BRANCH  13  28
ATOM     28  C   UNL     1     -35.075 100.999  13.531  0.00  0.00    +0.000 C 
ATOM     29  C   UNL     1     -34.437 102.344  13.845  0.00  0.00    +0.000 C 
ENDBRANCH  13  28
BRANCH  20  30
ATOM     30  O   UNL     1     -31.389  97.866  15.603  0.00  0.00    +0.000 OA
BRANCH  30  38
ATOM     31  O   UNL     1     -29.931  97.843  17.403  0.00  0.00    +0.000 OA
ATOM     32  N   UNL     1     -30.003  99.672  16.005  0.00  0.00    +0.000 N 
ATOM     33  C   UNL     1     -29.859 102.590  15.844  0.00  0.00    +0.000 C 
ATOM     34  C   UNL     1     -30.957 101.760  15.133  0.00  0.00    +0.000 C 
ATOM     35  C   UNL     1     -29.359 101.786  17.072  0.00  0.00    +0.000 C 
ATOM     36  C   UNL     1     -30.504 100.337  14.815  0.00  0.00    +0.000 C 
ATOM     37  C   UNL     1     -28.942 100.365  16.709  0.00  0.00    +0.000 C 
ATOM     38  C   UNL     1     -30.400  98.409  16.419  0.00  0.00    +0.000 C 
BRANCH  33  39
ATOM     39  N   UNL     1     -30.346 103.952  16.231  0.00  0.00    +0.000 NA
ATOM     40  C   UNL     1     -31.822 104.019  16.287  0.00  0.00    +0.000 C 
ATOM     41  C   UNL     1     -29.773 104.406  17.516  0.00  0.00    +0.000 C 
ATOM     42  C   UNL     1     -32.340 105.412  16.651  0.00  0.00    +0.000 C 
ATOM     43  C   UNL     1     -30.241 105.808  17.912  0.00  0.00    +0.000 C 
ATOM     44  C   UNL     1     -31.756 105.896  17.967  0.00  0.00    +0.000 C 
ENDBRANCH  33  39
ENDBRANCH  30  38
ENDBRANCH  20  30
TORSDOF 6
ENDMDL
MODEL 4
REMARK VINA RESULT:      -7.2     23.522     27.138
REMARK  Name = 
REMARK  8 active torsions:
REMARK  status: ('A' for Active; 'I' for Inactive)
REMARK    1  A    between atoms: O_1  and  C_21
REMARK    2  A    between atoms: O_1  and  C_38
REMARK    3  A    between atoms: O_4  and  C_26
REMARK    4  A    between atoms: N_7  and  C_11
REMARK    5  A    between atoms: C_26  and  C_33
REMARK    6  A    between atoms: C_29  and  C_37
REMARK    7  A    between atoms: C_33  and  C_42
REMARK    8  A    between atoms: C_37  and  C_43
REMARK                            x       y       z     vdW  Elec       q    Type
REMARK                         _______ _______ _______ _____ _____    ______ ____
ROOT
ATOM      1  O   UNL     1     -16.610  92.147  -7.270  0.00  0.00    +0.000 OA
ATOM      2  O   UNL     1     -18.696  88.624  -8.262  0.00  0.00    +0.000 OA
ATOM      3  O   UNL     1     -16.999  94.300  -6.755  0.00  0.00    +0.000 OA
ATOM      4  N   UNL     1     -20.538  89.275  -7.057  0.00  0.00    +0.000 N 
ATOM      5  N   UNL     1     -23.411  90.245  -5.141  0.00  0.00    +0.000 NA
ATOM      6  C   UNL     1     -21.157  90.156  -6.195  0.00  0.00    +0.000 A 
ATOM      7  C   UNL     1     -22.682  88.492  -6.657  0.00  0.00    +0.000 A 
ATOM      8  C   UNL     1     -21.429  88.169  -7.419  0.00  0.00    +0.000 C 
ATOM      9  C   UNL     1     -19.152  91.491  -6.165  0.00  0.00    +0.000 A 
ATOM     10  C   UNL     1     -18.400  92.683  -5.626  0.00  0.00    +0.000 C 
ATOM     11  C   UNL     1     -22.507  89.667  -5.937  0.00  0.00    +0.000 A 
ATOM     12  C   UNL     1     -18.540  90.635  -7.007  0.00  0.00    +0.000 A 
ATOM     13  C   UNL     1     -23.895  87.822  -6.577  0.00  0.00    +0.000 A 
ATOM     14  C   UNL     1     -20.523  91.240  -5.737  0.00  0.00    +0.000 A 
ATOM     15  C   UNL     1     -19.252  89.417  -7.511  0.00  0.00    +0.000 A 
ATOM     16  C   UNL     1     -24.890  88.388  -5.728  0.00  0.00    +0.000 A 
ATOM     17  C   UNL     1     -17.139  90.820  -7.472  0.00  0.00    +0.000 C 
ATOM     18  C   UNL     1     -24.586  89.607  -5.038  0.00  0.00    +0.000 A 
ATOM     19  C   UNL     1     -17.294  93.111  -6.617  0.00  0.00    +0.000 C 
ATOM     20  C   UNL     1     -27.087  88.406  -4.675  0.00  0.00    +0.000 A 
ATOM     21  C   UNL     1     -26.162  87.809  -5.529  0.00  0.00    +0.000 A 
ATOM     22  C   UNL     1     -25.548  90.178  -4.214  0.00  0.00    +0.000 A 
ATOM     23  C   UNL     1     -26.802  89.597  -4.028  0.00  0.00    +0.000 A 
ENDROOT
BRANCH  10  24
ATOM     24  O   UNL     1     -19.317  93.775  -5.474  0.00  0.00    +0.000 OA
ATOM     25  H   UNL     1     -20.098  93.555  -6.020  0.00  0.00    +0.000 HD
ENDBRANCH  10  24
BRANCH  10  26
ATOM     26  C   UNL     1     -17.779  92.354  -4.252  0.00  0.00    +0.000 C 
ATOM     27  C   UNL     1     -18.089  93.372  -3.158  0.00  0.00    +0.000 C 
ENDBRANCH  10  26
BRANCH  13  28
ATOM     28  C   UNL     1     -24.094  86.537  -7.343  0.00  0.00    +0.000 C 
ATOM     29  C   UNL     1     -24.659  86.780  -8.734  0.00  0.00    +0.000 C 
ENDBRANCH  13  28
BRANCH  20  30
ATOM     30  O   UNL     1     -28.352  87.833  -4.534  0.00  0.00    +0.000 OA
BRANCH  30  38
ATOM     31  O   UNL     1     -28.073  85.543  -4.325  0.00  0.00    +0.000 OA
ATOM     32  N   UNL     1     -28.938  86.423  -6.269  0.00  0.00    +0.000 N 
ATOM     33  C   UNL     1     -29.013  86.212  -9.187  0.00  0.00    +0.000 C 
ATOM     34  C   UNL     1     -28.800  87.555  -8.444  0.00  0.00    +0.000 C 
ATOM     35  C   UNL     1     -28.517  85.065  -8.270  0.00  0.00    +0.000 C 
ATOM     36  C   UNL     1     -29.412  87.556  -7.046  0.00  0.00    +0.000 C 
ATOM     37  C   UNL     1     -29.137  85.122  -6.877  0.00  0.00    +0.000 C 
ATOM     38  C   UNL     1     -28.426  86.517  -4.984  0.00  0.00    +0.000 C 
BRANCH  33  39
ATOM     39  N   UNL     1     -28.331  86.192 -10.520  0.00  0.00    +0.000 NA
ATOM     40  C   UNL     1     -27.558  87.428 -10.765  0.00  0.00    +0.000 C 
ATOM     41  C   UNL     1     -27.458  85.012 -10.684  0.00  0.00    +0.000 C 
ATOM     42  C   UNL     1     -26.878  87.441 -12.137  0.00  0.00    +0.000 C 
ATOM     43  C   UNL     1     -26.774  84.964 -12.052  0.00  0.00    +0.000 C 
ATOM     44  C   UNL     1     -25.981  86.230 -12.324  0.00  0.00    +0.000 C 
ENDBRANCH  33  39
ENDBRANCH  30  38
ENDBRANCH  20  30
TORSDOF 6
ENDMDL
MODEL 5
REMARK VINA RESULT:      -7.0      2.942     12.998
REMARK  Name = 
REMARK  8 active torsions:
REMARK  status: ('A' for Active; 'I' for Inactive)
REMARK    1  A    between atoms: O_1  and  C_21
REMARK    2  A    between atoms: O_1  and  C_38
REMARK    3  A    between atoms: O_4  and  C_26
REMARK    4  A    between atoms: N_7  and  C_11
REMARK    5  A    between atoms: C_26  and  C_33
REMARK    6  A    between atoms: C_29  and  C_37
REMARK    7  A    between atoms: C_33  and  C_42
REMARK    8  A    between atoms: C_37  and  C_43
REMARK                            x       y       z     vdW  Elec       q    Type
REMARK                         _______ _______ _______ _____ _____    ______ ____
ROOT
ATOM      1  O   UNL     1     -52.227  98.121   4.687  0.00  0.00    +0.000 OA
ATOM      2  O   UNL     1     -49.946 100.986   6.771  0.00  0.00    +0.000 OA
ATOM      3  O   UNL     1     -52.509  97.315   2.609  0.00  0.00    +0.000 OA
ATOM      4  N   UNL     1     -48.202 100.796   5.291  0.00  0.00    +0.000 N 
ATOM      5  N   UNL     1     -45.442 100.485   3.022  0.00  0.00    +0.000 NA
ATOM      6  C   UNL     1     -47.609 100.181   4.208  0.00  0.00    +0.000 A 
ATOM      7  C   UNL     1     -46.150 101.811   4.931  0.00  0.00    +0.000 A 
ATOM      8  C   UNL     1     -47.350 101.859   5.831  0.00  0.00    +0.000 C 
ATOM      9  C   UNL     1     -49.530  98.740   4.012  0.00  0.00    +0.000 A 
ATOM     10  C   UNL     1     -50.214  97.584   3.326  0.00  0.00    +0.000 C 
ATOM     11  C   UNL     1     -46.316 100.814   3.977  0.00  0.00    +0.000 A 
ATOM     12  C   UNL     1     -50.115  99.336   5.070  0.00  0.00    +0.000 A 
ATOM     13  C   UNL     1     -44.985 102.565   4.928  0.00  0.00    +0.000 A 
ATOM     14  C   UNL     1     -48.216  99.181   3.560  0.00  0.00    +0.000 A 
ATOM     15  C   UNL     1     -49.428 100.451   5.797  0.00  0.00    +0.000 A 
ATOM     16  C   UNL     1     -44.011 102.244   3.938  0.00  0.00    +0.000 A 
ATOM     17  C   UNL     1     -51.447  98.928   5.594  0.00  0.00    +0.000 C 
ATOM     18  C   UNL     1     -44.302 101.193   3.009  0.00  0.00    +0.000 A 
ATOM     19  C   UNL     1     -51.746  97.685   3.503  0.00  0.00    +0.000 C 
ATOM     20  C   UNL     1     -41.855 102.539   2.841  0.00  0.00    +0.000 A 
ATOM     21  C   UNL     1     -42.771 102.909   3.824  0.00  0.00    +0.000 A 
ATOM     22  C   UNL     1     -43.368 100.873   2.032  0.00  0.00    +0.000 A 
ATOM     23  C   UNL     1     -42.147 101.539   1.929  0.00  0.00    +0.000 A 
ENDROOT
BRANCH  10  24
ATOM     24  O   UNL     1     -49.916  97.638   1.924  0.00  0.00    +0.000 OA
ATOM     25  H   UNL     1     -49.929  96.713   1.607  0.00  0.00    +0.000 HD
ENDBRANCH  10  24
BRANCH  10  26
ATOM     26  C   UNL     1     -49.707  96.241   3.895  0.00  0.00    +0.000 C 
ATOM     27  C   UNL     1     -50.792  95.187   4.094  0.00  0.00    +0.000 C 
ENDBRANCH  10  26
BRANCH  13  28
ATOM     28  C   UNL     1     -44.785 103.642   5.966  0.00  0.00    +0.000 C 
ATOM     29  C   UNL     1     -45.350 104.982   5.519  0.00  0.00    +0.000 C 
ENDBRANCH  13  28
BRANCH  20  30
ATOM     30  O   UNL     1     -40.657 103.245   2.728  0.00  0.00    +0.000 OA
BRANCH  30  38
ATOM     31  O   UNL     1     -39.564 101.567   3.892  0.00  0.00    +0.000 OA
ATOM     32  N   UNL     1     -38.371 102.978   2.517  0.00  0.00    +0.000 N 
ATOM     33  C   UNL     1     -35.868 104.451   2.161  0.00  0.00    +0.000 C 
ATOM     34  C   UNL     1     -37.261 105.088   1.931  0.00  0.00    +0.000 C 
ATOM     35  C   UNL     1     -36.026 103.287   3.172  0.00  0.00    +0.000 C 
ATOM     36  C   UNL     1     -38.322 104.060   1.548  0.00  0.00    +0.000 C 
ATOM     37  C   UNL     1     -37.113 102.299   2.760  0.00  0.00    +0.000 C 
ATOM     38  C   UNL     1     -39.536 102.514   3.111  0.00  0.00    +0.000 C 
BRANCH  33  39
ATOM     39  N   UNL     1     -34.859 105.456   2.623  0.00  0.00    +0.000 NA
ATOM     40  C   UNL     1     -34.781 106.621   1.715  0.00  0.00    +0.000 C 
ATOM     41  C   UNL     1     -35.117 105.913   4.005  0.00  0.00    +0.000 C 
ATOM     42  C   UNL     1     -33.732 107.646   2.154  0.00  0.00    +0.000 C 
ATOM     43  C   UNL     1     -34.078 106.921   4.501  0.00  0.00    +0.000 C 
ATOM     44  C   UNL     1     -33.979 108.121   3.575  0.00  0.00    +0.000 C 
ENDBRANCH  33  39
ENDBRANCH  30  38
ENDBRANCH  20  30
TORSDOF 6
ENDMDL
MODEL 6
REMARK VINA RESULT:      -6.8      7.586     12.815
REMARK  Name = 
REMARK  8 active torsions:
REMARK  status: ('A' for Active; 'I' for Inactive)
REMARK    1  A    between atoms: O_1  and  C_21
REMARK    2  A    between atoms: O_1  and  C_38
REMARK    3  A    between atoms: O_4  and  C_26
REMARK    4  A    between atoms: N_7  and  C_11
REMARK    5  A    between atoms: C_26  and  C_33
REMARK    6  A    between atoms: C_29  and  C_37
REMARK    7  A    between atoms: C_33  and  C_42
REMARK    8  A    between atoms: C_37  and  C_43
REMARK                            x       y       z     vdW  Elec       q    Type
REMARK                         _______ _______ _______ _____ _____    ______ ____
ROOT
ATOM      1  O   UNL     1     -43.442 107.242  -8.192  0.00  0.00    +0.000 OA
ATOM      2  O   UNL     1     -41.591 108.432  -4.599  0.00  0.00    +0.000 OA
ATOM      3  O   UNL     1     -43.783 105.401  -9.434  0.00  0.00    +0.000 OA
ATOM      4  N   UNL     1     -41.911 106.366  -3.652  0.00  0.00    +0.000 N 
ATOM      5  N   UNL     1     -42.442 103.162  -2.130  0.00  0.00    +0.000 NA
ATOM      6  C   UNL     1     -42.445 105.094  -3.699  0.00  0.00    +0.000 A 
ATOM      7  C   UNL     1     -41.347 105.284  -1.682  0.00  0.00    +0.000 A 
ATOM      8  C   UNL     1     -41.184 106.592  -2.400  0.00  0.00    +0.000 C 
ATOM      9  C   UNL     1     -43.349 105.585  -5.877  0.00  0.00    +0.000 A 
ATOM     10  C   UNL     1     -44.178 105.152  -7.060  0.00  0.00    +0.000 C 
ATOM     11  C   UNL     1     -42.095 104.408  -2.460  0.00  0.00    +0.000 A 
ATOM     12  C   UNL     1     -42.831 106.829  -5.839  0.00  0.00    +0.000 A 
ATOM     13  C   UNL     1     -40.891 104.866  -0.439  0.00  0.00    +0.000 A 
ATOM     14  C   UNL     1     -43.149 104.676  -4.755  0.00  0.00    +0.000 A 
ATOM     15  C   UNL     1     -42.049 107.296  -4.649  0.00  0.00    +0.000 A 
ATOM     16  C   UNL     1     -41.247 103.548  -0.032  0.00  0.00    +0.000 A 
ATOM     17  C   UNL     1     -43.009 107.814  -6.940  0.00  0.00    +0.000 C 
ATOM     18  C   UNL     1     -42.023 102.742  -0.927  0.00  0.00    +0.000 A 
ATOM     19  C   UNL     1     -43.761 105.937  -8.324  0.00  0.00    +0.000 C 
ATOM     20  C   UNL     1     -41.266 101.700   1.557  0.00  0.00    +0.000 A 
ATOM     21  C   UNL     1     -40.875 102.993   1.212  0.00  0.00    +0.000 A 
ATOM     22  C   UNL     1     -42.371 101.451  -0.549  0.00  0.00    +0.000 A 
ATOM     23  C   UNL     1     -41.995 100.913   0.682  0.00  0.00    +0.000 A 
ENDROOT
BRANCH  10  24
ATOM     24  O   UNL     1     -43.947 103.756  -7.298  0.00  0.00    +0.000 OA
ATOM     25  H   UNL     1     -44.827 103.357  -7.453  0.00  0.00    +0.000 HD
ENDBRANCH  10  24
BRANCH  10  26
ATOM     26  C   UNL     1     -45.680 105.370  -6.777  0.00  0.00    +0.000 C 
ATOM     27  C   UNL     1     -46.466 104.090  -6.508  0.00  0.00    +0.000 C 
ENDBRANCH  10  26
BRANCH  13  28
ATOM     28  C   UNL     1     -40.089 105.811   0.422  0.00  0.00    +0.000 C 
ATOM     29  C   UNL     1     -38.593 105.678   0.181  0.00  0.00    +0.000 C 
ENDBRANCH  13  28
BRANCH  20  30
ATOM     30  O   UNL     1     -40.845 101.165   2.776  0.00  0.00    +0.000 OA
BRANCH  30  38
ATOM     31  O   UNL     1     -42.060 102.408   4.307  0.00  0.00    +0.000 OA
ATOM     32  N   UNL     1     -39.758 102.459   4.352  0.00  0.00    +0.000 N 
ATOM     33  C   UNL     1     -37.392 104.125   4.781  0.00  0.00    +0.000 C 
ATOM     34  C   UNL     1     -37.540 103.166   3.573  0.00  0.00    +0.000 C 
ATOM     35  C   UNL     1     -38.809 104.534   5.255  0.00  0.00    +0.000 C 
ATOM     36  C   UNL     1     -38.471 101.993   3.865  0.00  0.00    +0.000 C 
ATOM     37  C   UNL     1     -39.710 103.330   5.510  0.00  0.00    +0.000 C 
ATOM     38  C   UNL     1     -40.982 102.039   3.851  0.00  0.00    +0.000 C 
BRANCH  33  39
ATOM     39  N   UNL     1     -36.549 105.318   4.452  0.00  0.00    +0.000 NA
ATOM     40  C   UNL     1     -36.241 106.127   5.650  0.00  0.00    +0.000 C 
ATOM     41  C   UNL     1     -35.296 104.944   3.763  0.00  0.00    +0.000 C 
ATOM     42  C   UNL     1     -35.405 107.369   5.330  0.00  0.00    +0.000 C 
ATOM     43  C   UNL     1     -34.435 106.155   3.396  0.00  0.00    +0.000 C 
ATOM     44  C   UNL     1     -34.116 107.002   4.615  0.00  0.00    +0.000 C 
ENDBRANCH  33  39
ENDBRANCH  30  38
ENDBRANCH  20  30
TORSDOF 6
ENDMDL
MODEL 7
REMARK VINA RESULT:      -6.7     22.681     27.936
REMARK  Name = 
REMARK  8 active torsions:
REMARK  status: ('A' for Active; 'I' for Inactive)
REMARK    1  A    between atoms: O_1  and  C_21
REMARK    2  A    between atoms: O_1  and  C_38
REMARK    3  A    between atoms: O_4  and  C_26
REMARK    4  A    between atoms: N_7  and  C_11
REMARK    5  A    between atoms: C_26  and  C_33
REMARK    6  A    between atoms: C_29  and  C_37
REMARK    7  A    between atoms: C_33  and  C_42
REMARK    8  A    between atoms: C_37  and  C_43
REMARK                            x       y       z     vdW  Elec       q    Type
REMARK                         _______ _______ _______ _____ _____    ______ ____
ROOT
ATOM      1  O   UNL     1     -34.572  96.057 -14.945  0.00  0.00    +0.000 OA
ATOM      2  O   UNL     1     -32.148  99.171 -13.469  0.00  0.00    +0.000 OA
ATOM      3  O   UNL     1     -34.608  94.523 -16.586  0.00  0.00    +0.000 OA
ATOM      4  N   UNL     1     -30.235  98.153 -14.227  0.00  0.00    +0.000 N 
ATOM      5  N   UNL     1     -27.226  96.561 -15.356  0.00  0.00    +0.000 NA
ATOM      6  C   UNL     1     -29.598  97.074 -14.804  0.00  0.00    +0.000 A 
ATOM      7  C   UNL     1     -27.970  98.634 -14.331  0.00  0.00    +0.000 A 
ATOM      8  C   UNL     1     -29.282  99.213 -13.885  0.00  0.00    +0.000 C 
ATOM      9  C   UNL     1     -31.727  95.962 -15.005  0.00  0.00    +0.000 A 
ATOM     10  C   UNL     1     -32.512  94.736 -15.395  0.00  0.00    +0.000 C 
ATOM     11  C   UNL     1     -28.171  97.370 -14.871  0.00  0.00    +0.000 A 
ATOM     12  C   UNL     1     -32.355  97.013 -14.442  0.00  0.00    +0.000 A 
ATOM     13  C   UNL     1     -26.683  99.150 -14.274  0.00  0.00    +0.000 A 
ATOM     14  C   UNL     1     -30.281  95.993 -15.194  0.00  0.00    +0.000 A 
ATOM     15  C   UNL     1     -31.585  98.219 -14.000  0.00  0.00    +0.000 A 
ATOM     16  C   UNL     1     -25.634  98.321 -14.766  0.00  0.00    +0.000 A 
ATOM     17  C   UNL     1     -33.824  97.045 -14.205  0.00  0.00    +0.000 C 
ATOM     18  C   UNL     1     -25.972  97.035 -15.299  0.00  0.00    +0.000 A 
ATOM     19  C   UNL     1     -33.978  95.114 -15.707  0.00  0.00    +0.000 C 
ATOM     20  C   UNL     1     -23.292  97.839 -15.239  0.00  0.00    +0.000 A 
ATOM     21  C   UNL     1     -24.274  98.701 -14.755  0.00  0.00    +0.000 A 
ATOM     22  C   UNL     1     -24.962  96.218 -15.791  0.00  0.00    +0.000 A 
ATOM     23  C   UNL     1     -23.622  96.606 -15.776  0.00  0.00    +0.000 A 
ENDROOT
BRANCH  10  24
ATOM     24  O   UNL     1     -31.930  94.172 -16.579  0.00  0.00    +0.000 OA
ATOM     25  H   UNL     1     -32.223  93.240 -16.610  0.00  0.00    +0.000 HD
ENDBRANCH  10  24
BRANCH  10  26
ATOM     26  C   UNL     1     -32.469  93.684 -14.266  0.00  0.00    +0.000 C 
ATOM     27  C   UNL     1     -32.799  92.262 -14.712  0.00  0.00    +0.000 C 
ENDBRANCH  10  26
BRANCH  13  28
ATOM     28  C   UNL     1     -26.448 100.517 -13.678  0.00  0.00    +0.000 C 
ATOM     29  C   UNL     1     -26.205 100.455 -12.178  0.00  0.00    +0.000 C 
ENDBRANCH  13  28
BRANCH  20  30
ATOM     30  O   UNL     1     -21.963  98.261 -15.254  0.00  0.00    +0.000 OA
BRANCH  30  38
ATOM     31  O   UNL     1     -20.756  96.567 -14.235  0.00  0.00    +0.000 OA
ATOM     32  N   UNL     1     -20.960  98.616 -13.203  0.00  0.00    +0.000 N 
ATOM     33  C   UNL     1     -21.286 100.007 -10.649  0.00  0.00    +0.000 C 
ATOM     34  C   UNL     1     -22.133 100.338 -11.904  0.00  0.00    +0.000 C 
ATOM     35  C   UNL     1     -20.815  98.534 -10.754  0.00  0.00    +0.000 C 
ATOM     36  C   UNL     1     -21.413  99.996 -13.205  0.00  0.00    +0.000 C 
ATOM     37  C   UNL     1     -20.124  98.235 -12.080  0.00  0.00    +0.000 C 
ATOM     38  C   UNL     1     -21.188  97.717 -14.234  0.00  0.00    +0.000 C 
BRANCH  33  39
ATOM     39  N   UNL     1     -22.038 100.262  -9.380  0.00  0.00    +0.000 NA
ATOM     40  C   UNL     1     -21.170 100.830  -8.326  0.00  0.00    +0.000 C 
ATOM     41  C   UNL     1     -23.211 101.136  -9.591  0.00  0.00    +0.000 C 
ATOM     42  C   UNL     1     -21.914 101.070  -7.010  0.00  0.00    +0.000 C 
ATOM     43  C   UNL     1     -24.005 101.385  -8.306  0.00  0.00    +0.000 C 
ATOM     44  C   UNL     1     -23.127 101.961  -7.210  0.00  0.00    +0.000 C 
ENDBRANCH  33  39
ENDBRANCH  30  38
ENDBRANCH  20  30
TORSDOF 6
ENDMDL
MODEL 8
REMARK VINA RESULT:      -6.7     21.254     22.088
REMARK  Name = 
REMARK  8 active torsions:
REMARK  status: ('A' for Active; 'I' for Inactive)
REMARK    1  A    between atoms: O_1  and  C_21
REMARK    2  A    between atoms: O_1  and  C_38
REMARK    3  A    between atoms: O_4  and  C_26
REMARK    4  A    between atoms: N_7  and  C_11
REMARK    5  A    between atoms: C_26  and  C_33
REMARK    6  A    between atoms: C_29  and  C_37
REMARK    7  A    between atoms: C_33  and  C_42
REMARK    8  A    between atoms: C_37  and  C_43
REMARK                            x       y       z     vdW  Elec       q    Type
REMARK                         _______ _______ _______ _____ _____    ______ ____
ROOT
ATOM      1  O   UNL     1     -32.536  88.418  19.191  0.00  0.00    +0.000 OA
ATOM      2  O   UNL     1     -33.500  85.200  16.649  0.00  0.00    +0.000 OA
ATOM      3  O   UNL     1     -33.453  90.286  20.040  0.00  0.00    +0.000 OA
ATOM      4  N   UNL     1     -35.725  85.323  17.198  0.00  0.00    +0.000 N 
ATOM      5  N   UNL     1     -39.200  85.461  18.077  0.00  0.00    +0.000 NA
ATOM      6  C   UNL     1     -36.746  85.860  17.956  0.00  0.00    +0.000 A 
ATOM      7  C   UNL     1     -37.702  84.296  16.559  0.00  0.00    +0.000 A 
ATOM      8  C   UNL     1     -36.229  84.310  16.267  0.00  0.00    +0.000 C 
ATOM      9  C   UNL     1     -35.141  87.274  19.065  0.00  0.00    +0.000 A 
ATOM     10  C   UNL     1     -34.841  88.306  20.123  0.00  0.00    +0.000 C 
ATOM     11  C   UNL     1     -37.993  85.216  17.560  0.00  0.00    +0.000 A 
ATOM     12  C   UNL     1     -34.139  86.755  18.329  0.00  0.00    +0.000 A 
ATOM     13  C   UNL     1     -38.730  83.543  16.011  0.00  0.00    +0.000 A 
ATOM     14  C   UNL     1     -36.508  86.804  18.871  0.00  0.00    +0.000 A 
ATOM     15  C   UNL     1     -34.409  85.691  17.309  0.00  0.00    +0.000 A 
ATOM     16  C   UNL     1     -40.037  83.755  16.538  0.00  0.00    +0.000 A 
ATOM     17  C   UNL     1     -32.719  87.175  18.483  0.00  0.00    +0.000 C 
ATOM     18  C   UNL     1     -40.207  84.734  17.570  0.00  0.00    +0.000 A 
ATOM     19  C   UNL     1     -33.560  89.091  19.759  0.00  0.00    +0.000 C 
ATOM     20  C   UNL     1     -42.427  83.294  16.660  0.00  0.00    +0.000 A 
ATOM     21  C   UNL     1     -41.177  83.049  16.095  0.00  0.00    +0.000 A 
ATOM     22  C   UNL     1     -41.476  84.960  18.088  0.00  0.00    +0.000 A 
ATOM     23  C   UNL     1     -42.594  84.257  17.641  0.00  0.00    +0.000 A 
ENDROOT
BRANCH  10  24
ATOM     24  O   UNL     1     -35.935  89.231  20.188  0.00  0.00    +0.000 OA
ATOM     25  H   UNL     1     -36.749  88.698  20.083  0.00  0.00    +0.000 HD
ENDBRANCH  10  24
BRANCH  10  26
ATOM     26  C   UNL     1     -34.671  87.632  21.502  0.00  0.00    +0.000 C 
ATOM     27  C   UNL     1     -35.022  88.525  22.689  0.00  0.00    +0.000 C 
ENDBRANCH  10  26
BRANCH  13  28
ATOM     28  C   UNL     1     -38.426  82.531  14.932  0.00  0.00    +0.000 C 
ATOM     29  C   UNL     1     -38.099  81.161  15.507  0.00  0.00    +0.000 C 
ENDBRANCH  13  28
BRANCH  20  30
ATOM     30  O   UNL     1     -43.540  82.610  16.170  0.00  0.00    +0.000 OA
BRANCH  30  38
ATOM     31  O   UNL     1     -42.793  80.744  17.322  0.00  0.00    +0.000 OA
ATOM     32  N   UNL     1     -44.801  80.674  16.196  0.00  0.00    +0.000 N 
ATOM     33  C   UNL     1     -46.599  79.033  14.572  0.00  0.00    +0.000 C 
ATOM     34  C   UNL     1     -46.219  80.488  14.200  0.00  0.00    +0.000 C 
ATOM     35  C   UNL     1     -45.455  78.435  15.431  0.00  0.00    +0.000 C 
ATOM     36  C   UNL     1     -45.841  81.326  15.418  0.00  0.00    +0.000 C 
ATOM     37  C   UNL     1     -45.096  79.319  16.621  0.00  0.00    +0.000 C 
ATOM     38  C   UNL     1     -43.639  81.298  16.625  0.00  0.00    +0.000 C 
BRANCH  33  39
ATOM     39  N   UNL     1     -46.880  78.197  13.362  0.00  0.00    +0.000 NA
ATOM     40  C   UNL     1     -47.161  79.025  12.170  0.00  0.00    +0.000 C 
ATOM     41  C   UNL     1     -45.784  77.251  13.069  0.00  0.00    +0.000 C 
ATOM     42  C   UNL     1     -47.482  78.190  10.928  0.00  0.00    +0.000 C 
ATOM     43  C   UNL     1     -46.069  76.371  11.849  0.00  0.00    +0.000 C 
ATOM     44  C   UNL     1     -46.367  77.206  10.617  0.00  0.00    +0.000 C 
ENDBRANCH  33  39
ENDBRANCH  30  38
ENDBRANCH  20  30
TORSDOF 6
ENDMDL
MODEL 9
REMARK VINA RESULT:      -6.7     27.466     31.690
REMARK  Name = 
REMARK  8 active torsions:
REMARK  status: ('A' for Active; 'I' for Inactive)
REMARK    1  A    between atoms: O_1  and  C_21
REMARK    2  A    between atoms: O_1  and  C_38
REMARK    3  A    between atoms: O_4  and  C_26
REMARK    4  A    between atoms: N_7  and  C_11
REMARK    5  A    between atoms: C_26  and  C_33
REMARK    6  A    between atoms: C_29  and  C_37
REMARK    7  A    between atoms: C_33  and  C_42
REMARK    8  A    between atoms: C_37  and  C_43
REMARK                            x       y       z     vdW  Elec       q    Type
REMARK                         _______ _______ _______ _____ _____    ______ ____
ROOT
ATOM      1  O   UNL     1     -20.526  91.016  23.013  0.00  0.00    +0.000 OA
ATOM      2  O   UNL     1     -16.770  91.264  21.122  0.00  0.00    +0.000 OA
ATOM      3  O   UNL     1     -22.716  91.166  22.534  0.00  0.00    +0.000 OA
ATOM      4  N   UNL     1     -17.633  90.529  19.126  0.00  0.00    +0.000 N 
ATOM      5  N   UNL     1     -18.945  89.335  16.009  0.00  0.00    +0.000 NA
ATOM      6  C   UNL     1     -18.683  90.027  18.385  0.00  0.00    +0.000 A 
ATOM      7  C   UNL     1     -16.884  90.207  16.956  0.00  0.00    +0.000 A 
ATOM      8  C   UNL     1     -16.429  90.684  18.305  0.00  0.00    +0.000 C 
ATOM      9  C   UNL     1     -20.072  90.108  20.353  0.00  0.00    +0.000 A 
ATOM     10  C   UNL     1     -21.399  89.826  21.010  0.00  0.00    +0.000 C 
ATOM     11  C   UNL     1     -18.218  89.820  17.018  0.00  0.00    +0.000 A 
ATOM     12  C   UNL     1     -19.050  90.598  21.083  0.00  0.00    +0.000 A 
ATOM     13  C   UNL     1     -16.203  90.101  15.752  0.00  0.00    +0.000 A 
ATOM     14  C   UNL     1     -19.880  89.807  18.938  0.00  0.00    +0.000 A 
ATOM     15  C   UNL     1     -17.709  90.836  20.460  0.00  0.00    +0.000 A 
ATOM     16  C   UNL     1     -16.929  89.575  14.644  0.00  0.00    +0.000 A 
ATOM     17  C   UNL     1     -19.170  90.913  22.532  0.00  0.00    +0.000 C 
ATOM     18  C   UNL     1     -18.302  89.213  14.837  0.00  0.00    +0.000 A 
ATOM     19  C   UNL     1     -21.597  90.745  22.236  0.00  0.00    +0.000 C 
ATOM     20  C   UNL     1     -17.125  88.857  12.324  0.00  0.00    +0.000 A 
ATOM     21  C   UNL     1     -16.365  89.389  13.363  0.00  0.00    +0.000 A 
ATOM     22  C   UNL     1     -19.027  88.706  13.766  0.00  0.00    +0.000 A 
ATOM     23  C   UNL     1     -18.458  88.530  12.504  0.00  0.00    +0.000 A 
ENDROOT
BRANCH  10  24
ATOM     24  O   UNL     1     -22.447  90.096  20.068  0.00  0.00    +0.000 OA
ATOM     25  H   UNL     1     -22.281  89.513  19.301  0.00  0.00    +0.000 HD
ENDBRANCH  10  24
BRANCH  10  26
ATOM     26  C   UNL     1     -21.484  88.346  21.442  0.00  0.00    +0.000 C 
ATOM     27  C   UNL     1     -22.560  87.537  20.723  0.00  0.00    +0.000 C 
ENDBRANCH  10  26
BRANCH  13  28
ATOM     28  C   UNL     1     -14.751  90.505  15.673  0.00  0.00    +0.000 C 
ATOM     29  C   UNL     1     -14.582  91.994  15.414  0.00  0.00    +0.000 C 
ENDBRANCH  13  28
BRANCH  20  30
ATOM     30  O   UNL     1     -16.551  88.727  11.059  0.00  0.00    +0.000 OA
BRANCH  30  38
ATOM     31  O   UNL     1     -17.336  90.647  10.027  0.00  0.00    +0.000 OA
ATOM     32  N   UNL     1     -17.771  88.583   9.102  0.00  0.00    +0.000 N 
ATOM     33  C   UNL     1     -19.738  86.941   7.689  0.00  0.00    +0.000 C 
ATOM     34  C   UNL     1     -18.951  86.437   8.925  0.00  0.00    +0.000 C 
ATOM     35  C   UNL     1     -19.828  88.486   7.766  0.00  0.00    +0.000 C 
ATOM     36  C   UNL     1     -17.607  87.139   9.092  0.00  0.00    +0.000 C 
ATOM     37  C   UNL     1     -18.464  89.141   7.957  0.00  0.00    +0.000 C 
ATOM     38  C   UNL     1     -17.225  89.424  10.060  0.00  0.00    +0.000 C 
BRANCH  33  39
ATOM     39  N   UNL     1     -21.092  86.309   7.589  0.00  0.00    +0.000 NA
ATOM     40  C   UNL     1     -22.038  87.144   6.819  0.00  0.00    +0.000 C 
ATOM     41  C   UNL     1     -21.034  84.951   7.009  0.00  0.00    +0.000 C 
ATOM     42  C   UNL     1     -23.438  86.530   6.731  0.00  0.00    +0.000 C 
ATOM     43  C   UNL     1     -22.408  84.281   6.925  0.00  0.00    +0.000 C 
ATOM     44  C   UNL     1     -23.395  85.130   6.143  0.00  0.00    +0.000 C 
ENDBRANCH  33  39
ENDBRANCH  30  38
ENDBRANCH  20  30
TORSDOF 6
ENDMDL
