MODEL 1
REMARK VINA RESULT:      -5.4      0.000      0.000
REMARK  Name = 
REMARK  4 active torsions:
REMARK  status: ('A' for Active; 'I' for Inactive)
REMARK    1  A    between atoms: C_1  and  C_6
REMARK    2  A    between atoms: C_1  and  C_7
REMARK    3  A    between atoms: C_9  and  C_14
REMARK    4  A    between atoms: C_11  and  C_15
REMARK                            x       y       z     vdW  Elec       q    Type
REMARK                         _______ _______ _______ _____ _____    ______ ____
ROOT
ATOM      1  C   UNL     1     -23.010 101.931   2.736  0.00  0.00    +0.000 C 
ATOM      2  C   UNL     1     -22.830 103.342   2.184  0.00  0.00    +0.000 C 
ATOM      3  C   UNL     1     -23.654 103.120   3.428  0.00  0.00    +0.000 C 
ATOM      4  C   UNL     1     -23.422 103.709   0.899  0.00  0.00    +0.000 C 
ATOM      5  C   UNL     1     -25.123 103.402   3.445  0.00  0.00    +0.000 C 
ATOM      6  C   UNL     1     -23.871 100.917   2.019  0.00  0.00    +0.000 C 
ATOM      7  C   UNL     1     -21.817 101.305   3.418  0.00  0.00    +0.000 C 
ATOM      8  C   UNL     1     -24.539 104.402   0.608  0.00  0.00    +0.000 C 
ATOM      9  C   UNL     1     -22.709 103.269  -0.365  0.00  0.00    +0.000 C 
ATOM     10  C   UNL     1     -25.390 104.849   3.033  0.00  0.00    +0.000 C 
ATOM     11  C   UNL     1     -25.571 105.035   1.513  0.00  0.00    +0.000 C 
ATOM     12  C   UNL     1     -24.745 104.480  -0.883  0.00  0.00    +0.000 C 
ATOM     13  C   UNL     1     -23.807 103.406  -1.419  0.00  0.00    +0.000 C 
ATOM     14  C   UNL     1     -21.497 104.144  -0.678  0.00  0.00    +0.000 C 
ATOM     15  C   UNL     1     -25.704 106.536   1.220  0.00  0.00    +0.000 C 
ENDROOT
TORSDOF 0
ENDMDL
MODEL 2
REMARK VINA RESULT:      -5.3     15.901     17.556
REMARK  Name = 
REMARK  4 active torsions:
REMARK  status: ('A' for Active; 'I' for Inactive)
REMARK    1  A    between atoms: C_1  and  C_6
REMARK    2  A    between atoms: C_1  and  C_7
REMARK    3  A    between atoms: C_9  and  C_14
REMARK    4  A    between atoms: C_11  and  C_15
REMARK                            x       y       z     vdW  Elec       q    Type
REMARK                         _______ _______ _______ _____ _____    ______ ____
ROOT
ATOM      1  C   UNL     1     -42.832 101.979   4.089  0.00  0.00    +0.000 C 
ATOM      2  C   UNL     1     -41.713 101.314   3.294  0.00  0.00    +0.000 C 
ATOM      3  C   UNL     1     -41.467 101.748   4.716  0.00  0.00    +0.000 C 
ATOM      4  C   UNL     1     -41.122 101.997   2.145  0.00  0.00    +0.000 C 
ATOM      5  C   UNL     1     -40.484 102.829   5.039  0.00  0.00    +0.000 C 
ATOM      6  C   UNL     1     -43.288 103.384   3.769  0.00  0.00    +0.000 C 
ATOM      7  C   UNL     1     -43.960 101.092   4.559  0.00  0.00    +0.000 C 
ATOM      8  C   UNL     1     -39.966 102.678   2.022  0.00  0.00    +0.000 C 
ATOM      9  C   UNL     1     -41.883 101.976   0.834  0.00  0.00    +0.000 C 
ATOM     10  C   UNL     1     -39.107 102.478   4.477  0.00  0.00    +0.000 C 
ATOM     11  C   UNL     1     -38.883 102.974   3.035  0.00  0.00    +0.000 C 
ATOM     12  C   UNL     1     -39.822 103.238   0.630  0.00  0.00    +0.000 C 
ATOM     13  C   UNL     1     -41.232 103.125   0.064  0.00  0.00    +0.000 C 
ATOM     14  C   UNL     1     -41.743 100.642   0.106  0.00  0.00    +0.000 C 
ATOM     15  C   UNL     1     -37.525 102.451   2.546  0.00  0.00    +0.000 C 
ENDROOT
TORSDOF 0
ENDMDL
MODEL 3
REMARK VINA RESULT:      -5.0     14.258     15.993
REMARK  Name = 
REMARK  4 active torsions:
REMARK  status: ('A' for Active; 'I' for Inactive)
REMARK    1  A    between atoms: C_1  and  C_6
REMARK    2  A    between atoms: C_1  and  C_7
REMARK    3  A    between atoms: C_9  and  C_14
REMARK    4  A    between atoms: C_11  and  C_15
REMARK                            x       y       z     vdW  Elec       q    Type
REMARK                         _______ _______ _______ _____ _____    ______ ____
ROOT
ATOM      1  C   UNL     1     -40.760 102.037   3.960  0.00  0.00    +0.000 C 
ATOM      2  C   UNL     1     -39.978 101.984   2.651  0.00  0.00    +0.000 C 
ATOM      3  C   UNL     1     -39.265 101.767   3.962  0.00  0.00    +0.000 C 
ATOM      4  C   UNL     1     -39.806 103.193   1.849  0.00  0.00    +0.000 C 
ATOM      5  C   UNL     1     -38.227 102.728   4.449  0.00  0.00    +0.000 C 
ATOM      6  C   UNL     1     -41.293 103.344   4.498  0.00  0.00    +0.000 C 
ATOM      7  C   UNL     1     -41.667 100.868   4.264  0.00  0.00    +0.000 C 
ATOM      8  C   UNL     1     -38.757 104.029   1.726  0.00  0.00    +0.000 C 
ATOM      9  C   UNL     1     -40.965 103.643   0.981  0.00  0.00    +0.000 C 
ATOM     10  C   UNL     1     -37.121 102.887   3.407  0.00  0.00    +0.000 C 
ATOM     11  C   UNL     1     -37.395 104.006   2.381  0.00  0.00    +0.000 C 
ATOM     12  C   UNL     1     -39.089 105.168   0.796  0.00  0.00    +0.000 C 
ATOM     13  C   UNL     1     -40.608 105.101   0.695  0.00  0.00    +0.000 C 
ATOM     14  C   UNL     1     -41.084 102.816  -0.297  0.00  0.00    +0.000 C 
ATOM     15  C   UNL     1     -36.283 103.978   1.323  0.00  0.00    +0.000 C 
ENDROOT
TORSDOF 0
ENDMDL
MODEL 4
REMARK VINA RESULT:      -5.0     15.119     17.722
REMARK  Name = 
REMARK  4 active torsions:
REMARK  status: ('A' for Active; 'I' for Inactive)
REMARK    1  A    between atoms: C_1  and  C_6
REMARK    2  A    between atoms: C_1  and  C_7
REMARK    3  A    between atoms: C_9  and  C_14
REMARK    4  A    between atoms: C_11  and  C_15
REMARK                            x       y       z     vdW  Elec       q    Type
REMARK                         _______ _______ _______ _____ _____    ______ ____
ROOT
ATOM      1  C   UNL     1     -32.175 101.492  14.570  0.00  0.00    +0.000 C 
ATOM      2  C   UNL     1     -32.921 100.167  14.438  0.00  0.00    +0.000 C 
ATOM      3  C   UNL     1     -33.073 101.224  13.374  0.00  0.00    +0.000 C 
ATOM      4  C   UNL     1     -33.990  99.830  15.375  0.00  0.00    +0.000 C 
ATOM      5  C   UNL     1     -34.387 101.894  13.128  0.00  0.00    +0.000 C 
ATOM      6  C   UNL     1     -32.581 102.516  15.604  0.00  0.00    +0.000 C 
ATOM      7  C   UNL     1     -30.685 101.467  14.327  0.00  0.00    +0.000 C 
ATOM      8  C   UNL     1     -35.330  99.889  15.245  0.00  0.00    +0.000 C 
ATOM      9  C   UNL     1     -33.599  99.319  16.749  0.00  0.00    +0.000 C 
ATOM     10  C   UNL     1     -35.465 100.854  12.825  0.00  0.00    +0.000 C 
ATOM     11  C   UNL     1     -36.189 100.330  14.082  0.00  0.00    +0.000 C 
ATOM     12  C   UNL     1     -36.009  99.468  16.522  0.00  0.00    +0.000 C 
ATOM     13  C   UNL     1     -34.885  99.527  17.549  0.00  0.00    +0.000 C 
ATOM     14  C   UNL     1     -33.170  97.854  16.719  0.00  0.00    +0.000 C 
ATOM     15  C   UNL     1     -37.148  99.208  13.658  0.00  0.00    +0.000 C 
ENDROOT
TORSDOF 0
ENDMDL
MODEL 5
REMARK VINA RESULT:      -4.8     15.166     17.917
REMARK  Name = 
REMARK  4 active torsions:
REMARK  status: ('A' for Active; 'I' for Inactive)
REMARK    1  A    between atoms: C_1  and  C_6
REMARK    2  A    between atoms: C_1  and  C_7
REMARK    3  A    between atoms: C_9  and  C_14
REMARK    4  A    between atoms: C_11  and  C_15
REMARK                            x       y       z     vdW  Elec       q    Type
REMARK                         _______ _______ _______ _____ _____    ______ ____
ROOT
ATOM      1  C   UNL     1     -35.126 100.688  14.931  0.00  0.00    +0.000 C 
ATOM      2  C   UNL     1     -33.919 100.837  15.853  0.00  0.00    +0.000 C 
ATOM      3  C   UNL     1     -33.882 101.425  14.465  0.00  0.00    +0.000 C 
ATOM      4  C   UNL     1     -33.138  99.663  16.235  0.00  0.00    +0.000 C 
ATOM      5  C   UNL     1     -32.926 100.915  13.432  0.00  0.00    +0.000 C 
ATOM      6  C   UNL     1     -35.484  99.351  14.324  0.00  0.00    +0.000 C 
ATOM      7  C   UNL     1     -36.340 101.528  15.250  0.00  0.00    +0.000 C 
ATOM      8  C   UNL     1     -31.956  99.202  15.781  0.00  0.00    +0.000 C 
ATOM      9  C   UNL     1     -33.690  98.764  17.324  0.00  0.00    +0.000 C 
ATOM     10  C   UNL     1     -31.491 101.000  13.949  0.00  0.00    +0.000 C 
ATOM     11  C   UNL     1     -31.033  99.741  14.712  0.00  0.00    +0.000 C 
ATOM     12  C   UNL     1     -31.584  97.916  16.472  0.00  0.00    +0.000 C 
ATOM     13  C   UNL     1     -32.893  97.476  17.115  0.00  0.00    +0.000 C 
ATOM     14  C   UNL     1     -33.481  99.351  18.718  0.00  0.00    +0.000 C 
ATOM     15  C   UNL     1     -29.633 100.002  15.284  0.00  0.00    +0.000 C 
ENDROOT
TORSDOF 0
ENDMDL
MODEL 6
REMARK VINA RESULT:      -4.7     16.382     17.936
REMARK  Name = 
REMARK  4 active torsions:
REMARK  status: ('A' for Active; 'I' for Inactive)
REMARK    1  A    between atoms: C_1  and  C_6
REMARK    2  A    between atoms: C_1  and  C_7
REMARK    3  A    between atoms: C_9  and  C_14
REMARK    4  A    between atoms: C_11  and  C_15
REMARK                            x       y       z     vdW  Elec       q    Type
REMARK                         _______ _______ _______ _____ _____    ______ ____
ROOT
ATOM      1  C   UNL     1     -39.890 102.872   3.898  0.00  0.00    +0.000 C 
ATOM      2  C   UNL     1     -41.249 103.181   3.277  0.00  0.00    +0.000 C 
ATOM      3  C   UNL     1     -41.161 102.276   4.480  0.00  0.00    +0.000 C 
ATOM      4  C   UNL     1     -41.573 102.689   1.940  0.00  0.00    +0.000 C 
ATOM      5  C   UNL     1     -41.542 100.832   4.393  0.00  0.00    +0.000 C 
ATOM      6  C   UNL     1     -38.893 101.982   3.193  0.00  0.00    +0.000 C 
ATOM      7  C   UNL     1     -39.230 103.978   4.687  0.00  0.00    +0.000 C 
ATOM      8  C   UNL     1     -42.320 101.641   1.542  0.00  0.00    +0.000 C 
ATOM      9  C   UNL     1     -41.009 103.438   0.748  0.00  0.00    +0.000 C 
ATOM     10  C   UNL     1     -42.975 100.690   3.881  0.00  0.00    +0.000 C 
ATOM     11  C   UNL     1     -43.077 100.607   2.345  0.00  0.00    +0.000 C 
ATOM     12  C   UNL     1     -42.319 101.524   0.039  0.00  0.00    +0.000 C 
ATOM     13  C   UNL     1     -41.152 102.412  -0.376  0.00  0.00    +0.000 C 
ATOM     14  C   UNL     1     -41.778 104.724   0.457  0.00  0.00    +0.000 C 
ATOM     15  C   UNL     1     -44.562 100.598   1.957  0.00  0.00    +0.000 C 
ENDROOT
TORSDOF 0
ENDMDL
MODEL 7
REMARK VINA RESULT:      -4.6     16.518     19.032
REMARK  Name = 
REMARK  4 active torsions:
REMARK  status: ('A' for Active; 'I' for Inactive)
REMARK    1  A    between atoms: C_1  and  C_6
REMARK    2  A    between atoms: C_1  and  C_7
REMARK    3  A    between atoms: C_9  and  C_14
REMARK    4  A    between atoms: C_11  and  C_15
REMARK                            x       y       z     vdW  Elec       q    Type
REMARK                         _______ _______ _______ _____ _____    ______ ____
ROOT
ATOM      1  C   UNL     1     -37.338  99.720  16.671  0.00  0.00    +0.000 C 
ATOM      2  C   UNL     1     -36.498  98.964  15.646  0.00  0.00    +0.000 C 
ATOM      3  C   UNL     1     -36.399  98.608  17.108  0.00  0.00    +0.000 C 
ATOM      4  C   UNL     1     -35.427  99.649  14.926  0.00  0.00    +0.000 C 
ATOM      5  C   UNL     1     -35.131  98.816  17.874  0.00  0.00    +0.000 C 
ATOM      6  C   UNL     1     -37.028 101.154  17.029  0.00  0.00    +0.000 C 
ATOM      7  C   UNL     1     -38.817  99.417  16.701  0.00  0.00    +0.000 C 
ATOM      8  C   UNL     1     -34.092  99.641  15.111  0.00  0.00    +0.000 C 
ATOM      9  C   UNL     1     -35.808 100.537  13.758  0.00  0.00    +0.000 C 
ATOM     10  C   UNL     1     -33.975  98.079  17.197  0.00  0.00    +0.000 C 
ATOM     11  C   UNL     1     -33.243  98.922  16.134  0.00  0.00    +0.000 C 
ATOM     12  C   UNL     1     -33.411 100.553  14.123  0.00  0.00    +0.000 C 
ATOM     13  C   UNL     1     -34.558 101.400  13.585  0.00  0.00    +0.000 C 
ATOM     14  C   UNL     1     -36.132  99.732  12.502  0.00  0.00    +0.000 C 
ATOM     15  C   UNL     1     -32.198  98.033  15.445  0.00  0.00    +0.000 C 
ENDROOT
TORSDOF 0
ENDMDL
MODEL 8
REMARK VINA RESULT:      -4.5     15.111     17.471
REMARK  Name = 
REMARK  4 active torsions:
REMARK  status: ('A' for Active; 'I' for Inactive)
REMARK    1  A    between atoms: C_1  and  C_6
REMARK    2  A    between atoms: C_1  and  C_7
REMARK    3  A    between atoms: C_9  and  C_14
REMARK    4  A    between atoms: C_11  and  C_15
REMARK                            x       y       z     vdW  Elec       q    Type
REMARK                         _______ _______ _______ _____ _____    ______ ____
ROOT
ATOM      1  C   UNL     1     -30.744  98.665  18.744  0.00  0.00    +0.000 C 
ATOM      2  C   UNL     1     -31.161  99.957  18.047  0.00  0.00    +0.000 C 
ATOM      3  C   UNL     1     -31.919  98.681  17.781  0.00  0.00    +0.000 C 
ATOM      4  C   UNL     1     -30.280 100.575  17.058  0.00  0.00    +0.000 C 
ATOM      5  C   UNL     1     -31.917  98.047  16.425  0.00  0.00    +0.000 C 
ATOM      6  C   UNL     1     -29.466  97.952  18.366  0.00  0.00    +0.000 C 
ATOM      7  C   UNL     1     -31.066  98.545  20.214  0.00  0.00    +0.000 C 
ATOM      8  C   UNL     1     -30.319 100.562  15.711  0.00  0.00    +0.000 C 
ATOM      9  C   UNL     1     -29.102 101.385  17.561  0.00  0.00    +0.000 C 
ATOM     10  C   UNL     1     -32.410  99.040  15.374  0.00  0.00    +0.000 C 
ATOM     11  C   UNL     1     -31.286  99.897  14.759  0.00  0.00    +0.000 C 
ATOM     12  C   UNL     1     -29.151 101.322  15.137  0.00  0.00    +0.000 C 
ATOM     13  C   UNL     1     -28.206 101.454  16.324  0.00  0.00    +0.000 C 
ATOM     14  C   UNL     1     -29.519 102.771  18.048  0.00  0.00    +0.000 C 
ATOM     15  C   UNL     1     -31.923 100.933  13.821  0.00  0.00    +0.000 C 
ENDROOT
TORSDOF 0
ENDMDL
MODEL 9
REMARK VINA RESULT:      -4.5     21.921     24.017
REMARK  Name = 
REMARK  4 active torsions:
REMARK  status: ('A' for Active; 'I' for Inactive)
REMARK    1  A    between atoms: C_1  and  C_6
REMARK    2  A    between atoms: C_1  and  C_7
REMARK    3  A    between atoms: C_9  and  C_14
REMARK    4  A    between atoms: C_11  and  C_15
REMARK                            x       y       z     vdW  Elec       q    Type
REMARK                         _______ _______ _______ _____ _____    ______ ____
ROOT
ATOM      1  C   UNL     1     -33.411  87.460  17.547  0.00  0.00    +0.000 C 
ATOM      2  C   UNL     1     -32.103  87.680  18.302  0.00  0.00    +0.000 C 
ATOM      3  C   UNL     1     -33.407  87.625  19.057  0.00  0.00    +0.000 C 
ATOM      4  C   UNL     1     -31.348  88.917  18.117  0.00  0.00    +0.000 C 
ATOM      5  C   UNL     1     -33.933  88.823  19.783  0.00  0.00    +0.000 C 
ATOM      6  C   UNL     1     -33.997  88.541  16.669  0.00  0.00    +0.000 C 
ATOM      7  C   UNL     1     -33.667  86.071  17.011  0.00  0.00    +0.000 C 
ATOM      8  C   UNL     1     -31.260  90.020  18.885  0.00  0.00    +0.000 C 
ATOM      9  C   UNL     1     -30.494  89.051  16.871  0.00  0.00    +0.000 C 
ATOM     10  C   UNL     1     -32.901  89.329  20.790  0.00  0.00    +0.000 C 
ATOM     11  C   UNL     1     -31.918  90.361  20.202  0.00  0.00    +0.000 C 
ATOM     12  C   UNL     1     -30.373  91.052  18.236  0.00  0.00    +0.000 C 
ATOM     13  C   UNL     1     -30.265  90.560  16.798  0.00  0.00    +0.000 C 
ATOM     14  C   UNL     1     -29.185  88.273  16.982  0.00  0.00    +0.000 C 
ATOM     15  C   UNL     1     -30.863  90.689  21.268  0.00  0.00    +0.000 C 
ENDROOT
TORSDOF 0
ENDMDL
