MODEL 1
REMARK VINA RESULT:      -7.3      0.000      0.000
REMARK  Name = JAK3_Inhibitor.pdbqt.pdb
REMARK  1 active torsions:
REMARK  status: ('A' for Active; 'I' for Inactive)
REMARK    1  A    between atoms: C_7  and  C_20
REMARK                            x       y       z     vdW  Elec       q    Type
REMARK                         _______ _______ _______ _____ _____    ______ ____
ROOT
ATOM      1  O   UNL     1     -29.762  98.715  16.548  0.00  0.00    +0.000 OA
ATOM      2  N   UNL     1     -30.853 100.049  14.961  0.00  0.00    +0.000 N 
ATOM      3  C   UNL     1     -33.024  99.370  15.261  0.00  0.00    +0.000 A 
ATOM      4  C   UNL     1     -32.174 100.214  14.543  0.00  0.00    +0.000 A 
ATOM      5  C   UNL     1     -32.169  98.638  16.180  0.00  0.00    +0.000 C 
ATOM      6  C   UNL     1     -34.384  99.357  15.021  0.00  0.00    +0.000 A 
ATOM      7  C   UNL     1     -34.909 100.212  14.036  0.00  0.00    +0.000 A 
ATOM      8  C   UNL     1     -30.761  99.095  15.968  0.00  0.00    +0.000 C 
ATOM      9  C   UNL     1     -32.641 101.069  13.569  0.00  0.00    +0.000 A 
ATOM     10  C   UNL     1     -32.517  97.740  17.046  0.00  0.00    +0.000 C 
ATOM     11  C   UNL     1     -34.017 101.053  13.330  0.00  0.00    +0.000 A 
ATOM     12  H   UNL     1     -30.052 100.544  14.597  0.00  0.00    +0.000 HD
ATOM     13  N   UNL     1     -31.927  96.137  18.816  0.00  0.00    +0.000 N 
ATOM     14  C   UNL     1     -32.847  96.753  18.008  0.00  0.00    +0.000 C 
ATOM     15  C   UNL     1     -34.087  96.241  18.311  0.00  0.00    +0.000 C 
ATOM     16  C   UNL     1     -32.566  95.238  19.630  0.00  0.00    +0.000 C 
ATOM     17  C   UNL     1     -33.909  95.283  19.336  0.00  0.00    +0.000 C 
ATOM     18  H   UNL     1     -30.933  96.318  18.811  0.00  0.00    +0.000 HD
ENDROOT
BRANCH   7  20
ATOM     19  N   UNL     1     -38.205 101.099  12.427  0.00  0.00    +0.000 NA
ATOM     20  C   UNL     1     -36.347 100.232  13.747  0.00  0.00    +0.000 A 
ATOM     21  C   UNL     1     -37.260  99.450  14.458  0.00  0.00    +0.000 A 
ATOM     22  C   UNL     1     -36.893 101.031  12.747  0.00  0.00    +0.000 A 
ATOM     23  C   UNL     1     -38.619  99.482  14.169  0.00  0.00    +0.000 A 
ATOM     24  C   UNL     1     -39.036 100.319  13.150  0.00  0.00    +0.000 A 
ENDBRANCH   7  20
TORSDOF 1
ENDMDL
MODEL 2
REMARK VINA RESULT:      -6.8     12.721     15.653
REMARK  Name = JAK3_Inhibitor.pdbqt.pdb
REMARK  1 active torsions:
REMARK  status: ('A' for Active; 'I' for Inactive)
REMARK    1  A    between atoms: C_7  and  C_20
REMARK                            x       y       z     vdW  Elec       q    Type
REMARK                         _______ _______ _______ _____ _____    ______ ____
ROOT
ATOM      1  O   UNL     1     -34.735 105.568   3.860  0.00  0.00    +0.000 OA
ATOM      2  N   UNL     1     -36.566 104.518   4.875  0.00  0.00    +0.000 N 
ATOM      3  C   UNL     1     -37.668 103.716   3.029  0.00  0.00    +0.000 A 
ATOM      4  C   UNL     1     -37.678 103.806   4.422  0.00  0.00    +0.000 A 
ATOM      5  C   UNL     1     -36.471 104.419   2.597  0.00  0.00    +0.000 C 
ATOM      6  C   UNL     1     -38.674 103.056   2.351  0.00  0.00    +0.000 A 
ATOM      7  C   UNL     1     -39.717 102.468   3.086  0.00  0.00    +0.000 A 
ATOM      8  C   UNL     1     -35.770 104.932   3.814  0.00  0.00    +0.000 C 
ATOM      9  C   UNL     1     -38.678 103.247   5.186  0.00  0.00    +0.000 A 
ATOM     10  C   UNL     1     -36.048 104.596   1.387  0.00  0.00    +0.000 C 
ATOM     11  C   UNL     1     -39.693 102.579   4.497  0.00  0.00    +0.000 A 
ATOM     12  H   UNL     1     -36.346 104.718   5.840  0.00  0.00    +0.000 HD
ATOM     13  N   UNL     1     -34.387 105.507  -0.184  0.00  0.00    +0.000 N 
ATOM     14  C   UNL     1     -35.541 104.817   0.081  0.00  0.00    +0.000 C 
ATOM     15  C   UNL     1     -36.074 104.406  -1.119  0.00  0.00    +0.000 C 
ATOM     16  C   UNL     1     -34.178 105.542  -1.537  0.00  0.00    +0.000 C 
ATOM     17  C   UNL     1     -35.212 104.865  -2.143  0.00  0.00    +0.000 C 
ATOM     18  H   UNL     1     -33.784 105.925   0.513  0.00  0.00    +0.000 HD
ENDROOT
BRANCH   7  20
ATOM     19  N   UNL     1     -42.958 100.616   2.532  0.00  0.00    +0.000 NA
ATOM     20  C   UNL     1     -40.806 101.755   2.408  0.00  0.00    +0.000 A 
ATOM     21  C   UNL     1     -40.792 101.511   1.033  0.00  0.00    +0.000 A 
ATOM     22  C   UNL     1     -41.921 101.279   3.091  0.00  0.00    +0.000 A 
ATOM     23  C   UNL     1     -41.834 100.834   0.408  0.00  0.00    +0.000 A 
ATOM     24  C   UNL     1     -42.886 100.411   1.200  0.00  0.00    +0.000 A 
ENDBRANCH   7  20
TORSDOF 1
ENDMDL
MODEL 3
REMARK VINA RESULT:      -6.7     14.335     18.026
REMARK  Name = JAK3_Inhibitor.pdbqt.pdb
REMARK  1 active torsions:
REMARK  status: ('A' for Active; 'I' for Inactive)
REMARK    1  A    between atoms: C_7  and  C_20
REMARK                            x       y       z     vdW  Elec       q    Type
REMARK                         _______ _______ _______ _____ _____    ______ ____
ROOT
ATOM      1  O   UNL     1     -45.459 100.515   1.449  0.00  0.00    +0.000 OA
ATOM      2  N   UNL     1     -43.734 100.599   3.031  0.00  0.00    +0.000 N 
ATOM      3  C   UNL     1     -42.112 101.688   1.829  0.00  0.00    +0.000 A 
ATOM      4  C   UNL     1     -42.433 101.102   3.055  0.00  0.00    +0.000 A 
ATOM      5  C   UNL     1     -43.295 101.535   0.998  0.00  0.00    +0.000 C 
ATOM      6  C   UNL     1     -40.872 102.255   1.614  0.00  0.00    +0.000 A 
ATOM      7  C   UNL     1     -39.926 102.237   2.653  0.00  0.00    +0.000 A 
ATOM      8  C   UNL     1     -44.337 100.824   1.799  0.00  0.00    +0.000 C 
ATOM      9  C   UNL     1     -41.541 101.059   4.103  0.00  0.00    +0.000 A 
ATOM     10  C   UNL     1     -43.462 101.927  -0.225  0.00  0.00    +0.000 C 
ATOM     11  C   UNL     1     -40.287 101.634   3.882  0.00  0.00    +0.000 A 
ATOM     12  H   UNL     1     -44.200 100.130   3.795  0.00  0.00    +0.000 HD
ATOM     13  N   UNL     1     -44.872 102.123  -2.232  0.00  0.00    +0.000 N 
ATOM     14  C   UNL     1     -43.695 102.336  -1.562  0.00  0.00    +0.000 C 
ATOM     15  C   UNL     1     -42.838 102.994  -2.413  0.00  0.00    +0.000 C 
ATOM     16  C   UNL     1     -44.774 102.636  -3.498  0.00  0.00    +0.000 C 
ATOM     17  C   UNL     1     -43.520 103.184  -3.637  0.00  0.00    +0.000 C 
ATOM     18  H   UNL     1     -45.685 101.659  -1.849  0.00  0.00    +0.000 HD
ENDROOT
BRANCH   7  20
ATOM     19  N   UNL     1     -37.181 104.512   1.419  0.00  0.00    +0.000 NA
ATOM     20  C   UNL     1     -38.596 102.828   2.470  0.00  0.00    +0.000 A 
ATOM     21  C   UNL     1     -37.465 102.333   3.124  0.00  0.00    +0.000 A 
ATOM     22  C   UNL     1     -38.376 103.918   1.634  0.00  0.00    +0.000 A 
ATOM     23  C   UNL     1     -36.213 102.907   2.937  0.00  0.00    +0.000 A 
ATOM     24  C   UNL     1     -36.127 103.988   2.079  0.00  0.00    +0.000 A 
ENDBRANCH   7  20
TORSDOF 1
ENDMDL
MODEL 4
REMARK VINA RESULT:      -6.5      3.687      8.569
REMARK  Name = JAK3_Inhibitor.pdbqt.pdb
REMARK  1 active torsions:
REMARK  status: ('A' for Active; 'I' for Inactive)
REMARK    1  A    between atoms: C_7  and  C_20
REMARK                            x       y       z     vdW  Elec       q    Type
REMARK                         _______ _______ _______ _____ _____    ______ ____
ROOT
ATOM      1  O   UNL     1     -40.550 102.244  13.199  0.00  0.00    +0.000 OA
ATOM      2  N   UNL     1     -39.276 100.402  13.884  0.00  0.00    +0.000 N 
ATOM      3  C   UNL     1     -37.164 101.295  13.799  0.00  0.00    +0.000 A 
ATOM      4  C   UNL     1     -37.917 100.154  14.084  0.00  0.00    +0.000 A 
ATOM      5  C   UNL     1     -38.124 102.310  13.399  0.00  0.00    +0.000 C 
ATOM      6  C   UNL     1     -35.789 101.290  13.924  0.00  0.00    +0.000 A 
ATOM      7  C   UNL     1     -35.149 100.112  14.347  0.00  0.00    +0.000 A 
ATOM      8  C   UNL     1     -39.491 101.708  13.461  0.00  0.00    +0.000 C 
ATOM      9  C   UNL     1     -37.336  98.977  14.501  0.00  0.00    +0.000 A 
ATOM     10  C   UNL     1     -37.885 103.532  13.041  0.00  0.00    +0.000 C 
ATOM     11  C   UNL     1     -35.945  98.976  14.627  0.00  0.00    +0.000 A 
ATOM     12  H   UNL     1     -40.024  99.737  14.023  0.00  0.00    +0.000 HD
ATOM     13  N   UNL     1     -38.686 105.733  12.286  0.00  0.00    +0.000 N 
ATOM     14  C   UNL     1     -37.677 104.877  12.644  0.00  0.00    +0.000 C 
ATOM     15  C   UNL     1     -36.487 105.559  12.542  0.00  0.00    +0.000 C 
ATOM     16  C   UNL     1     -38.153 106.951  11.957  0.00  0.00    +0.000 C 
ATOM     17  C   UNL     1     -36.788 106.871  12.107  0.00  0.00    +0.000 C 
ATOM     18  H   UNL     1     -39.669 105.499  12.268  0.00  0.00    +0.000 HD
ENDROOT
BRANCH   7  20
ATOM     19  N   UNL     1     -31.725  99.049  15.523  0.00  0.00    +0.000 NA
ATOM     20  C   UNL     1     -33.690 100.061  14.494  0.00  0.00    +0.000 A 
ATOM     21  C   UNL     1     -32.841 100.922  13.796  0.00  0.00    +0.000 A 
ATOM     22  C   UNL     1     -33.060  99.152  15.339  0.00  0.00    +0.000 A 
ATOM     23  C   UNL     1     -31.461 100.858  13.949  0.00  0.00    +0.000 A 
ATOM     24  C   UNL     1     -30.958  99.908  14.820  0.00  0.00    +0.000 A 
ENDBRANCH   7  20
TORSDOF 1
ENDMDL
MODEL 5
REMARK VINA RESULT:      -6.4     10.313     12.504
REMARK  Name = JAK3_Inhibitor.pdbqt.pdb
REMARK  1 active torsions:
REMARK  status: ('A' for Active; 'I' for Inactive)
REMARK    1  A    between atoms: C_7  and  C_20
REMARK                            x       y       z     vdW  Elec       q    Type
REMARK                         _______ _______ _______ _____ _____    ______ ____
ROOT
ATOM      1  O   UNL     1     -35.185  89.107  20.024  0.00  0.00    +0.000 OA
ATOM      2  N   UNL     1     -33.127  90.173  19.682  0.00  0.00    +0.000 N 
ATOM      3  C   UNL     1     -32.274  88.904  17.972  0.00  0.00    +0.000 A 
ATOM      4  C   UNL     1     -32.045  89.989  18.820  0.00  0.00    +0.000 A 
ATOM      5  C   UNL     1     -33.583  88.387  18.337  0.00  0.00    +0.000 C 
ATOM      6  C   UNL     1     -31.338  88.527  17.029  0.00  0.00    +0.000 A 
ATOM      7  C   UNL     1     -30.141  89.257  16.930  0.00  0.00    +0.000 A 
ATOM      8  C   UNL     1     -34.119  89.227  19.451  0.00  0.00    +0.000 C 
ATOM      9  C   UNL     1     -30.888  90.734  18.762  0.00  0.00    +0.000 A 
ATOM     10  C   UNL     1     -34.212  87.381  17.820  0.00  0.00    +0.000 C 
ATOM     11  C   UNL     1     -29.945  90.351  17.806  0.00  0.00    +0.000 A 
ATOM     12  H   UNL     1     -33.204  90.891  20.388  0.00  0.00    +0.000 HD
ATOM     13  N   UNL     1     -36.180  85.907  17.733  0.00  0.00    +0.000 N 
ATOM     14  C   UNL     1     -34.942  86.289  17.287  0.00  0.00    +0.000 C 
ATOM     15  C   UNL     1     -34.578  85.437  16.270  0.00  0.00    +0.000 C 
ATOM     16  C   UNL     1     -36.609  84.823  17.014  0.00  0.00    +0.000 C 
ATOM     17  C   UNL     1     -35.632  84.509  16.098  0.00  0.00    +0.000 C 
ATOM     18  H   UNL     1     -36.696  86.357  18.478  0.00  0.00    +0.000 HD
ENDROOT
BRANCH   7  20
ATOM     19  N   UNL     1     -27.506  89.584  14.249  0.00  0.00    +0.000 NA
ATOM     20  C   UNL     1     -29.119  88.894  15.942  0.00  0.00    +0.000 A 
ATOM     21  C   UNL     1     -28.746  87.568  15.711  0.00  0.00    +0.000 A 
ATOM     22  C   UNL     1     -28.456  89.846  15.174  0.00  0.00    +0.000 A 
ATOM     23  C   UNL     1     -27.774  87.244  14.771  0.00  0.00    +0.000 A 
ATOM     24  C   UNL     1     -27.189  88.284  14.071  0.00  0.00    +0.000 A 
ENDBRANCH   7  20
TORSDOF 1
ENDMDL
MODEL 6
REMARK VINA RESULT:      -6.2     14.161     16.217
REMARK  Name = JAK3_Inhibitor.pdbqt.pdb
REMARK  1 active torsions:
REMARK  status: ('A' for Active; 'I' for Inactive)
REMARK    1  A    between atoms: C_7  and  C_20
REMARK                            x       y       z     vdW  Elec       q    Type
REMARK                         _______ _______ _______ _____ _____    ______ ____
ROOT
ATOM      1  O   UNL     1     -46.395 100.520   3.020  0.00  0.00    +0.000 OA
ATOM      2  N   UNL     1     -44.550 100.353   1.587  0.00  0.00    +0.000 N 
ATOM      3  C   UNL     1     -43.002 101.587   2.746  0.00  0.00    +0.000 A 
ATOM      4  C   UNL     1     -43.240 100.832   1.596  0.00  0.00    +0.000 A 
ATOM      5  C   UNL     1     -44.249 101.571   3.492  0.00  0.00    +0.000 C 
ATOM      6  C   UNL     1     -41.771 102.167   2.975  0.00  0.00    +0.000 A 
ATOM      7  C   UNL     1     -40.747 101.986   2.029  0.00  0.00    +0.000 A 
ATOM      8  C   UNL     1     -45.242 100.763   2.720  0.00  0.00    +0.000 C 
ATOM      9  C   UNL     1     -42.269 100.626   0.640  0.00  0.00    +0.000 A 
ATOM     10  C   UNL     1     -44.504 102.141   4.627  0.00  0.00    +0.000 C 
ATOM     11  C   UNL     1     -41.024 101.214   0.876  0.00  0.00    +0.000 A 
ATOM     12  H   UNL     1     -44.965  99.781   0.865  0.00  0.00    +0.000 HD
ATOM     13  N   UNL     1     -46.063 102.648   6.462  0.00  0.00    +0.000 N 
ATOM     14  C   UNL     1     -44.832 102.745   5.867  0.00  0.00    +0.000 C 
ATOM     15  C   UNL     1     -44.027 103.508   6.681  0.00  0.00    +0.000 C 
ATOM     16  C   UNL     1     -46.053 103.340   7.644  0.00  0.00    +0.000 C 
ATOM     17  C   UNL     1     -44.799 103.885   7.805  0.00  0.00    +0.000 C 
ATOM     18  H   UNL     1     -46.854 102.144   6.085  0.00  0.00    +0.000 HD
ENDROOT
BRANCH   7  20
ATOM     19  N   UNL     1     -37.768 104.265   1.615  0.00  0.00    +0.000 NA
ATOM     20  C   UNL     1     -39.422 102.583   2.231  0.00  0.00    +0.000 A 
ATOM     21  C   UNL     1     -38.527 102.101   3.189  0.00  0.00    +0.000 A 
ATOM     22  C   UNL     1     -38.973 103.667   1.482  0.00  0.00    +0.000 A 
ATOM     23  C   UNL     1     -37.276 102.681   3.366  0.00  0.00    +0.000 A 
ATOM     24  C   UNL     1     -36.949 103.754   2.557  0.00  0.00    +0.000 A 
ENDBRANCH   7  20
TORSDOF 1
ENDMDL
MODEL 7
REMARK VINA RESULT:      -6.2     13.233     16.100
REMARK  Name = JAK3_Inhibitor.pdbqt.pdb
REMARK  1 active torsions:
REMARK  status: ('A' for Active; 'I' for Inactive)
REMARK    1  A    between atoms: C_7  and  C_20
REMARK                            x       y       z     vdW  Elec       q    Type
REMARK                         _______ _______ _______ _____ _____    ______ ____
ROOT
ATOM      1  O   UNL     1     -48.114 100.343   3.772  0.00  0.00    +0.000 OA
ATOM      2  N   UNL     1     -46.123 100.300   2.540  0.00  0.00    +0.000 N 
ATOM      3  C   UNL     1     -44.671 101.231   4.053  0.00  0.00    +0.000 A 
ATOM      4  C   UNL     1     -44.803 100.690   2.772  0.00  0.00    +0.000 A 
ATOM      5  C   UNL     1     -45.996 101.169   4.646  0.00  0.00    +0.000 C 
ATOM      6  C   UNL     1     -43.451 101.689   4.510  0.00  0.00    +0.000 A 
ATOM      7  C   UNL     1     -42.332 101.603   3.664  0.00  0.00    +0.000 A 
ATOM      8  C   UNL     1     -46.925 100.561   3.645  0.00  0.00    +0.000 C 
ATOM      9  C   UNL     1     -43.737 100.584   1.907  0.00  0.00    +0.000 A 
ATOM     10  C   UNL     1     -46.358 101.560   5.826  0.00  0.00    +0.000 C 
ATOM     11  C   UNL     1     -42.505 101.048   2.373  0.00  0.00    +0.000 A 
ATOM     12  H   UNL     1     -46.474  99.881   1.691  0.00  0.00    +0.000 HD
ATOM     13  N   UNL     1     -48.099 101.855   7.540  0.00  0.00    +0.000 N 
ATOM     14  C   UNL     1     -46.803 101.972   7.107  0.00  0.00    +0.000 C 
ATOM     15  C   UNL     1     -46.069 102.541   8.122  0.00  0.00    +0.000 C 
ATOM     16  C   UNL     1     -48.198 102.342   8.816  0.00  0.00    +0.000 C 
ATOM     17  C   UNL     1     -46.951 102.775   9.202  0.00  0.00    +0.000 C 
ATOM     18  H   UNL     1     -48.861 101.468   6.999  0.00  0.00    +0.000 HD
ENDROOT
BRANCH   7  20
ATOM     19  N   UNL     1     -39.683 103.404   5.658  0.00  0.00    +0.000 NA
ATOM     20  C   UNL     1     -41.016 102.077   4.107  0.00  0.00    +0.000 A 
ATOM     21  C   UNL     1     -39.835 101.702   3.463  0.00  0.00    +0.000 A 
ATOM     22  C   UNL     1     -40.861 102.930   5.196  0.00  0.00    +0.000 A 
ATOM     23  C   UNL     1     -38.597 102.161   3.898  0.00  0.00    +0.000 A 
ATOM     24  C   UNL     1     -38.578 103.005   4.994  0.00  0.00    +0.000 A 
ENDBRANCH   7  20
TORSDOF 1
ENDMDL
MODEL 8
REMARK VINA RESULT:      -6.2     13.397     17.084
REMARK  Name = JAK3_Inhibitor.pdbqt.pdb
REMARK  1 active torsions:
REMARK  status: ('A' for Active; 'I' for Inactive)
REMARK    1  A    between atoms: C_7  and  C_20
REMARK                            x       y       z     vdW  Elec       q    Type
REMARK                         _______ _______ _______ _____ _____    ______ ____
ROOT
ATOM      1  O   UNL     1     -42.676 100.713   3.058  0.00  0.00    +0.000 OA
ATOM      2  N   UNL     1     -40.608 101.289   3.994  0.00  0.00    +0.000 N 
ATOM      3  C   UNL     1     -39.695 102.510   2.279  0.00  0.00    +0.000 A 
ATOM      4  C   UNL     1     -39.496 102.019   3.571  0.00  0.00    +0.000 A 
ATOM      5  C   UNL     1     -41.016 102.052   1.883  0.00  0.00    +0.000 C 
ATOM      6  C   UNL     1     -38.727 103.265   1.648  0.00  0.00    +0.000 A 
ATOM      7  C   UNL     1     -37.527 103.538   2.326  0.00  0.00    +0.000 A 
ATOM      8  C   UNL     1     -41.591 101.259   3.012  0.00  0.00    +0.000 C 
ATOM      9  C   UNL     1     -38.338 102.259   4.277  0.00  0.00    +0.000 A 
ATOM     10  C   UNL     1     -41.627 102.264   0.761  0.00  0.00    +0.000 C 
ATOM     11  C   UNL     1     -37.361 103.024   3.635  0.00  0.00    +0.000 A 
ATOM     12  H   UNL     1     -40.709 100.834   4.890  0.00  0.00    +0.000 HD
ATOM     13  N   UNL     1     -43.591 101.971  -0.692  0.00  0.00    +0.000 N 
ATOM     14  C   UNL     1     -42.338 102.469  -0.448  0.00  0.00    +0.000 C 
ATOM     15  C   UNL     1     -41.938 103.171  -1.562  0.00  0.00    +0.000 C 
ATOM     16  C   UNL     1     -43.994 102.345  -1.946  0.00  0.00    +0.000 C 
ATOM     17  C   UNL     1     -42.986 103.092  -2.509  0.00  0.00    +0.000 C 
ATOM     18  H   UNL     1     -44.132 101.413  -0.044  0.00  0.00    +0.000 HD
ENDROOT
BRANCH   7  20
ATOM     19  N   UNL     1     -35.490 105.287  -0.325  0.00  0.00    +0.000 NA
ATOM     20  C   UNL     1     -36.470 104.336   1.695  0.00  0.00    +0.000 A 
ATOM     21  C   UNL     1     -35.436 104.918   2.431  0.00  0.00    +0.000 A 
ATOM     22  C   UNL     1     -36.431 104.564   0.322  0.00  0.00    +0.000 A 
ATOM     23  C   UNL     1     -34.444 105.671   1.814  0.00  0.00    +0.000 A 
ATOM     24  C   UNL     1     -34.518 105.824   0.442  0.00  0.00    +0.000 A 
ENDBRANCH   7  20
TORSDOF 1
ENDMDL
MODEL 9
REMARK VINA RESULT:      -6.1     14.960     18.024
REMARK  Name = JAK3_Inhibitor.pdbqt.pdb
REMARK  1 active torsions:
REMARK  status: ('A' for Active; 'I' for Inactive)
REMARK    1  A    between atoms: C_7  and  C_20
REMARK                            x       y       z     vdW  Elec       q    Type
REMARK                         _______ _______ _______ _____ _____    ______ ____
ROOT
ATOM      1  O   UNL     1     -23.421 102.721   7.043  0.00  0.00    +0.000 OA
ATOM      2  N   UNL     1     -22.129 100.901   7.755  0.00  0.00    +0.000 N 
ATOM      3  C   UNL     1     -21.640  99.918   5.740  0.00  0.00    +0.000 A 
ATOM      4  C   UNL     1     -21.469  99.845   7.124  0.00  0.00    +0.000 A 
ATOM      5  C   UNL     1     -22.457 101.097   5.505  0.00  0.00    +0.000 C 
ATOM      6  C   UNL     1     -21.077  98.976   4.903  0.00  0.00    +0.000 A 
ATOM      7  C   UNL     1     -20.322  97.932   5.465  0.00  0.00    +0.000 A 
ATOM      8  C   UNL     1     -22.763 101.721   6.829  0.00  0.00    +0.000 C 
ATOM      9  C   UNL     1     -20.739  98.842   7.722  0.00  0.00    +0.000 A 
ATOM     10  C   UNL     1     -22.873 101.562   4.371  0.00  0.00    +0.000 C 
ATOM     11  C   UNL     1     -20.170  97.891   6.871  0.00  0.00    +0.000 A 
ATOM     12  H   UNL     1     -22.155 101.071   8.750  0.00  0.00    +0.000 HD
ATOM     13  N   UNL     1     -24.124 103.242   3.079  0.00  0.00    +0.000 N 
ATOM     14  C   UNL     1     -23.351 102.112   3.155  0.00  0.00    +0.000 C 
ATOM     15  C   UNL     1     -23.149 101.651   1.874  0.00  0.00    +0.000 C 
ATOM     16  C   UNL     1     -24.417 103.505   1.767  0.00  0.00    +0.000 C 
ATOM     17  C   UNL     1     -23.824 102.532   0.997  0.00  0.00    +0.000 C 
ATOM     18  H   UNL     1     -24.429 103.793   3.870  0.00  0.00    +0.000 HD
ENDROOT
BRANCH   7  20
ATOM     19  N   UNL     1     -18.031  95.159   4.323  0.00  0.00    +0.000 NA
ATOM     20  C   UNL     1     -19.704  96.908   4.614  0.00  0.00    +0.000 A 
ATOM     21  C   UNL     1     -20.141  96.663   3.310  0.00  0.00    +0.000 A 
ATOM     22  C   UNL     1     -18.646  96.117   5.051  0.00  0.00    +0.000 A 
ATOM     23  C   UNL     1     -19.543  95.688   2.519  0.00  0.00    +0.000 A 
ATOM     24  C   UNL     1     -18.499  94.969   3.071  0.00  0.00    +0.000 A 
ENDBRANCH   7  20
TORSDOF 1
ENDMDL
