MODEL 1
REMARK VINA RESULT:      -5.7      0.000      0.000
REMARK  Name = Leptomycin.pdbqt.pdb
REMARK  12 active torsions:
REMARK  status: ('A' for Active; 'I' for Inactive)
REMARK    1  A    between atoms: C_2  and  C_4
REMARK    2  A    between atoms: C_5  and  C_6
REMARK    3  A    between atoms: C_6  and  C_7
REMARK    4  A    between atoms: C_10  and  C_11
REMARK    5  A    between atoms: C_10  and  C_21
REMARK    6  A    between atoms: C_12  and  C_13
REMARK    7  A    between atoms: C_23  and  C_25
REMARK    8  A    between atoms: C_25  and  C_27
REMARK    9  A    between atoms: C_27  and  C_29
REMARK   10  A    between atoms: C_29  and  O_30
REMARK   11  A    between atoms: C_29  and  C_32
REMARK   12  A    between atoms: C_38  and  O_40
REMARK                            x       y       z     vdW  Elec       q    Type
REMARK                         _______ _______ _______ _____ _____    ______ ____
ROOT
ATOM      1  C   UNL     1     -28.456 102.668  16.439  0.00  0.00    +0.000 C 
ATOM      2  C   UNL     1     -28.552 102.013  15.327  0.00  0.00    +0.000 C 
ATOM      3  C   UNL     1     -27.379 101.196  14.869  0.00  0.00    +0.000 C 
ATOM      4  C   UNL     1     -28.424 103.364  17.673  0.00  0.00    +0.000 C 
ATOM      5  C   UNL     1     -27.718 104.710  17.638  0.00  0.00    +0.000 C 
ENDROOT
BRANCH   2   6
ATOM      6  C   UNL     1     -29.840 101.681  14.840  0.00  0.00    +0.000 C 
ATOM      7  C   UNL     1     -30.950 101.462  14.435  0.00  0.00    +0.000 C 
BRANCH   7   8
ATOM      8  C   UNL     1     -32.392 101.304  13.943  0.00  0.00    +0.000 C 
BRANCH   8   9
ATOM      9  C   UNL     1     -33.764 101.324  13.594  0.00  0.00    +0.000 C 
ATOM     10  C   UNL     1     -34.273 102.375  12.657  0.00  0.00    +0.000 C 
ATOM     11  C   UNL     1     -34.688 100.437  14.199  0.00  0.00    +0.000 C 
ATOM     12  C   UNL     1     -35.383  99.565  14.864  0.00  0.00    +0.000 C 
BRANCH  12  13
ATOM     13  C   UNL     1     -34.671  98.839  15.856  0.00  0.00    +0.000 C 
ATOM     14  C   UNL     1     -33.957  98.296  16.655  0.00  0.00    +0.000 C 
BRANCH  14  15
ATOM     15  C   UNL     1     -33.014  97.738  17.555  0.00  0.00    +0.000 A 
ATOM     16  O   UNL     1     -33.549  96.892  18.617  0.00  0.00    +0.000 OA
ATOM     17  C   UNL     1     -32.726  96.258  19.544  0.00  0.00    +0.000 A 
ATOM     18  O   UNL     1     -33.120  95.512  20.428  0.00  0.00    +0.000 OA
ATOM     19  C   UNL     1     -31.344  96.566  19.326  0.00  0.00    +0.000 A 
ATOM     20  C   UNL     1     -30.858  97.255  18.480  0.00  0.00    +0.000 A 
ATOM     21  C   UNL     1     -31.563  97.946  17.470  0.00  0.00    +0.000 A 
ATOM     22  C   UNL     1     -30.841  98.744  16.431  0.00  0.00    +0.000 C 
ENDBRANCH  14  15
ENDBRANCH  12  13
BRANCH  12  23
ATOM     23  C   UNL     1     -36.763  99.416  14.579  0.00  0.00    +0.000 C 
ATOM     24  C   UNL     1     -38.258  99.261  14.274  0.00  0.00    +0.000 C 
ENDBRANCH  12  23
ENDBRANCH   8   9
ENDBRANCH   7   8
ENDBRANCH   2   6
BRANCH   4  25
ATOM     25  C   UNL     1     -29.471 103.068  18.700  0.00  0.00    +0.000 C 
ATOM     26  O   UNL     1     -30.481 103.768  18.835  0.00  0.00    +0.000 OA
BRANCH  25  27
ATOM     27  C   UNL     1     -29.219 101.912  19.613  0.00  0.00    +0.000 C 
ATOM     28  C   UNL     1     -28.064 100.958  19.319  0.00  0.00    +0.000 C 
BRANCH  27  29
ATOM     29  C   UNL     1     -30.247 101.554  20.584  0.00  0.00    +0.000 C 
BRANCH  29  30
ATOM     30  C   UNL     1     -31.422 100.722  20.394  0.00  0.00    +0.000 C 
ATOM     31  C   UNL     1     -31.660  99.519  21.280  0.00  0.00    +0.000 C 
ATOM     32  C   UNL     1     -32.488 101.056  19.526  0.00  0.00    +0.000 C 
ATOM     33  C   UNL     1     -33.574 101.326  18.667  0.00  0.00    +0.000 C 
ATOM     34  C   UNL     1     -33.295 101.873  17.301  0.00  0.00    +0.000 C 
ATOM     35  C   UNL     1     -34.784 101.216  19.095  0.00  0.00    +0.000 C 
ATOM     36  C   UNL     1     -36.112 101.104  19.593  0.00  0.00    +0.000 C 
ATOM     37  O   UNL     1     -36.522 101.757  20.534  0.00  0.00    +0.000 OA
BRANCH  36  38
ATOM     38  O   UNL     1     -36.865 100.201  18.946  0.00  0.00    +0.000 OA
ATOM     39  H   UNL     1     -37.774 100.561  18.993  0.00  0.00    +0.000 HD
ENDBRANCH  36  38
ENDBRANCH  29  30
BRANCH  29  40
ATOM     40  O   UNL     1     -30.056 102.044  21.878  0.00  0.00    +0.000 OA
ATOM     41  H   UNL     1     -29.125 102.304  22.037  0.00  0.00    +0.000 HD
ENDBRANCH  29  40
ENDBRANCH  27  29
ENDBRANCH  25  27
ENDBRANCH   4  25
TORSDOF 12
ENDMDL
MODEL 2
REMARK VINA RESULT:      -5.5      2.427      4.567
REMARK  Name = Leptomycin.pdbqt.pdb
REMARK  12 active torsions:
REMARK  status: ('A' for Active; 'I' for Inactive)
REMARK    1  A    between atoms: C_2  and  C_4
REMARK    2  A    between atoms: C_5  and  C_6
REMARK    3  A    between atoms: C_6  and  C_7
REMARK    4  A    between atoms: C_10  and  C_11
REMARK    5  A    between atoms: C_10  and  C_21
REMARK    6  A    between atoms: C_12  and  C_13
REMARK    7  A    between atoms: C_23  and  C_25
REMARK    8  A    between atoms: C_25  and  C_27
REMARK    9  A    between atoms: C_27  and  C_29
REMARK   10  A    between atoms: C_29  and  O_30
REMARK   11  A    between atoms: C_29  and  C_32
REMARK   12  A    between atoms: C_38  and  O_40
REMARK                            x       y       z     vdW  Elec       q    Type
REMARK                         _______ _______ _______ _____ _____    ______ ____
ROOT
ATOM      1  C   UNL     1     -28.406 102.801  16.576  0.00  0.00    +0.000 C 
ATOM      2  C   UNL     1     -28.521 102.150  15.464  0.00  0.00    +0.000 C 
ATOM      3  C   UNL     1     -27.336 101.384  14.951  0.00  0.00    +0.000 C 
ATOM      4  C   UNL     1     -28.350 103.491  17.813  0.00  0.00    +0.000 C 
ATOM      5  C   UNL     1     -27.702 104.866  17.758  0.00  0.00    +0.000 C 
ENDROOT
BRANCH   2   6
ATOM      6  C   UNL     1     -29.814 101.768  15.029  0.00  0.00    +0.000 C 
ATOM      7  C   UNL     1     -30.923 101.506  14.646  0.00  0.00    +0.000 C 
BRANCH   7   8
ATOM      8  C   UNL     1     -32.352 101.296  14.136  0.00  0.00    +0.000 C 
BRANCH   8   9
ATOM      9  C   UNL     1     -33.704 101.294  13.716  0.00  0.00    +0.000 C 
ATOM     10  C   UNL     1     -34.164 102.295  12.702  0.00  0.00    +0.000 C 
ATOM     11  C   UNL     1     -34.658 100.437  14.317  0.00  0.00    +0.000 C 
ATOM     12  C   UNL     1     -35.386  99.597  14.988  0.00  0.00    +0.000 C 
BRANCH  12  13
ATOM     13  C   UNL     1     -34.725  98.925  16.051  0.00  0.00    +0.000 C 
ATOM     14  C   UNL     1     -34.052  98.369  16.876  0.00  0.00    +0.000 C 
BRANCH  14  15
ATOM     15  C   UNL     1     -33.148  97.739  17.770  0.00  0.00    +0.000 A 
ATOM     16  O   UNL     1     -33.738  97.033  18.902  0.00  0.00    +0.000 OA
ATOM     17  C   UNL     1     -32.963  96.346  19.832  0.00  0.00    +0.000 A 
ATOM     18  O   UNL     1     -33.408  95.710  20.775  0.00  0.00    +0.000 OA
ATOM     19  C   UNL     1     -31.564  96.452  19.539  0.00  0.00    +0.000 A 
ATOM     20  C   UNL     1     -31.033  97.021  18.633  0.00  0.00    +0.000 A 
ATOM     21  C   UNL     1     -31.689  97.744  17.612  0.00  0.00    +0.000 A 
ATOM     22  C   UNL     1     -30.919  98.378  16.498  0.00  0.00    +0.000 C 
ENDBRANCH  14  15
ENDBRANCH  12  13
BRANCH  12  23
ATOM     23  C   UNL     1     -36.749  99.429  14.640  0.00  0.00    +0.000 C 
ATOM     24  C   UNL     1     -38.224  99.255  14.261  0.00  0.00    +0.000 C 
ENDBRANCH  12  23
ENDBRANCH   8   9
ENDBRANCH   7   8
ENDBRANCH   2   6
BRANCH   4  25
ATOM     25  C   UNL     1     -29.340 103.147  18.881  0.00  0.00    +0.000 C 
ATOM     26  O   UNL     1     -30.016 104.005  19.457  0.00  0.00    +0.000 OA
BRANCH  25  27
ATOM     27  C   UNL     1     -29.440 101.709  19.275  0.00  0.00    +0.000 C 
ATOM     28  C   UNL     1     -30.776 100.982  19.140  0.00  0.00    +0.000 C 
BRANCH  27  29
ATOM     29  C   UNL     1     -28.352 101.119  20.048  0.00  0.00    +0.000 C 
BRANCH  29  30
ATOM     30  C   UNL     1     -28.112 101.195  21.478  0.00  0.00    +0.000 C 
ATOM     31  C   UNL     1     -28.075  99.935  22.315  0.00  0.00    +0.000 C 
ATOM     32  C   UNL     1     -27.728 102.380  22.148  0.00  0.00    +0.000 C 
ATOM     33  C   UNL     1     -27.357 103.531  22.875  0.00  0.00    +0.000 C 
ATOM     34  C   UNL     1     -28.024 104.833  22.552  0.00  0.00    +0.000 C 
ATOM     35  C   UNL     1     -26.382 103.483  23.715  0.00  0.00    +0.000 C 
ATOM     36  C   UNL     1     -25.292 103.412  24.626  0.00  0.00    +0.000 C 
ATOM     37  O   UNL     1     -24.166 103.103  24.285  0.00  0.00    +0.000 OA
BRANCH  36  38
ATOM     38  O   UNL     1     -25.620 103.696  25.896  0.00  0.00    +0.000 OA
ATOM     39  H   UNL     1     -24.972 103.197  26.434  0.00  0.00    +0.000 HD
ENDBRANCH  36  38
ENDBRANCH  29  30
BRANCH  29  40
ATOM     40  O   UNL     1     -27.441 100.349  19.321  0.00  0.00    +0.000 OA
ATOM     41  H   UNL     1     -27.810 100.060  18.461  0.00  0.00    +0.000 HD
ENDBRANCH  29  40
ENDBRANCH  27  29
ENDBRANCH  25  27
ENDBRANCH   4  25
TORSDOF 12
ENDMDL
MODEL 3
REMARK VINA RESULT:      -5.1      2.651      4.440
REMARK  Name = Leptomycin.pdbqt.pdb
REMARK  12 active torsions:
REMARK  status: ('A' for Active; 'I' for Inactive)
REMARK    1  A    between atoms: C_2  and  C_4
REMARK    2  A    between atoms: C_5  and  C_6
REMARK    3  A    between atoms: C_6  and  C_7
REMARK    4  A    between atoms: C_10  and  C_11
REMARK    5  A    between atoms: C_10  and  C_21
REMARK    6  A    between atoms: C_12  and  C_13
REMARK    7  A    between atoms: C_23  and  C_25
REMARK    8  A    between atoms: C_25  and  C_27
REMARK    9  A    between atoms: C_27  and  C_29
REMARK   10  A    between atoms: C_29  and  O_30
REMARK   11  A    between atoms: C_29  and  C_32
REMARK   12  A    between atoms: C_38  and  O_40
REMARK                            x       y       z     vdW  Elec       q    Type
REMARK                         _______ _______ _______ _____ _____    ______ ____
ROOT
ATOM      1  C   UNL     1     -28.847 102.837  17.760  0.00  0.00    +0.000 C 
ATOM      2  C   UNL     1     -28.786 102.474  16.520  0.00  0.00    +0.000 C 
ATOM      3  C   UNL     1     -27.480 101.970  15.979  0.00  0.00    +0.000 C 
ATOM      4  C   UNL     1     -28.982 103.201  19.123  0.00  0.00    +0.000 C 
ATOM      5  C   UNL     1     -28.494 104.599  19.471  0.00  0.00    +0.000 C 
ENDROOT
BRANCH   2   6
ATOM      6  C   UNL     1     -29.983 102.098  15.860  0.00  0.00    +0.000 C 
ATOM      7  C   UNL     1     -31.022 101.836  15.319  0.00  0.00    +0.000 C 
BRANCH   7   8
ATOM      8  C   UNL     1     -32.391 101.613  14.669  0.00  0.00    +0.000 C 
BRANCH   8   9
ATOM      9  C   UNL     1     -33.713 101.577  14.160  0.00  0.00    +0.000 C 
ATOM     10  C   UNL     1     -34.187 102.674  13.259  0.00  0.00    +0.000 C 
ATOM     11  C   UNL     1     -34.632 100.582  14.574  0.00  0.00    +0.000 C 
ATOM     12  C   UNL     1     -35.331  99.610  15.076  0.00  0.00    +0.000 C 
BRANCH  12  13
ATOM     13  C   UNL     1     -34.686  98.845  16.084  0.00  0.00    +0.000 C 
ATOM     14  C   UNL     1     -34.022  98.229  16.873  0.00  0.00    +0.000 C 
BRANCH  14  15
ATOM     15  C   UNL     1     -33.126  97.548  17.737  0.00  0.00    +0.000 A 
ATOM     16  O   UNL     1     -33.711  96.545  18.621  0.00  0.00    +0.000 OA
ATOM     17  C   UNL     1     -32.937  95.784  19.493  0.00  0.00    +0.000 A 
ATOM     18  O   UNL     1     -33.372  94.909  20.226  0.00  0.00    +0.000 OA
ATOM     19  C   UNL     1     -31.549  96.134  19.413  0.00  0.00    +0.000 A 
ATOM     20  C   UNL     1     -31.024  96.947  18.715  0.00  0.00    +0.000 A 
ATOM     21  C   UNL     1     -31.678  97.779  17.778  0.00  0.00    +0.000 A 
ATOM     22  C   UNL     1     -30.906  98.731  16.920  0.00  0.00    +0.000 C 
ENDBRANCH  14  15
ENDBRANCH  12  13
BRANCH  12  23
ATOM     23  C   UNL     1     -36.655  99.400  14.616  0.00  0.00    +0.000 C 
ATOM     24  C   UNL     1     -38.085  99.170  14.112  0.00  0.00    +0.000 C 
ENDBRANCH  12  23
ENDBRANCH   8   9
ENDBRANCH   7   8
ENDBRANCH   2   6
BRANCH   4  25
ATOM     25  C   UNL     1     -30.017 102.515  19.958  0.00  0.00    +0.000 C 
ATOM     26  O   UNL     1     -31.019 103.100  20.381  0.00  0.00    +0.000 OA
BRANCH  25  27
ATOM     27  C   UNL     1     -29.762 101.087  20.317  0.00  0.00    +0.000 C 
ATOM     28  C   UNL     1     -30.941 100.135  20.505  0.00  0.00    +0.000 C 
BRANCH  27  29
ATOM     29  C   UNL     1     -28.425 100.708  20.765  0.00  0.00    +0.000 C 
BRANCH  29  30
ATOM     30  C   UNL     1     -27.832 100.870  22.080  0.00  0.00    +0.000 C 
ATOM     31  C   UNL     1     -27.528 102.253  22.617  0.00  0.00    +0.000 C 
ATOM     32  C   UNL     1     -27.665  99.812  23.002  0.00  0.00    +0.000 C 
ATOM     33  C   UNL     1     -27.459  98.796  23.959  0.00  0.00    +0.000 C 
ATOM     34  C   UNL     1     -26.953  97.463  23.498  0.00  0.00    +0.000 C 
ATOM     35  C   UNL     1     -27.812  98.976  25.185  0.00  0.00    +0.000 C 
ATOM     36  C   UNL     1     -28.223  99.189  26.529  0.00  0.00    +0.000 C 
ATOM     37  O   UNL     1     -29.376  99.428  26.837  0.00  0.00    +0.000 OA
BRANCH  36  38
ATOM     38  O   UNL     1     -27.226  99.124  27.425  0.00  0.00    +0.000 OA
ATOM     39  H   UNL     1     -27.518  99.701  28.160  0.00  0.00    +0.000 HD
ENDBRANCH  36  38
ENDBRANCH  29  30
BRANCH  29  40
ATOM     40  O   UNL     1     -27.626 100.071  19.813  0.00  0.00    +0.000 OA
ATOM     41  H   UNL     1     -27.587 100.573  18.972  0.00  0.00    +0.000 HD
ENDBRANCH  29  40
ENDBRANCH  27  29
ENDBRANCH  25  27
ENDBRANCH   4  25
TORSDOF 12
ENDMDL
MODEL 4
REMARK VINA RESULT:      -4.9     17.716     24.007
REMARK  Name = Leptomycin.pdbqt.pdb
REMARK  12 active torsions:
REMARK  status: ('A' for Active; 'I' for Inactive)
REMARK    1  A    between atoms: C_2  and  C_4
REMARK    2  A    between atoms: C_5  and  C_6
REMARK    3  A    between atoms: C_6  and  C_7
REMARK    4  A    between atoms: C_10  and  C_11
REMARK    5  A    between atoms: C_10  and  C_21
REMARK    6  A    between atoms: C_12  and  C_13
REMARK    7  A    between atoms: C_23  and  C_25
REMARK    8  A    between atoms: C_25  and  C_27
REMARK    9  A    between atoms: C_27  and  C_29
REMARK   10  A    between atoms: C_29  and  O_30
REMARK   11  A    between atoms: C_29  and  C_32
REMARK   12  A    between atoms: C_38  and  O_40
REMARK                            x       y       z     vdW  Elec       q    Type
REMARK                         _______ _______ _______ _____ _____    ______ ____
ROOT
ATOM      1  C   UNL     1     -52.865  96.181   5.669  0.00  0.00    +0.000 C 
ATOM      2  C   UNL     1     -52.364  97.362   5.502  0.00  0.00    +0.000 C 
ATOM      3  C   UNL     1     -52.636  98.413   6.539  0.00  0.00    +0.000 C 
ATOM      4  C   UNL     1     -53.348  94.857   5.825  0.00  0.00    +0.000 C 
ATOM      5  C   UNL     1     -54.796  94.644   5.414  0.00  0.00    +0.000 C 
ENDROOT
BRANCH   2   6
ATOM      6  C   UNL     1     -51.225  97.509   4.672  0.00  0.00    +0.000 C 
ATOM      7  C   UNL     1     -50.297  97.663   3.924  0.00  0.00    +0.000 C 
BRANCH   7   8
ATOM      8  C   UNL     1     -49.195  97.913   2.890  0.00  0.00    +0.000 C 
BRANCH   8   9
ATOM      9  C   UNL     1     -48.214  98.339   1.962  0.00  0.00    +0.000 C 
ATOM     10  C   UNL     1     -47.949  97.519   0.738  0.00  0.00    +0.000 C 
ATOM     11  C   UNL     1     -47.400  99.469   2.223  0.00  0.00    +0.000 C 
ATOM     12  C   UNL     1     -46.744 100.510   2.636  0.00  0.00    +0.000 C 
BRANCH  12  13
ATOM     13  C   UNL     1     -47.062 100.956   3.947  0.00  0.00    +0.000 C 
ATOM     14  C   UNL     1     -47.216 101.269   5.096  0.00  0.00    +0.000 C 
BRANCH  14  15
ATOM     15  C   UNL     1     -47.275 101.580   6.479  0.00  0.00    +0.000 A 
ATOM     16  O   UNL     1     -48.390 101.008   7.227  0.00  0.00    +0.000 OA
ATOM     17  C   UNL     1     -48.545 101.209   8.596  0.00  0.00    +0.000 A 
ATOM     18  O   UNL     1     -49.438 100.724   9.274  0.00  0.00    +0.000 OA
ATOM     19  C   UNL     1     -47.508 102.042   9.130  0.00  0.00    +0.000 A 
ATOM     20  C   UNL     1     -46.582 102.537   8.562  0.00  0.00    +0.000 A 
ATOM     21  C   UNL     1     -46.292 102.410   7.185  0.00  0.00    +0.000 A 
ATOM     22  C   UNL     1     -45.073 103.040   6.591  0.00  0.00    +0.000 C 
ENDBRANCH  14  15
ENDBRANCH  12  13
BRANCH  12  23
ATOM     23  C   UNL     1     -45.772 101.098   1.789  0.00  0.00    +0.000 C 
ATOM     24  C   UNL     1     -44.716 101.734   0.878  0.00  0.00    +0.000 C 
ENDBRANCH  12  23
ENDBRANCH   8   9
ENDBRANCH   7   8
ENDBRANCH   2   6
BRANCH   4  25
ATOM     25  C   UNL     1     -52.371  93.724   5.825  0.00  0.00    +0.000 C 
ATOM     26  O   UNL     1     -52.366  92.856   6.704  0.00  0.00    +0.000 OA
BRANCH  25  27
ATOM     27  C   UNL     1     -51.345  93.712   4.739  0.00  0.00    +0.000 C 
ATOM     28  C   UNL     1     -49.902  94.094   5.060  0.00  0.00    +0.000 C 
BRANCH  27  29
ATOM     29  C   UNL     1     -51.796  93.625   3.354  0.00  0.00    +0.000 C 
BRANCH  29  30
ATOM     30  C   UNL     1     -51.766  94.650   2.326  0.00  0.00    +0.000 C 
ATOM     31  C   UNL     1     -50.563  94.786   1.416  0.00  0.00    +0.000 C 
ATOM     32  C   UNL     1     -52.880  95.451   1.981  0.00  0.00    +0.000 C 
ATOM     33  C   UNL     1     -53.949  96.289   1.603  0.00  0.00    +0.000 C 
ATOM     34  C   UNL     1     -54.817  96.878   2.672  0.00  0.00    +0.000 C 
ATOM     35  C   UNL     1     -54.243  96.446   0.359  0.00  0.00    +0.000 C 
ATOM     36  C   UNL     1     -54.561  96.593  -1.020  0.00  0.00    +0.000 C 
ATOM     37  O   UNL     1     -54.871  95.655  -1.730  0.00  0.00    +0.000 OA
BRANCH  36  38
ATOM     38  O   UNL     1     -54.469  97.853  -1.472  0.00  0.00    +0.000 OA
ATOM     39  H   UNL     1     -54.042  98.346  -0.741  0.00  0.00    +0.000 HD
ENDBRANCH  36  38
ENDBRANCH  29  30
BRANCH  29  40
ATOM     40  O   UNL     1     -52.288  92.380   2.954  0.00  0.00    +0.000 OA
ATOM     41  H   UNL     1     -53.218  92.434   2.651  0.00  0.00    +0.000 HD
ENDBRANCH  29  40
ENDBRANCH  27  29
ENDBRANCH  25  27
ENDBRANCH   4  25
TORSDOF 12
ENDMDL
MODEL 5
REMARK VINA RESULT:      -4.8     27.330     30.509
REMARK  Name = Leptomycin.pdbqt.pdb
REMARK  12 active torsions:
REMARK  status: ('A' for Active; 'I' for Inactive)
REMARK    1  A    between atoms: C_2  and  C_4
REMARK    2  A    between atoms: C_5  and  C_6
REMARK    3  A    between atoms: C_6  and  C_7
REMARK    4  A    between atoms: C_10  and  C_11
REMARK    5  A    between atoms: C_10  and  C_21
REMARK    6  A    between atoms: C_12  and  C_13
REMARK    7  A    between atoms: C_23  and  C_25
REMARK    8  A    between atoms: C_25  and  C_27
REMARK    9  A    between atoms: C_27  and  C_29
REMARK   10  A    between atoms: C_29  and  O_30
REMARK   11  A    between atoms: C_29  and  C_32
REMARK   12  A    between atoms: C_38  and  O_40
REMARK                            x       y       z     vdW  Elec       q    Type
REMARK                         _______ _______ _______ _____ _____    ______ ____
ROOT
ATOM      1  C   UNL     1     -24.461  86.923  -5.102  0.00  0.00    +0.000 C 
ATOM      2  C   UNL     1     -23.299  87.186  -5.605  0.00  0.00    +0.000 C 
ATOM      3  C   UNL     1     -22.775  86.312  -6.707  0.00  0.00    +0.000 C 
ATOM      4  C   UNL     1     -25.749  86.710  -4.549  0.00  0.00    +0.000 C 
ATOM      5  C   UNL     1     -25.826  85.622  -3.490  0.00  0.00    +0.000 C 
ENDROOT
BRANCH   2   6
ATOM      6  C   UNL     1     -22.784  88.501  -5.481  0.00  0.00    +0.000 C 
ATOM      7  C   UNL     1     -22.359  89.624  -5.440  0.00  0.00    +0.000 C 
BRANCH   7   8
ATOM      8  C   UNL     1     -21.840  91.063  -5.511  0.00  0.00    +0.000 C 
BRANCH   8   9
ATOM      9  C   UNL     1     -21.525  92.433  -5.686  0.00  0.00    +0.000 C 
ATOM     10  C   UNL     1     -22.084  93.446  -4.737  0.00  0.00    +0.000 C 
ATOM     11  C   UNL     1     -20.780  92.877  -6.806  0.00  0.00    +0.000 C 
ATOM     12  C   UNL     1     -20.106  93.097  -7.893  0.00  0.00    +0.000 C 
BRANCH  12  13
ATOM     13  C   UNL     1     -19.898  91.965  -8.727  0.00  0.00    +0.000 C 
ATOM     14  C   UNL     1     -19.791  91.078  -9.529  0.00  0.00    +0.000 C 
BRANCH  14  15
ATOM     15  C   UNL     1     -19.726  90.113 -10.567  0.00  0.00    +0.000 A 
ATOM     16  O   UNL     1     -19.119  90.547 -11.821  0.00  0.00    +0.000 OA
ATOM     17  C   UNL     1     -18.965  89.687 -12.905  0.00  0.00    +0.000 A 
ATOM     18  O   UNL     1     -18.432  89.989 -13.962  0.00  0.00    +0.000 OA
ATOM     19  C   UNL     1     -19.489  88.383 -12.627  0.00  0.00    +0.000 A 
ATOM     20  C   UNL     1     -19.999  87.982 -11.625  0.00  0.00    +0.000 A 
ATOM     21  C   UNL     1     -20.208  88.732 -10.446  0.00  0.00    +0.000 A 
ATOM     22  C   UNL     1     -20.816  88.108  -9.231  0.00  0.00    +0.000 C 
ENDBRANCH  14  15
ENDBRANCH  12  13
BRANCH  12  23
ATOM     23  C   UNL     1     -19.656  94.410  -8.176  0.00  0.00    +0.000 C 
ATOM     24  C   UNL     1     -19.165  95.829  -8.487  0.00  0.00    +0.000 C 
ENDBRANCH  12  23
ENDBRANCH   8   9
ENDBRANCH   7   8
ENDBRANCH   2   6
BRANCH   4  25
ATOM     25  C   UNL     1     -26.747  87.824  -4.585  0.00  0.00    +0.000 C 
ATOM     26  O   UNL     1     -27.460  88.104  -3.615  0.00  0.00    +0.000 OA
BRANCH  25  27
ATOM     27  C   UNL     1     -26.895  88.562  -5.876  0.00  0.00    +0.000 C 
ATOM     28  C   UNL     1     -26.233  89.928  -6.044  0.00  0.00    +0.000 C 
BRANCH  27  29
ATOM     29  C   UNL     1     -27.900  88.104  -6.830  0.00  0.00    +0.000 C 
BRANCH  29  30
ATOM     30  C   UNL     1     -27.727  87.747  -8.226  0.00  0.00    +0.000 C 
ATOM     31  C   UNL     1     -28.526  88.453  -9.301  0.00  0.00    +0.000 C 
ATOM     32  C   UNL     1     -26.712  86.881  -8.696  0.00  0.00    +0.000 C 
ATOM     33  C   UNL     1     -25.731  86.014  -9.223  0.00  0.00    +0.000 C 
ATOM     34  C   UNL     1     -25.417  84.748  -8.487  0.00  0.00    +0.000 C 
ATOM     35  C   UNL     1     -25.039  86.365 -10.251  0.00  0.00    +0.000 C 
ATOM     36  C   UNL     1     -24.275  86.778 -11.378  0.00  0.00    +0.000 C 
ATOM     37  O   UNL     1     -23.581  87.777 -11.374  0.00  0.00    +0.000 OA
BRANCH  36  38
ATOM     38  O   UNL     1     -24.405  85.981 -12.450  0.00  0.00    +0.000 OA
ATOM     39  H   UNL     1     -23.605  86.160 -12.986  0.00  0.00    +0.000 HD
ENDBRANCH  36  38
ENDBRANCH  29  30
BRANCH  29  40
ATOM     40  O   UNL     1     -29.192  87.953  -6.322  0.00  0.00    +0.000 OA
ATOM     41  H   UNL     1     -29.225  88.102  -5.354  0.00  0.00    +0.000 HD
ENDBRANCH  29  40
ENDBRANCH  27  29
ENDBRANCH  25  27
ENDBRANCH   4  25
TORSDOF 12
ENDMDL
MODEL 6
REMARK VINA RESULT:      -4.7     13.990     17.380
REMARK  Name = Leptomycin.pdbqt.pdb
REMARK  12 active torsions:
REMARK  status: ('A' for Active; 'I' for Inactive)
REMARK    1  A    between atoms: C_2  and  C_4
REMARK    2  A    between atoms: C_5  and  C_6
REMARK    3  A    between atoms: C_6  and  C_7
REMARK    4  A    between atoms: C_10  and  C_11
REMARK    5  A    between atoms: C_10  and  C_21
REMARK    6  A    between atoms: C_12  and  C_13
REMARK    7  A    between atoms: C_23  and  C_25
REMARK    8  A    between atoms: C_25  and  C_27
REMARK    9  A    between atoms: C_27  and  C_29
REMARK   10  A    between atoms: C_29  and  O_30
REMARK   11  A    between atoms: C_29  and  C_32
REMARK   12  A    between atoms: C_38  and  O_40
REMARK                            x       y       z     vdW  Elec       q    Type
REMARK                         _______ _______ _______ _____ _____    ______ ____
ROOT
ATOM      1  C   UNL     1     -24.331 107.344   5.896  0.00  0.00    +0.000 C 
ATOM      2  C   UNL     1     -24.434 106.594   6.945  0.00  0.00    +0.000 C 
ATOM      3  C   UNL     1     -25.588 106.816   7.879  0.00  0.00    +0.000 C 
ATOM      4  C   UNL     1     -24.196 108.103   4.707  0.00  0.00    +0.000 C 
ATOM      5  C   UNL     1     -23.567 109.476   4.884  0.00  0.00    +0.000 C 
ENDROOT
BRANCH   2   6
ATOM      6  C   UNL     1     -23.799 105.327   6.943  0.00  0.00    +0.000 C 
ATOM      7  C   UNL     1     -23.248 104.261   6.877  0.00  0.00    +0.000 C 
BRANCH   7   8
ATOM      8  C   UNL     1     -22.532 102.923   6.671  0.00  0.00    +0.000 C 
BRANCH   8   9
ATOM      9  C   UNL     1     -21.822 101.698   6.675  0.00  0.00    +0.000 C 
ATOM     10  C   UNL     1     -21.004 101.322   7.872  0.00  0.00    +0.000 C 
ATOM     11  C   UNL     1     -21.779 100.870   5.526  0.00  0.00    +0.000 C 
ATOM     12  C   UNL     1     -21.842 100.256   4.385  0.00  0.00    +0.000 C 
BRANCH  12  13
ATOM     13  C   UNL     1     -22.514 100.955   3.346  0.00  0.00    +0.000 C 
ATOM     14  C   UNL     1     -23.044 101.661   2.532  0.00  0.00    +0.000 C 
BRANCH  14  15
ATOM     15  C   UNL     1     -23.616 102.603   1.639  0.00  0.00    +0.000 A 
ATOM     16  O   UNL     1     -23.219 102.496   0.239  0.00  0.00    +0.000 OA
ATOM     17  C   UNL     1     -23.734 103.338  -0.744  0.00  0.00    +0.000 A 
ATOM     18  O   UNL     1     -23.463 103.267  -1.933  0.00  0.00    +0.000 OA
ATOM     19  C   UNL     1     -24.649 104.295  -0.196  0.00  0.00    +0.000 A 
ATOM     20  C   UNL     1     -24.999 104.427   0.938  0.00  0.00    +0.000 A 
ATOM     21  C   UNL     1     -24.574 103.642   2.033  0.00  0.00    +0.000 A 
ATOM     22  C   UNL     1     -25.120 103.871   3.406  0.00  0.00    +0.000 C 
ENDBRANCH  14  15
ENDBRANCH  12  13
BRANCH  12  23
ATOM     23  C   UNL     1     -21.237  98.982   4.250  0.00  0.00    +0.000 C 
ATOM     24  C   UNL     1     -20.586  97.602   4.098  0.00  0.00    +0.000 C 
ENDBRANCH  12  23
ENDBRANCH   8   9
ENDBRANCH   7   8
ENDBRANCH   2   6
BRANCH   4  25
ATOM     25  C   UNL     1     -24.134 107.389   3.393  0.00  0.00    +0.000 C 
ATOM     26  O   UNL     1     -23.191 106.654   3.085  0.00  0.00    +0.000 OA
BRANCH  25  27
ATOM     27  C   UNL     1     -25.244 107.648   2.427  0.00  0.00    +0.000 C 
ATOM     28  C   UNL     1     -24.935 108.294   1.078  0.00  0.00    +0.000 C 
BRANCH  27  29
ATOM     29  C   UNL     1     -26.621 107.552   2.903  0.00  0.00    +0.000 C 
BRANCH  29  30
ATOM     30  C   UNL     1     -27.549 108.625   3.210  0.00  0.00    +0.000 C 
ATOM     31  C   UNL     1     -28.513 109.127   2.157  0.00  0.00    +0.000 C 
ATOM     32  C   UNL     1     -27.749 109.142   4.511  0.00  0.00    +0.000 C 
ATOM     33  C   UNL     1     -27.983 109.709   5.781  0.00  0.00    +0.000 C 
ATOM     34  C   UNL     1     -26.813 109.979   6.677  0.00  0.00    +0.000 C 
ATOM     35  C   UNL     1     -29.187 109.880   6.206  0.00  0.00    +0.000 C 
ATOM     36  C   UNL     1     -30.524 110.045   6.662  0.00  0.00    +0.000 C 
ATOM     37  O   UNL     1     -31.298 109.114   6.788  0.00  0.00    +0.000 OA
BRANCH  36  38
ATOM     38  O   UNL     1     -30.862 111.317   6.920  0.00  0.00    +0.000 OA
ATOM     39  H   UNL     1     -31.401 111.589   6.149  0.00  0.00    +0.000 HD
ENDBRANCH  36  38
ENDBRANCH  29  30
BRANCH  29  40
ATOM     40  O   UNL     1     -27.123 106.257   3.046  0.00  0.00    +0.000 OA
ATOM     41  H   UNL     1     -27.863 106.219   3.687  0.00  0.00    +0.000 HD
ENDBRANCH  29  40
ENDBRANCH  27  29
ENDBRANCH  25  27
ENDBRANCH   4  25
TORSDOF 12
ENDMDL
MODEL 7
REMARK VINA RESULT:      -4.7     15.255     18.743
REMARK  Name = Leptomycin.pdbqt.pdb
REMARK  12 active torsions:
REMARK  status: ('A' for Active; 'I' for Inactive)
REMARK    1  A    between atoms: C_2  and  C_4
REMARK    2  A    between atoms: C_5  and  C_6
REMARK    3  A    between atoms: C_6  and  C_7
REMARK    4  A    between atoms: C_10  and  C_11
REMARK    5  A    between atoms: C_10  and  C_21
REMARK    6  A    between atoms: C_12  and  C_13
REMARK    7  A    between atoms: C_23  and  C_25
REMARK    8  A    between atoms: C_25  and  C_27
REMARK    9  A    between atoms: C_27  and  C_29
REMARK   10  A    between atoms: C_29  and  O_30
REMARK   11  A    between atoms: C_29  and  C_32
REMARK   12  A    between atoms: C_38  and  O_40
REMARK                            x       y       z     vdW  Elec       q    Type
REMARK                         _______ _______ _______ _____ _____    ______ ____
ROOT
ATOM      1  C   UNL     1     -39.242 103.777   1.064  0.00  0.00    +0.000 C 
ATOM      2  C   UNL     1     -38.912 104.650   0.168  0.00  0.00    +0.000 C 
ATOM      3  C   UNL     1     -39.852 105.787  -0.111  0.00  0.00    +0.000 C 
ATOM      4  C   UNL     1     -39.529 102.821   2.070  0.00  0.00    +0.000 C 
ATOM      5  C   UNL     1     -40.479 101.709   1.652  0.00  0.00    +0.000 C 
ENDROOT
BRANCH   2   6
ATOM      6  C   UNL     1     -37.542 104.808  -0.159  0.00  0.00    +0.000 C 
ATOM      7  C   UNL     1     -36.382 105.000  -0.405  0.00  0.00    +0.000 C 
BRANCH   7   8
ATOM      8  C   UNL     1     -34.914 105.355  -0.660  0.00  0.00    +0.000 C 
BRANCH   8   9
ATOM      9  C   UNL     1     -33.614 105.874  -0.870  0.00  0.00    +0.000 C 
ATOM     10  C   UNL     1     -32.534 104.976  -1.388  0.00  0.00    +0.000 C 
ATOM     11  C   UNL     1     -33.284 107.200  -0.495  0.00  0.00    +0.000 C 
ATOM     12  C   UNL     1     -33.164 108.423  -0.078  0.00  0.00    +0.000 C 
BRANCH  12  13
ATOM     13  C   UNL     1     -34.303 108.963   0.577  0.00  0.00    +0.000 C 
ATOM     14  C   UNL     1     -35.183 109.519   1.177  0.00  0.00    +0.000 C 
BRANCH  14  15
ATOM     15  C   UNL     1     -36.130 110.274   1.917  0.00  0.00    +0.000 A 
ATOM     16  O   UNL     1     -35.608 111.060   3.029  0.00  0.00    +0.000 OA
ATOM     17  C   UNL     1     -36.426 111.870   3.813  0.00  0.00    +0.000 A 
ATOM     18  O   UNL     1     -36.035 112.574   4.730  0.00  0.00    +0.000 OA
ATOM     19  C   UNL     1     -37.796 111.798   3.397  0.00  0.00    +0.000 A 
ATOM     20  C   UNL     1     -38.272 111.168   2.502  0.00  0.00    +0.000 A 
ATOM     21  C   UNL     1     -37.566 110.319   1.621  0.00  0.00    +0.000 A 
ATOM     22  C   UNL     1     -38.265 109.614   0.502  0.00  0.00    +0.000 C 
ENDBRANCH  14  15
ENDBRANCH  12  13
BRANCH  12  23
ATOM     23  C   UNL     1     -31.939 109.107  -0.279  0.00  0.00    +0.000 C 
ATOM     24  C   UNL     1     -30.612 109.841  -0.500  0.00  0.00    +0.000 C 
ENDBRANCH  12  23
ENDBRANCH   8   9
ENDBRANCH   7   8
ENDBRANCH   2   6
BRANCH   4  25
ATOM     25  C   UNL     1     -38.550 102.622   3.183  0.00  0.00    +0.000 C 
ATOM     26  O   UNL     1     -38.827 101.976   4.199  0.00  0.00    +0.000 OA
BRANCH  25  27
ATOM     27  C   UNL     1     -37.222 103.294   3.047  0.00  0.00    +0.000 C 
ATOM     28  C   UNL     1     -36.062 102.545   2.394  0.00  0.00    +0.000 C 
BRANCH  27  29
ATOM     29  C   UNL     1     -36.982 104.522   3.797  0.00  0.00    +0.000 C 
BRANCH  29  30
ATOM     30  C   UNL     1     -36.426 105.777   3.324  0.00  0.00    +0.000 C 
ATOM     31  C   UNL     1     -37.333 106.954   3.033  0.00  0.00    +0.000 C 
ATOM     32  C   UNL     1     -35.040 106.053   3.275  0.00  0.00    +0.000 C 
ATOM     33  C   UNL     1     -33.671 106.383   3.188  0.00  0.00    +0.000 C 
ATOM     34  C   UNL     1     -32.712 105.351   2.679  0.00  0.00    +0.000 C 
ATOM     35  C   UNL     1     -33.242 107.507   3.648  0.00  0.00    +0.000 C 
ATOM     36  C   UNL     1     -32.787 108.746   4.177  0.00  0.00    +0.000 C 
ATOM     37  O   UNL     1     -32.923 109.055   5.346  0.00  0.00    +0.000 OA
BRANCH  36  38
ATOM     38  O   UNL     1     -32.215 109.552   3.270  0.00  0.00    +0.000 OA
ATOM     39  H   UNL     1     -32.542 110.447   3.496  0.00  0.00    +0.000 HD
ENDBRANCH  36  38
ENDBRANCH  29  30
BRANCH  29  40
ATOM     40  O   UNL     1     -37.373 104.499   5.138  0.00  0.00    +0.000 OA
ATOM     41  H   UNL     1     -37.846 103.673   5.368  0.00  0.00    +0.000 HD
ENDBRANCH  29  40
ENDBRANCH  27  29
ENDBRANCH  25  27
ENDBRANCH   4  25
TORSDOF 12
ENDMDL
MODEL 8
REMARK VINA RESULT:      -4.6     15.932     20.783
REMARK  Name = Leptomycin.pdbqt.pdb
REMARK  12 active torsions:
REMARK  status: ('A' for Active; 'I' for Inactive)
REMARK    1  A    between atoms: C_2  and  C_4
REMARK    2  A    between atoms: C_5  and  C_6
REMARK    3  A    between atoms: C_6  and  C_7
REMARK    4  A    between atoms: C_10  and  C_11
REMARK    5  A    between atoms: C_10  and  C_21
REMARK    6  A    between atoms: C_12  and  C_13
REMARK    7  A    between atoms: C_23  and  C_25
REMARK    8  A    between atoms: C_25  and  C_27
REMARK    9  A    between atoms: C_27  and  C_29
REMARK   10  A    between atoms: C_29  and  O_30
REMARK   11  A    between atoms: C_29  and  C_32
REMARK   12  A    between atoms: C_38  and  O_40
REMARK                            x       y       z     vdW  Elec       q    Type
REMARK                         _______ _______ _______ _____ _____    ______ ____
ROOT
ATOM      1  C   UNL     1     -38.509 106.698   2.613  0.00  0.00    +0.000 C 
ATOM      2  C   UNL     1     -37.812 107.786   2.548  0.00  0.00    +0.000 C 
ATOM      3  C   UNL     1     -37.410 108.462   3.826  0.00  0.00    +0.000 C 
ATOM      4  C   UNL     1     -39.230 105.477   2.627  0.00  0.00    +0.000 C 
ATOM      5  C   UNL     1     -40.731 105.615   2.827  0.00  0.00    +0.000 C 
ENDROOT
BRANCH   2   6
ATOM      6  C   UNL     1     -37.052 108.039   1.379  0.00  0.00    +0.000 C 
ATOM      7  C   UNL     1     -36.459 108.238   0.353  0.00  0.00    +0.000 C 
BRANCH   7   8
ATOM      8  C   UNL     1     -35.808 108.456  -1.016  0.00  0.00    +0.000 C 
BRANCH   8   9
ATOM      9  C   UNL     1     -35.175 108.458  -2.283  0.00  0.00    +0.000 C 
ATOM     10  C   UNL     1     -33.799 109.032  -2.419  0.00  0.00    +0.000 C 
ATOM     11  C   UNL     1     -35.859 108.029  -3.446  0.00  0.00    +0.000 C 
ATOM     12  C   UNL     1     -36.643 107.615  -4.395  0.00  0.00    +0.000 C 
BRANCH  12  13
ATOM     13  C   UNL     1     -37.981 107.336  -4.008  0.00  0.00    +0.000 C 
ATOM     14  C   UNL     1     -39.059 107.015  -3.586  0.00  0.00    +0.000 C 
BRANCH  14  15
ATOM     15  C   UNL     1     -40.265 106.563  -2.992  0.00  0.00    +0.000 A 
ATOM     16  O   UNL     1     -41.107 105.695  -3.808  0.00  0.00    +0.000 OA
ATOM     17  C   UNL     1     -42.299 105.157  -3.331  0.00  0.00    +0.000 A 
ATOM     18  O   UNL     1     -43.021 104.398  -3.959  0.00  0.00    +0.000 OA
ATOM     19  C   UNL     1     -42.574 105.583  -1.990  0.00  0.00    +0.000 A 
ATOM     20  C   UNL     1     -41.923 106.293  -1.285  0.00  0.00    +0.000 A 
ATOM     21  C   UNL     1     -40.693 106.897  -1.628  0.00  0.00    +0.000 A 
ATOM     22  C   UNL     1     -39.941 107.734  -0.642  0.00  0.00    +0.000 C 
ENDBRANCH  14  15
ENDBRANCH  12  13
BRANCH  12  23
ATOM     23  C   UNL     1     -36.134 107.496  -5.712  0.00  0.00    +0.000 C 
ATOM     24  C   UNL     1     -35.587 107.373  -7.139  0.00  0.00    +0.000 C 
ENDBRANCH  12  23
ENDBRANCH   8   9
ENDBRANCH   7   8
ENDBRANCH   2   6
BRANCH   4  25
ATOM     25  C   UNL     1     -38.649 104.284   1.936  0.00  0.00    +0.000 C 
ATOM     26  O   UNL     1     -39.044 103.906   0.828  0.00  0.00    +0.000 OA
BRANCH  25  27
ATOM     27  C   UNL     1     -37.598 103.518   2.672  0.00  0.00    +0.000 C 
ATOM     28  C   UNL     1     -37.981 102.246   3.425  0.00  0.00    +0.000 C 
BRANCH  27  29
ATOM     29  C   UNL     1     -36.304 104.153   2.900  0.00  0.00    +0.000 C 
BRANCH  29  30
ATOM     30  C   UNL     1     -35.451 104.839   1.946  0.00  0.00    +0.000 C 
ATOM     31  C   UNL     1     -34.157 105.480   2.400  0.00  0.00    +0.000 C 
ATOM     32  C   UNL     1     -35.655 104.809   0.547  0.00  0.00    +0.000 C 
ATOM     33  C   UNL     1     -35.813 104.828  -0.854  0.00  0.00    +0.000 C 
ATOM     34  C   UNL     1     -37.190 104.990  -1.422  0.00  0.00    +0.000 C 
ATOM     35  C   UNL     1     -34.809 104.594  -1.626  0.00  0.00    +0.000 C 
ATOM     36  C   UNL     1     -33.690 104.316  -2.459  0.00  0.00    +0.000 C 
ATOM     37  O   UNL     1     -33.074 103.267  -2.410  0.00  0.00    +0.000 OA
BRANCH  36  38
ATOM     38  O   UNL     1     -33.361 105.319  -3.287  0.00  0.00    +0.000 OA
ATOM     39  H   UNL     1     -34.206 105.574  -3.711  0.00  0.00    +0.000 HD
ENDBRANCH  36  38
ENDBRANCH  29  30
BRANCH  29  40
ATOM     40  O   UNL     1     -35.843 104.129   4.219  0.00  0.00    +0.000 OA
ATOM     41  H   UNL     1     -35.058 103.551   4.322  0.00  0.00    +0.000 HD
ENDBRANCH  29  40
ENDBRANCH  27  29
ENDBRANCH  25  27
ENDBRANCH   4  25
TORSDOF 12
ENDMDL
MODEL 9
REMARK VINA RESULT:      -4.6     14.961     17.891
REMARK  Name = Leptomycin.pdbqt.pdb
REMARK  12 active torsions:
REMARK  status: ('A' for Active; 'I' for Inactive)
REMARK    1  A    between atoms: C_2  and  C_4
REMARK    2  A    between atoms: C_5  and  C_6
REMARK    3  A    between atoms: C_6  and  C_7
REMARK    4  A    between atoms: C_10  and  C_11
REMARK    5  A    between atoms: C_10  and  C_21
REMARK    6  A    between atoms: C_12  and  C_13
REMARK    7  A    between atoms: C_23  and  C_25
REMARK    8  A    between atoms: C_25  and  C_27
REMARK    9  A    between atoms: C_27  and  C_29
REMARK   10  A    between atoms: C_29  and  O_30
REMARK   11  A    between atoms: C_29  and  C_32
REMARK   12  A    between atoms: C_38  and  O_40
REMARK                            x       y       z     vdW  Elec       q    Type
REMARK                         _______ _______ _______ _____ _____    ______ ____
ROOT
ATOM      1  C   UNL     1     -20.279 107.293   5.696  0.00  0.00    +0.000 C 
ATOM      2  C   UNL     1     -19.800 106.309   5.007  0.00  0.00    +0.000 C 
ATOM      3  C   UNL     1     -19.281 105.103   5.735  0.00  0.00    +0.000 C 
ATOM      4  C   UNL     1     -20.861 108.378   6.399  0.00  0.00    +0.000 C 
ATOM      5  C   UNL     1     -19.872 109.371   6.988  0.00  0.00    +0.000 C 
ENDROOT
BRANCH   2   6
ATOM      6  C   UNL     1     -20.202 106.162   3.656  0.00  0.00    +0.000 C 
ATOM      7  C   UNL     1     -20.605 106.042   2.531  0.00  0.00    +0.000 C 
BRANCH   7   8
ATOM      8  C   UNL     1     -21.236 105.895   1.143  0.00  0.00    +0.000 C 
BRANCH   8   9
ATOM      9  C   UNL     1     -21.928 105.921  -0.093  0.00  0.00    +0.000 C 
ATOM     10  C   UNL     1     -21.860 107.145  -0.952  0.00  0.00    +0.000 C 
ATOM     11  C   UNL     1     -22.774 104.854  -0.482  0.00  0.00    +0.000 C 
ATOM     12  C   UNL     1     -23.510 103.799  -0.662  0.00  0.00    +0.000 C 
BRANCH  12  13
ATOM     13  C   UNL     1     -23.553 102.887   0.426  0.00  0.00    +0.000 C 
ATOM     14  C   UNL     1     -23.593 102.226   1.428  0.00  0.00    +0.000 C 
BRANCH  14  15
ATOM     15  C   UNL     1     -23.651 101.565   2.682  0.00  0.00    +0.000 A 
ATOM     16  O   UNL     1     -24.942 100.995   3.057  0.00  0.00    +0.000 OA
ATOM     17  C   UNL     1     -25.124 100.292   4.245  0.00  0.00    +0.000 A 
ATOM     18  O   UNL     1     -26.171  99.766   4.588  0.00  0.00    +0.000 OA
ATOM     19  C   UNL     1     -23.918 100.235   5.018  0.00  0.00    +0.000 A 
ATOM     20  C   UNL     1     -22.845 100.689   4.759  0.00  0.00    +0.000 A 
ATOM     21  C   UNL     1     -22.510 101.410   3.591  0.00  0.00    +0.000 A 
ATOM     22  C   UNL     1     -21.114 101.890   3.353  0.00  0.00    +0.000 C 
ENDBRANCH  14  15
ENDBRANCH  12  13
BRANCH  12  23
ATOM     23  C   UNL     1     -24.213 103.645  -1.883  0.00  0.00    +0.000 C 
ATOM     24  C   UNL     1     -24.970 103.485  -3.206  0.00  0.00    +0.000 C 
ENDBRANCH  12  23
ENDBRANCH   8   9
ENDBRANCH   7   8
ENDBRANCH   2   6
BRANCH   4  25
ATOM     25  C   UNL     1     -22.263 108.786   6.072  0.00  0.00    +0.000 C 
ATOM     26  O   UNL     1     -22.518 109.791   5.401  0.00  0.00    +0.000 OA
BRANCH  25  27
ATOM     27  C   UNL     1     -23.363 107.953   6.644  0.00  0.00    +0.000 C 
ATOM     28  C   UNL     1     -24.214 108.508   7.784  0.00  0.00    +0.000 C 
BRANCH  27  29
ATOM     29  C   UNL     1     -23.410 106.533   6.308  0.00  0.00    +0.000 C 
BRANCH  29  30
ATOM     30  C   UNL     1     -23.712 105.915   5.030  0.00  0.00    +0.000 C 
ATOM     31  C   UNL     1     -23.935 104.420   4.937  0.00  0.00    +0.000 C 
ATOM     32  C   UNL     1     -23.993 106.644   3.851  0.00  0.00    +0.000 C 
ATOM     33  C   UNL     1     -24.267 107.314   2.641  0.00  0.00    +0.000 C 
ATOM     34  C   UNL     1     -23.441 108.509   2.276  0.00  0.00    +0.000 C 
ATOM     35  C   UNL     1     -25.283 106.975   1.925  0.00  0.00    +0.000 C 
ATOM     36  C   UNL     1     -26.419 106.595   1.158  0.00  0.00    +0.000 C 
ATOM     37  O   UNL     1     -27.554 106.640   1.593  0.00  0.00    +0.000 OA
BRANCH  36  38
ATOM     38  O   UNL     1     -26.126 106.165  -0.079  0.00  0.00    +0.000 OA
ATOM     39  H   UNL     1     -26.544 106.822  -0.673  0.00  0.00    +0.000 HD
ENDBRANCH  36  38
ENDBRANCH  29  30
BRANCH  29  40
ATOM     40  O   UNL     1     -23.085 105.655   7.345  0.00  0.00    +0.000 OA
ATOM     41  H   UNL     1     -23.801 105.595   8.012  0.00  0.00    +0.000 HD
ENDBRANCH  29  40
ENDBRANCH  27  29
ENDBRANCH  25  27
ENDBRANCH   4  25
TORSDOF 12
ENDMDL
