MODEL 1
REMARK VINA RESULT:      -6.4      0.000      0.000
REMARK  Name = Lobelin.pdbqt.pdb
REMARK  3 active torsions:
REMARK  status: ('A' for Active; 'I' for Inactive)
REMARK    1  A    between atoms: C_9  and  O_10
REMARK    2  A    between atoms: C_9  and  C_12
REMARK    3  A    between atoms: C_19  and  C_21
REMARK                            x       y       z     vdW  Elec       q    Type
REMARK                         _______ _______ _______ _____ _____    ______ ____
ROOT
ATOM      1  N   UNL     1     -21.937 101.699   7.160  0.00  0.00    +0.000 N 
ATOM      2  C   UNL     1     -20.863 101.619   8.144  0.00  0.00    +0.000 C 
ATOM      3  C   UNL     1     -22.324 100.513   6.400  0.00  0.00    +0.000 C 
ATOM      4  C   UNL     1     -20.294 100.318   8.305  0.00  0.00    +0.000 C 
ATOM      5  C   UNL     1     -21.606  99.326   6.737  0.00  0.00    +0.000 C 
ATOM      6  C   UNL     1     -20.495  98.942   7.696  0.00  0.00    +0.000 C 
ATOM      7  C   UNL     1     -22.535 102.977   6.845  0.00  0.00    +0.000 C 
ATOM      8  C   UNL     1     -20.425 102.744   8.893  0.00  0.00    +0.000 C 
ATOM      9  C   UNL     1     -20.012 103.867   9.656  0.00  0.00    +0.000 C 
ATOM     10  C   UNL     1     -23.343 100.543   5.415  0.00  0.00    +0.000 C 
ATOM     11  C   UNL     1     -24.400 100.567   4.438  0.00  0.00    +0.000 C 
ATOM     12  O   UNL     1     -25.307  99.751   4.521  0.00  0.00    +0.000 OA
ENDROOT
BRANCH   9  13
ATOM     13  C   UNL     1     -20.871 104.584  10.599  0.00  0.00    +0.000 A 
ATOM     14  C   UNL     1     -20.447 104.832  11.907  0.00  0.00    +0.000 A 
ATOM     15  C   UNL     1     -21.264 105.515  12.806  0.00  0.00    +0.000 A 
ATOM     16  C   UNL     1     -22.519 105.960  12.403  0.00  0.00    +0.000 A 
ATOM     17  C   UNL     1     -22.957 105.720  11.104  0.00  0.00    +0.000 A 
ATOM     18  C   UNL     1     -22.135 105.035  10.210  0.00  0.00    +0.000 A 
ENDBRANCH   9  13
BRANCH  11  19
ATOM     19  C   UNL     1     -24.343 101.572   3.363  0.00  0.00    +0.000 A 
ATOM     20  C   UNL     1     -23.847 101.252   2.099  0.00  0.00    +0.000 A 
ATOM     21  C   UNL     1     -23.811 102.222   1.101  0.00  0.00    +0.000 A 
ATOM     22  C   UNL     1     -24.272 103.510   1.365  0.00  0.00    +0.000 A 
ATOM     23  C   UNL     1     -24.770 103.829   2.627  0.00  0.00    +0.000 A 
ATOM     24  C   UNL     1     -24.807 102.860   3.627  0.00  0.00    +0.000 A 
ENDBRANCH  11  19
BRANCH   9  25
ATOM     25  O   UNL     1     -18.721 104.324   9.520  0.00  0.00    +0.000 OA
ATOM     26  H   UNL     1     -18.203 103.774   8.908  0.00  0.00    +0.000 HD
ENDBRANCH   9  25
TORSDOF 3
ENDMDL
MODEL 2
REMARK VINA RESULT:      -6.4     13.353     15.512
REMARK  Name = Lobelin.pdbqt.pdb
REMARK  3 active torsions:
REMARK  status: ('A' for Active; 'I' for Inactive)
REMARK    1  A    between atoms: C_9  and  O_10
REMARK    2  A    between atoms: C_9  and  C_12
REMARK    3  A    between atoms: C_19  and  C_21
REMARK                            x       y       z     vdW  Elec       q    Type
REMARK                         _______ _______ _______ _____ _____    ______ ____
ROOT
ATOM      1  N   UNL     1     -29.734  99.923  18.853  0.00  0.00    +0.000 N 
ATOM      2  C   UNL     1     -28.761 100.873  19.382  0.00  0.00    +0.000 C 
ATOM      3  C   UNL     1     -29.992  99.861  17.417  0.00  0.00    +0.000 C 
ATOM      4  C   UNL     1     -28.095 101.660  18.393  0.00  0.00    +0.000 C 
ATOM      5  C   UNL     1     -29.202 100.752  16.629  0.00  0.00    +0.000 C 
ATOM      6  C   UNL     1     -28.134 101.799  16.882  0.00  0.00    +0.000 C 
ATOM      7  C   UNL     1     -30.535  99.129  19.758  0.00  0.00    +0.000 C 
ATOM      8  C   UNL     1     -28.489 100.997  20.771  0.00  0.00    +0.000 C 
ATOM      9  C   UNL     1     -28.204 101.096  22.158  0.00  0.00    +0.000 C 
ATOM     10  C   UNL     1     -30.945  98.974  16.855  0.00  0.00    +0.000 C 
ATOM     11  C   UNL     1     -31.888  98.050  16.282  0.00  0.00    +0.000 C 
ATOM     12  O   UNL     1     -31.527  97.315  15.375  0.00  0.00    +0.000 OA
ENDROOT
BRANCH   9  13
ATOM     13  C   UNL     1     -27.637 100.013  22.962  0.00  0.00    +0.000 A 
ATOM     14  C   UNL     1     -26.978 100.284  24.165  0.00  0.00    +0.000 A 
ATOM     15  C   UNL     1     -26.438  99.253  24.932  0.00  0.00    +0.000 A 
ATOM     16  C   UNL     1     -26.552  97.935  24.501  0.00  0.00    +0.000 A 
ATOM     17  C   UNL     1     -27.203  97.649  23.306  0.00  0.00    +0.000 A 
ATOM     18  C   UNL     1     -27.740  98.684  22.543  0.00  0.00    +0.000 A 
ENDBRANCH   9  13
BRANCH  11  19
ATOM     19  C   UNL     1     -33.265  98.035  16.806  0.00  0.00    +0.000 A 
ATOM     20  C   UNL     1     -34.236  98.906  16.312  0.00  0.00    +0.000 A 
ATOM     21  C   UNL     1     -35.531  98.862  16.823  0.00  0.00    +0.000 A 
ATOM     22  C   UNL     1     -35.854  97.950  17.825  0.00  0.00    +0.000 A 
ATOM     23  C   UNL     1     -34.884  97.078  18.316  0.00  0.00    +0.000 A 
ATOM     24  C   UNL     1     -33.589  97.119  17.807  0.00  0.00    +0.000 A 
ENDBRANCH  11  19
BRANCH   9  25
ATOM     25  O   UNL     1     -28.464 102.282  22.807  0.00  0.00    +0.000 OA
ATOM     26  H   UNL     1     -27.758 102.935  22.666  0.00  0.00    +0.000 HD
ENDBRANCH   9  25
TORSDOF 3
ENDMDL
MODEL 3
REMARK VINA RESULT:      -6.3     12.955     17.050
REMARK  Name = Lobelin.pdbqt.pdb
REMARK  3 active torsions:
REMARK  status: ('A' for Active; 'I' for Inactive)
REMARK    1  A    between atoms: C_9  and  O_10
REMARK    2  A    between atoms: C_9  and  C_12
REMARK    3  A    between atoms: C_19  and  C_21
REMARK                            x       y       z     vdW  Elec       q    Type
REMARK                         _______ _______ _______ _____ _____    ______ ____
ROOT
ATOM      1  N   UNL     1     -34.285 105.706  -0.395  0.00  0.00    +0.000 N 
ATOM      2  C   UNL     1     -33.427 105.786  -1.572  0.00  0.00    +0.000 C 
ATOM      3  C   UNL     1     -33.706 105.803   0.942  0.00  0.00    +0.000 C 
ATOM      4  C   UNL     1     -32.043 106.000  -1.290  0.00  0.00    +0.000 C 
ATOM      5  C   UNL     1     -32.294 106.015   0.968  0.00  0.00    +0.000 C 
ATOM      6  C   UNL     1     -31.180 106.158  -0.052  0.00  0.00    +0.000 C 
ATOM      7  C   UNL     1     -35.692 105.406  -0.545  0.00  0.00    +0.000 C 
ATOM      8  C   UNL     1     -33.931 105.671  -2.896  0.00  0.00    +0.000 C 
ATOM      9  C   UNL     1     -34.445 105.581  -4.216  0.00  0.00    +0.000 C 
ATOM     10  C   UNL     1     -34.492 105.706   2.118  0.00  0.00    +0.000 C 
ATOM     11  C   UNL     1     -35.294 105.641   3.311  0.00  0.00    +0.000 C 
ATOM     12  O   UNL     1     -35.198 106.531   4.144  0.00  0.00    +0.000 OA
ENDROOT
BRANCH   9  13
ATOM     13  C   UNL     1     -35.392 106.533  -4.797  0.00  0.00    +0.000 A 
ATOM     14  C   UNL     1     -36.462 107.028  -4.046  0.00  0.00    +0.000 A 
ATOM     15  C   UNL     1     -37.364 107.935  -4.599  0.00  0.00    +0.000 A 
ATOM     16  C   UNL     1     -37.204 108.359  -5.915  0.00  0.00    +0.000 A 
ATOM     17  C   UNL     1     -36.145 107.874  -6.676  0.00  0.00    +0.000 A 
ATOM     18  C   UNL     1     -35.247 106.967  -6.118  0.00  0.00    +0.000 A 
ENDBRANCH   9  13
BRANCH  11  19
ATOM     19  C   UNL     1     -36.198 104.491   3.489  0.00  0.00    +0.000 A 
ATOM     20  C   UNL     1     -36.212 103.435   2.579  0.00  0.00    +0.000 A 
ATOM     21  C   UNL     1     -37.072 102.358   2.778  0.00  0.00    +0.000 A 
ATOM     22  C   UNL     1     -37.916 102.337   3.886  0.00  0.00    +0.000 A 
ATOM     23  C   UNL     1     -37.899 103.391   4.798  0.00  0.00    +0.000 A 
ATOM     24  C   UNL     1     -37.040 104.469   4.601  0.00  0.00    +0.000 A 
ENDBRANCH  11  19
BRANCH   9  25
ATOM     25  O   UNL     1     -34.035 104.542  -5.020  0.00  0.00    +0.000 OA
ATOM     26  H   UNL     1     -34.624 103.772  -4.948  0.00  0.00    +0.000 HD
ENDBRANCH   9  25
TORSDOF 3
ENDMDL
MODEL 4
REMARK VINA RESULT:      -6.3     14.580     15.892
REMARK  Name = Lobelin.pdbqt.pdb
REMARK  3 active torsions:
REMARK  status: ('A' for Active; 'I' for Inactive)
REMARK    1  A    between atoms: C_9  and  O_10
REMARK    2  A    between atoms: C_9  and  C_12
REMARK    3  A    between atoms: C_19  and  C_21
REMARK                            x       y       z     vdW  Elec       q    Type
REMARK                         _______ _______ _______ _____ _____    ______ ____
ROOT
ATOM      1  N   UNL     1     -33.413  98.186  18.032  0.00  0.00    +0.000 N 
ATOM      2  C   UNL     1     -32.269  97.557  18.684  0.00  0.00    +0.000 C 
ATOM      3  C   UNL     1     -34.678  97.466  17.918  0.00  0.00    +0.000 C 
ATOM      4  C   UNL     1     -32.521  96.252  19.207  0.00  0.00    +0.000 C 
ATOM      5  C   UNL     1     -34.685  96.169  18.518  0.00  0.00    +0.000 C 
ATOM      6  C   UNL     1     -33.695  95.291  19.259  0.00  0.00    +0.000 C 
ATOM      7  C   UNL     1     -33.262  99.471  17.387  0.00  0.00    +0.000 C 
ATOM      8  C   UNL     1     -31.007  98.199  18.801  0.00  0.00    +0.000 C 
ATOM      9  C   UNL     1     -29.756  98.856  18.935  0.00  0.00    +0.000 C 
ATOM     10  C   UNL     1     -35.812  98.020  17.271  0.00  0.00    +0.000 C 
ATOM     11  C   UNL     1     -36.972  98.597  16.644  0.00  0.00    +0.000 C 
ATOM     12  O   UNL     1     -38.031  98.618  17.254  0.00  0.00    +0.000 OA
ENDROOT
BRANCH   9  13
ATOM     13  C   UNL     1     -29.553 100.093  19.691  0.00  0.00    +0.000 A 
ATOM     14  C   UNL     1     -30.551 101.070  19.745  0.00  0.00    +0.000 A 
ATOM     15  C   UNL     1     -30.358 102.249  20.465  0.00  0.00    +0.000 A 
ATOM     16  C   UNL     1     -29.161 102.462  21.141  0.00  0.00    +0.000 A 
ATOM     17  C   UNL     1     -28.158 101.499  21.096  0.00  0.00    +0.000 A 
ATOM     18  C   UNL     1     -28.355 100.323  20.374  0.00  0.00    +0.000 A 
ENDBRANCH   9  13
BRANCH  11  19
ATOM     19  C   UNL     1     -36.840  99.133  15.278  0.00  0.00    +0.000 A 
ATOM     20  C   UNL     1     -37.961  99.382  14.488  0.00  0.00    +0.000 A 
ATOM     21  C   UNL     1     -37.805  99.895  13.203  0.00  0.00    +0.000 A 
ATOM     22  C   UNL     1     -36.529 100.160  12.709  0.00  0.00    +0.000 A 
ATOM     23  C   UNL     1     -35.409  99.914  13.501  0.00  0.00    +0.000 A 
ATOM     24  C   UNL     1     -35.563  99.401  14.786  0.00  0.00    +0.000 A 
ENDBRANCH  11  19
BRANCH   9  25
ATOM     25  O   UNL     1     -28.648  98.309  18.329  0.00  0.00    +0.000 OA
ATOM     26  H   UNL     1     -28.438  98.751  17.490  0.00  0.00    +0.000 HD
ENDBRANCH   9  25
TORSDOF 3
ENDMDL
MODEL 5
REMARK VINA RESULT:      -5.9     22.966     24.656
REMARK  Name = Lobelin.pdbqt.pdb
REMARK  3 active torsions:
REMARK  status: ('A' for Active; 'I' for Inactive)
REMARK    1  A    between atoms: C_9  and  O_10
REMARK    2  A    between atoms: C_9  and  C_12
REMARK    3  A    between atoms: C_19  and  C_21
REMARK                            x       y       z     vdW  Elec       q    Type
REMARK                         _______ _______ _______ _____ _____    ______ ____
ROOT
ATOM      1  N   UNL     1     -32.168  96.173 -14.132  0.00  0.00    +0.000 N 
ATOM      2  C   UNL     1     -31.720  95.084 -14.993  0.00  0.00    +0.000 C 
ATOM      3  C   UNL     1     -33.414  96.048 -13.381  0.00  0.00    +0.000 C 
ATOM      4  C   UNL     1     -32.565  93.931 -14.989  0.00  0.00    +0.000 C 
ATOM      5  C   UNL     1     -34.087  94.798 -13.541  0.00  0.00    +0.000 C 
ATOM      6  C   UNL     1     -33.862  93.516 -14.319  0.00  0.00    +0.000 C 
ATOM      7  C   UNL     1     -31.446  97.426 -14.116  0.00  0.00    +0.000 C 
ATOM      8  C   UNL     1     -30.531  95.159 -15.767  0.00  0.00    +0.000 C 
ATOM      9  C   UNL     1     -29.329  95.232 -16.518  0.00  0.00    +0.000 C 
ATOM     10  C   UNL     1     -33.907  97.087 -12.551  0.00  0.00    +0.000 C 
ATOM     11  C   UNL     1     -34.389  98.128 -11.682  0.00  0.00    +0.000 C 
ATOM     12  O   UNL     1     -34.672  97.855 -10.524  0.00  0.00    +0.000 OA
ENDROOT
BRANCH   9  13
ATOM     13  C   UNL     1     -27.996  95.360 -15.927  0.00  0.00    +0.000 A 
ATOM     14  C   UNL     1     -26.915  95.809 -16.691  0.00  0.00    +0.000 A 
ATOM     15  C   UNL     1     -25.645  95.932 -16.129  0.00  0.00    +0.000 A 
ATOM     16  C   UNL     1     -25.443  95.607 -14.792  0.00  0.00    +0.000 A 
ATOM     17  C   UNL     1     -26.509  95.158 -14.018  0.00  0.00    +0.000 A 
ATOM     18  C   UNL     1     -27.776  95.036 -14.585  0.00  0.00    +0.000 A 
ENDBRANCH   9  13
BRANCH  11  19
ATOM     19  C   UNL     1     -34.535  99.488 -12.228  0.00  0.00    +0.000 A 
ATOM     20  C   UNL     1     -33.774  99.917 -13.316  0.00  0.00    +0.000 A 
ATOM     21  C   UNL     1     -33.940 101.207 -13.814  0.00  0.00    +0.000 A 
ATOM     22  C   UNL     1     -34.866 102.066 -13.227  0.00  0.00    +0.000 A 
ATOM     23  C   UNL     1     -35.629 101.636 -12.143  0.00  0.00    +0.000 A 
ATOM     24  C   UNL     1     -35.465 100.347 -11.643  0.00  0.00    +0.000 A 
ENDBRANCH  11  19
BRANCH   9  25
ATOM     25  O   UNL     1     -29.397  95.173 -17.891  0.00  0.00    +0.000 OA
ATOM     26  H   UNL     1     -29.803  94.346 -18.199  0.00  0.00    +0.000 HD
ENDBRANCH   9  25
TORSDOF 3
ENDMDL
MODEL 6
REMARK VINA RESULT:      -5.9     18.409     20.626
REMARK  Name = Lobelin.pdbqt.pdb
REMARK  3 active torsions:
REMARK  status: ('A' for Active; 'I' for Inactive)
REMARK    1  A    between atoms: C_9  and  O_10
REMARK    2  A    between atoms: C_9  and  C_12
REMARK    3  A    between atoms: C_19  and  C_21
REMARK                            x       y       z     vdW  Elec       q    Type
REMARK                         _______ _______ _______ _____ _____    ______ ____
ROOT
ATOM      1  N   UNL     1     -30.064  87.635  16.351  0.00  0.00    +0.000 N 
ATOM      2  C   UNL     1     -30.979  88.231  17.319  0.00  0.00    +0.000 C 
ATOM      3  C   UNL     1     -29.098  88.471  15.645  0.00  0.00    +0.000 C 
ATOM      4  C   UNL     1     -30.806  89.635  17.519  0.00  0.00    +0.000 C 
ATOM      5  C   UNL     1     -29.117  89.850  16.014  0.00  0.00    +0.000 C 
ATOM      6  C   UNL     1     -29.907  90.726  16.968  0.00  0.00    +0.000 C 
ATOM      7  C   UNL     1     -30.196  86.239  15.997  0.00  0.00    +0.000 C 
ATOM      8  C   UNL     1     -31.958  87.473  18.016  0.00  0.00    +0.000 C 
ATOM      9  C   UNL     1     -32.915  86.704  18.727  0.00  0.00    +0.000 C 
ATOM     10  C   UNL     1     -28.205  87.945  14.677  0.00  0.00    +0.000 C 
ATOM     11  C   UNL     1     -27.276  87.406  13.719  0.00  0.00    +0.000 C 
ATOM     12  O   UNL     1     -26.083  87.638  13.849  0.00  0.00    +0.000 OA
ENDROOT
BRANCH   9  13
ATOM     13  C   UNL     1     -32.579  85.625  19.657  0.00  0.00    +0.000 A 
ATOM     14  C   UNL     1     -31.249  85.247  19.864  0.00  0.00    +0.000 A 
ATOM     15  C   UNL     1     -30.928  84.220  20.750  0.00  0.00    +0.000 A 
ATOM     16  C   UNL     1     -31.937  83.557  21.440  0.00  0.00    +0.000 A 
ATOM     17  C   UNL     1     -33.266  83.919  21.243  0.00  0.00    +0.000 A 
ATOM     18  C   UNL     1     -33.582  84.947  20.356  0.00  0.00    +0.000 A 
ENDBRANCH   9  13
BRANCH  11  19
ATOM     19  C   UNL     1     -27.804  86.599  12.604  0.00  0.00    +0.000 A 
ATOM     20  C   UNL     1     -29.071  86.840  12.074  0.00  0.00    +0.000 A 
ATOM     21  C   UNL     1     -29.540  86.065  11.016  0.00  0.00    +0.000 A 
ATOM     22  C   UNL     1     -28.742  85.052  10.488  0.00  0.00    +0.000 A 
ATOM     23  C   UNL     1     -27.474  84.814  11.016  0.00  0.00    +0.000 A 
ATOM     24  C   UNL     1     -27.003  85.588  12.074  0.00  0.00    +0.000 A 
ENDBRANCH  11  19
BRANCH   9  25
ATOM     25  O   UNL     1     -34.252  86.978  18.551  0.00  0.00    +0.000 OA
ATOM     26  H   UNL     1     -34.537  87.746  19.075  0.00  0.00    +0.000 HD
ENDBRANCH   9  25
TORSDOF 3
ENDMDL
MODEL 7
REMARK VINA RESULT:      -5.8     15.940     18.129
REMARK  Name = Lobelin.pdbqt.pdb
REMARK  3 active torsions:
REMARK  status: ('A' for Active; 'I' for Inactive)
REMARK    1  A    between atoms: C_9  and  O_10
REMARK    2  A    between atoms: C_9  and  C_12
REMARK    3  A    between atoms: C_19  and  C_21
REMARK                            x       y       z     vdW  Elec       q    Type
REMARK                         _______ _______ _______ _____ _____    ______ ____
ROOT
ATOM      1  N   UNL     1     -36.811 100.471  15.499  0.00  0.00    +0.000 N 
ATOM      2  C   UNL     1     -36.034 100.613  14.273  0.00  0.00    +0.000 C 
ATOM      3  C   UNL     1     -38.256 100.268  15.432  0.00  0.00    +0.000 C 
ATOM      4  C   UNL     1     -36.792 100.496  13.067  0.00  0.00    +0.000 C 
ATOM      5  C   UNL     1     -38.788 100.187  14.109  0.00  0.00    +0.000 C 
ATOM      6  C   UNL     1     -38.246 100.271  12.694  0.00  0.00    +0.000 C 
ATOM      7  C   UNL     1     -36.174 100.655  16.784  0.00  0.00    +0.000 C 
ATOM      8  C   UNL     1     -34.631 100.839  14.277  0.00  0.00    +0.000 C 
ATOM      9  C   UNL     1     -33.226 101.039  14.289  0.00  0.00    +0.000 C 
ATOM     10  C   UNL     1     -39.060 100.150  16.593  0.00  0.00    +0.000 C 
ATOM     11  C   UNL     1     -39.871  99.997  17.772  0.00  0.00    +0.000 C 
ATOM     12  O   UNL     1     -40.609  99.026  17.867  0.00  0.00    +0.000 OA
ENDROOT
BRANCH   9  13
ATOM     13  C   UNL     1     -32.263 100.080  14.831  0.00  0.00    +0.000 A 
ATOM     14  C   UNL     1     -32.694  98.960  15.548  0.00  0.00    +0.000 A 
ATOM     15  C   UNL     1     -31.777  98.046  16.064  0.00  0.00    +0.000 A 
ATOM     16  C   UNL     1     -30.414  98.242  15.867  0.00  0.00    +0.000 A 
ATOM     17  C   UNL     1     -29.969  99.353  15.155  0.00  0.00    +0.000 A 
ATOM     18  C   UNL     1     -30.890 100.264  14.642  0.00  0.00    +0.000 A 
ENDBRANCH   9  13
BRANCH  11  19
ATOM     19  C   UNL     1     -39.790 101.028  18.821  0.00  0.00    +0.000 A 
ATOM     20  C   UNL     1     -39.169 102.254  18.583  0.00  0.00    +0.000 A 
ATOM     21  C   UNL     1     -39.114 103.212  19.593  0.00  0.00    +0.000 A 
ATOM     22  C   UNL     1     -39.680 102.945  20.837  0.00  0.00    +0.000 A 
ATOM     23  C   UNL     1     -40.304 101.721  21.073  0.00  0.00    +0.000 A 
ATOM     24  C   UNL     1     -40.361 100.762  20.066  0.00  0.00    +0.000 A 
ENDBRANCH  11  19
BRANCH   9  25
ATOM     25  O   UNL     1     -32.715 102.200  13.756  0.00  0.00    +0.000 OA
ATOM     26  H   UNL     1     -32.394 102.806  14.446  0.00  0.00    +0.000 HD
ENDBRANCH   9  25
TORSDOF 3
ENDMDL
MODEL 8
REMARK VINA RESULT:      -5.7     16.749     19.141
REMARK  Name = Lobelin.pdbqt.pdb
REMARK  3 active torsions:
REMARK  status: ('A' for Active; 'I' for Inactive)
REMARK    1  A    between atoms: C_9  and  O_10
REMARK    2  A    between atoms: C_9  and  C_12
REMARK    3  A    between atoms: C_19  and  C_21
REMARK                            x       y       z     vdW  Elec       q    Type
REMARK                         _______ _______ _______ _____ _____    ______ ____
ROOT
ATOM      1  N   UNL     1     -36.226  97.935  18.486  0.00  0.00    +0.000 N 
ATOM      2  C   UNL     1     -37.585  98.464  18.441  0.00  0.00    +0.000 C 
ATOM      3  C   UNL     1     -35.906  96.811  19.361  0.00  0.00    +0.000 C 
ATOM      4  C   UNL     1     -38.524  97.773  19.267  0.00  0.00    +0.000 C 
ATOM      5  C   UNL     1     -37.014  96.288  20.095  0.00  0.00    +0.000 C 
ATOM      6  C   UNL     1     -38.492  96.601  20.232  0.00  0.00    +0.000 C 
ATOM      7  C   UNL     1     -35.166  98.601  17.761  0.00  0.00    +0.000 C 
ATOM      8  C   UNL     1     -37.949  99.572  17.630  0.00  0.00    +0.000 C 
ATOM      9  C   UNL     1     -38.310 100.664  16.798  0.00  0.00    +0.000 C 
ATOM     10  C   UNL     1     -34.596  96.276  19.461  0.00  0.00    +0.000 C 
ATOM     11  C   UNL     1     -33.274  95.713  19.537  0.00  0.00    +0.000 C 
ATOM     12  O   UNL     1     -33.128  94.510  19.373  0.00  0.00    +0.000 OA
ENDROOT
BRANCH   9  13
ATOM     13  C   UNL     1     -38.230 100.647  15.337  0.00  0.00    +0.000 A 
ATOM     14  C   UNL     1     -37.374  99.760  14.677  0.00  0.00    +0.000 A 
ATOM     15  C   UNL     1     -37.297  99.743  13.286  0.00  0.00    +0.000 A 
ATOM     16  C   UNL     1     -38.080 100.616  12.536  0.00  0.00    +0.000 A 
ATOM     17  C   UNL     1     -38.936 101.506  13.178  0.00  0.00    +0.000 A 
ATOM     18  C   UNL     1     -39.007 101.519  14.570  0.00  0.00    +0.000 A 
ENDBRANCH   9  13
BRANCH  11  19
ATOM     19  C   UNL     1     -32.142  96.611  19.824  0.00  0.00    +0.000 A 
ATOM     20  C   UNL     1     -30.907  96.441  19.198  0.00  0.00    +0.000 A 
ATOM     21  C   UNL     1     -29.858  97.311  19.484  0.00  0.00    +0.000 A 
ATOM     22  C   UNL     1     -30.043  98.349  20.394  0.00  0.00    +0.000 A 
ATOM     23  C   UNL     1     -31.278  98.521  21.017  0.00  0.00    +0.000 A 
ATOM     24  C   UNL     1     -32.329  97.653  20.732  0.00  0.00    +0.000 A 
ENDBRANCH  11  19
BRANCH   9  25
ATOM     25  O   UNL     1     -38.774 101.820  17.382  0.00  0.00    +0.000 OA
ATOM     26  H   UNL     1     -38.446 101.926  18.291  0.00  0.00    +0.000 HD
ENDBRANCH   9  25
TORSDOF 3
ENDMDL
MODEL 9
REMARK VINA RESULT:      -5.7     15.037     18.717
REMARK  Name = Lobelin.pdbqt.pdb
REMARK  3 active torsions:
REMARK  status: ('A' for Active; 'I' for Inactive)
REMARK    1  A    between atoms: C_9  and  O_10
REMARK    2  A    between atoms: C_9  and  C_12
REMARK    3  A    between atoms: C_19  and  C_21
REMARK                            x       y       z     vdW  Elec       q    Type
REMARK                         _______ _______ _______ _____ _____    ______ ____
ROOT
ATOM      1  N   UNL     1     -38.273 104.013   1.801  0.00  0.00    +0.000 N 
ATOM      2  C   UNL     1     -36.858 104.225   1.514  0.00  0.00    +0.000 C 
ATOM      3  C   UNL     1     -38.715 103.778   3.173  0.00  0.00    +0.000 C 
ATOM      4  C   UNL     1     -36.007 104.222   2.662  0.00  0.00    +0.000 C 
ATOM      5  C   UNL     1     -37.675 103.819   4.152  0.00  0.00    +0.000 C 
ATOM      6  C   UNL     1     -36.174 104.033   4.159  0.00  0.00    +0.000 C 
ATOM      7  C   UNL     1     -39.223 103.909   0.716  0.00  0.00    +0.000 C 
ATOM      8  C   UNL     1     -36.367 104.431   0.197  0.00  0.00    +0.000 C 
ATOM      9  C   UNL     1     -35.887 104.661  -1.119  0.00  0.00    +0.000 C 
ATOM     10  C   UNL     1     -40.073 103.541   3.503  0.00  0.00    +0.000 C 
ATOM     11  C   UNL     1     -41.457 103.333   3.840  0.00  0.00    +0.000 C 
ATOM     12  O   UNL     1     -41.969 104.024   4.709  0.00  0.00    +0.000 OA
ENDROOT
BRANCH   9  13
ATOM     13  C   UNL     1     -36.264 105.811  -1.943  0.00  0.00    +0.000 A 
ATOM     14  C   UNL     1     -37.541 106.370  -1.850  0.00  0.00    +0.000 A 
ATOM     15  C   UNL     1     -37.901 107.465  -2.634  0.00  0.00    +0.000 A 
ATOM     16  C   UNL     1     -36.982 108.014  -3.523  0.00  0.00    +0.000 A 
ATOM     17  C   UNL     1     -35.707 107.468  -3.629  0.00  0.00    +0.000 A 
ATOM     18  C   UNL     1     -35.353 106.372  -2.842  0.00  0.00    +0.000 A 
ENDBRANCH   9  13
BRANCH  11  19
ATOM     19  C   UNL     1     -42.204 102.280   3.130  0.00  0.00    +0.000 A 
ATOM     20  C   UNL     1     -41.680 101.662   1.995  0.00  0.00    +0.000 A 
ATOM     21  C   UNL     1     -42.407 100.665   1.350  0.00  0.00    +0.000 A 
ATOM     22  C   UNL     1     -43.655 100.286   1.839  0.00  0.00    +0.000 A 
ATOM     23  C   UNL     1     -44.177 100.902   2.975  0.00  0.00    +0.000 A 
ATOM     24  C   UNL     1     -43.452 101.899   3.623  0.00  0.00    +0.000 A 
ENDBRANCH  11  19
BRANCH   9  25
ATOM     25  O   UNL     1     -35.005 103.762  -1.672  0.00  0.00    +0.000 OA
ATOM     26  H   UNL     1     -34.600 103.189  -0.999  0.00  0.00    +0.000 HD
ENDBRANCH   9  25
TORSDOF 3
ENDMDL
