MODEL 1
REMARK VINA RESULT:      -5.8      0.000      0.000
REMARK  Name = LUCANTHONE.pdbqt.pdb
REMARK  5 active torsions:
REMARK  status: ('A' for Active; 'I' for Inactive)
REMARK    1  A    between atoms: C_3  and  N_17
REMARK    2  A    between atoms: N_17  and  C_19
REMARK    3  A    between atoms: C_20  and  N_21
REMARK    4  A    between atoms: N_21  and  C_22
REMARK    5  A    between atoms: N_21  and  C_24
REMARK                            x       y       z     vdW  Elec       q    Type
REMARK                         _______ _______ _______ _____ _____    ______ ____
ROOT
ATOM      1  S   UNL     1     -19.593  98.599   7.668  0.00  0.00    +0.000 S 
ATOM      2  O   UNL     1     -21.387  99.379   3.799  0.00  0.00    +0.000 OA
ATOM      3  C   UNL     1     -22.931 100.312   5.936  0.00  0.00    +0.000 A 
ATOM      4  C   UNL     1     -21.721  99.586   6.120  0.00  0.00    +0.000 A 
ATOM      5  C   UNL     1     -21.144  99.462   7.401  0.00  0.00    +0.000 A 
ATOM      6  C   UNL     1     -21.804 100.068   8.495  0.00  0.00    +0.000 A 
ATOM      7  C   UNL     1     -21.074  98.981   4.920  0.00  0.00    +0.000 A 
ATOM      8  C   UNL     1     -23.557 100.869   7.057  0.00  0.00    +0.000 A 
ATOM      9  C   UNL     1     -20.089  97.896   5.027  0.00  0.00    +0.000 A 
ATOM     10  C   UNL     1     -22.997 100.762   8.319  0.00  0.00    +0.000 A 
ATOM     11  C   UNL     1     -19.408  97.634   6.207  0.00  0.00    +0.000 A 
ATOM     12  C   UNL     1     -21.293 100.011   9.918  0.00  0.00    +0.000 C 
ATOM     13  C   UNL     1     -19.841  97.128   3.884  0.00  0.00    +0.000 A 
ATOM     14  C   UNL     1     -18.481  96.590   6.234  0.00  0.00    +0.000 A 
ATOM     15  C   UNL     1     -18.920  96.086   3.922  0.00  0.00    +0.000 A 
ATOM     16  C   UNL     1     -18.239  95.813   5.103  0.00  0.00    +0.000 A 
ENDROOT
BRANCH   3  17
ATOM     17  N   UNL     1     -23.600 100.348   4.684  0.00  0.00    +0.000 N 
ATOM     18  H   UNL     1     -23.121  99.758   3.986  0.00  0.00    +0.000 HD
BRANCH  17  19
ATOM     19  C   UNL     1     -24.151 101.603   4.201  0.00  0.00    +0.000 C 
ATOM     20  C   UNL     1     -24.731 102.927   3.694  0.00  0.00    +0.000 C 
BRANCH  20  21
ATOM     21  N   UNL     1     -25.285 104.186   3.224  0.00  0.00    +0.000 N 
BRANCH  21  22
ATOM     22  C   UNL     1     -24.980 104.290   1.808  0.00  0.00    +0.000 C 
ATOM     23  C   UNL     1     -24.644 104.397   0.318  0.00  0.00    +0.000 C 
ENDBRANCH  21  22
BRANCH  21  24
ATOM     24  C   UNL     1     -24.548 105.249   3.881  0.00  0.00    +0.000 C 
ATOM     25  C   UNL     1     -23.767 106.358   4.592  0.00  0.00    +0.000 C 
ENDBRANCH  21  24
ENDBRANCH  20  21
ENDBRANCH  17  19
ENDBRANCH   3  17
TORSDOF 5
ENDMDL
MODEL 2
REMARK VINA RESULT:      -5.1     14.243     17.888
REMARK  Name = LUCANTHONE.pdbqt.pdb
REMARK  5 active torsions:
REMARK  status: ('A' for Active; 'I' for Inactive)
REMARK    1  A    between atoms: C_3  and  N_17
REMARK    2  A    between atoms: N_17  and  C_19
REMARK    3  A    between atoms: C_20  and  N_21
REMARK    4  A    between atoms: N_21  and  C_22
REMARK    5  A    between atoms: N_21  and  C_24
REMARK                            x       y       z     vdW  Elec       q    Type
REMARK                         _______ _______ _______ _____ _____    ______ ____
ROOT
ATOM      1  S   UNL     1     -32.122  98.226  16.051  0.00  0.00    +0.000 S 
ATOM      2  O   UNL     1     -28.703  99.965  18.072  0.00  0.00    +0.000 OA
ATOM      3  C   UNL     1     -30.397  98.554  19.792  0.00  0.00    +0.000 A 
ATOM      4  C   UNL     1     -30.684  98.740  18.411  0.00  0.00    +0.000 A 
ATOM      5  C   UNL     1     -31.757  98.058  17.800  0.00  0.00    +0.000 A 
ATOM      6  C   UNL     1     -32.543  97.193  18.598  0.00  0.00    +0.000 A 
ATOM      7  C   UNL     1     -29.809  99.659  17.627  0.00  0.00    +0.000 A 
ATOM      8  C   UNL     1     -31.224  97.709  20.541  0.00  0.00    +0.000 A 
ATOM      9  C   UNL     1     -30.233 100.241  16.347  0.00  0.00    +0.000 A 
ATOM     10  C   UNL     1     -32.274  97.025  19.953  0.00  0.00    +0.000 A 
ATOM     11  C   UNL     1     -31.264  99.694  15.596  0.00  0.00    +0.000 A 
ATOM     12  C   UNL     1     -33.720  96.404  18.069  0.00  0.00    +0.000 C 
ATOM     13  C   UNL     1     -29.551 101.373  15.889  0.00  0.00    +0.000 A 
ATOM     14  C   UNL     1     -31.610 100.297  14.385  0.00  0.00    +0.000 A 
ATOM     15  C   UNL     1     -29.907 101.971  14.685  0.00  0.00    +0.000 A 
ATOM     16  C   UNL     1     -30.944 101.433  13.930  0.00  0.00    +0.000 A 
ENDROOT
BRANCH   3  17
ATOM     17  N   UNL     1     -29.407  99.320  20.461  0.00  0.00    +0.000 N 
ATOM     18  H   UNL     1     -28.816  99.836  19.791  0.00  0.00    +0.000 HD
BRANCH  17  19
ATOM     19  C   UNL     1     -28.733  98.763  21.622  0.00  0.00    +0.000 C 
ATOM     20  C   UNL     1     -28.023  98.177  22.847  0.00  0.00    +0.000 C 
BRANCH  20  21
ATOM     21  N   UNL     1     -27.345  97.632  24.011  0.00  0.00    +0.000 N 
BRANCH  21  22
ATOM     22  C   UNL     1     -28.369  97.205  24.947  0.00  0.00    +0.000 C 
ATOM     23  C   UNL     1     -29.459  96.751  25.922  0.00  0.00    +0.000 C 
ENDBRANCH  21  22
BRANCH  21  24
ATOM     24  C   UNL     1     -26.639  98.728  24.646  0.00  0.00    +0.000 C 
ATOM     25  C   UNL     1     -25.908  99.887  25.332  0.00  0.00    +0.000 C 
ENDBRANCH  21  24
ENDBRANCH  20  21
ENDBRANCH  17  19
ENDBRANCH   3  17
TORSDOF 5
ENDMDL
MODEL 3
REMARK VINA RESULT:      -4.9      2.495      7.271
REMARK  Name = LUCANTHONE.pdbqt.pdb
REMARK  5 active torsions:
REMARK  status: ('A' for Active; 'I' for Inactive)
REMARK    1  A    between atoms: C_3  and  N_17
REMARK    2  A    between atoms: N_17  and  C_19
REMARK    3  A    between atoms: C_20  and  N_21
REMARK    4  A    between atoms: N_21  and  C_22
REMARK    5  A    between atoms: N_21  and  C_24
REMARK                            x       y       z     vdW  Elec       q    Type
REMARK                         _______ _______ _______ _____ _____    ______ ____
ROOT
ATOM      1  S   UNL     1     -23.524 103.878   6.463  0.00  0.00    +0.000 S 
ATOM      2  O   UNL     1     -24.002 100.552   3.722  0.00  0.00    +0.000 OA
ATOM      3  C   UNL     1     -22.152 100.044   5.757  0.00  0.00    +0.000 A 
ATOM      4  C   UNL     1     -22.803 101.300   5.604  0.00  0.00    +0.000 A 
ATOM      5  C   UNL     1     -22.680 102.299   6.592  0.00  0.00    +0.000 A 
ATOM      6  C   UNL     1     -21.887 102.022   7.731  0.00  0.00    +0.000 A 
ATOM      7  C   UNL     1     -23.630 101.521   4.383  0.00  0.00    +0.000 A 
ATOM      8  C   UNL     1     -21.358  99.833   6.889  0.00  0.00    +0.000 A 
ATOM      9  C   UNL     1     -23.996 102.866   3.919  0.00  0.00    +0.000 A 
ATOM     10  C   UNL     1     -21.236 100.800   7.872  0.00  0.00    +0.000 A 
ATOM     11  C   UNL     1     -23.952 103.970   4.757  0.00  0.00    +0.000 A 
ATOM     12  C   UNL     1     -21.673 103.004   8.862  0.00  0.00    +0.000 C 
ATOM     13  C   UNL     1     -24.411 103.005   2.590  0.00  0.00    +0.000 A 
ATOM     14  C   UNL     1     -24.319 105.219   4.250  0.00  0.00    +0.000 A 
ATOM     15  C   UNL     1     -24.769 104.254   2.091  0.00  0.00    +0.000 A 
ATOM     16  C   UNL     1     -24.720 105.366   2.924  0.00  0.00    +0.000 A 
ENDROOT
BRANCH   3  17
ATOM     17  N   UNL     1     -22.154  99.069   4.724  0.00  0.00    +0.000 N 
ATOM     18  H   UNL     1     -22.971  98.445   4.799  0.00  0.00    +0.000 HD
BRANCH  17  19
ATOM     19  C   UNL     1     -20.902  98.452   4.320  0.00  0.00    +0.000 C 
ATOM     20  C   UNL     1     -19.582  97.799   3.896  0.00  0.00    +0.000 C 
BRANCH  20  21
ATOM     21  N   UNL     1     -18.326  97.180   3.504  0.00  0.00    +0.000 N 
BRANCH  21  22
ATOM     22  C   UNL     1     -17.796  97.947   2.391  0.00  0.00    +0.000 C 
ATOM     23  C   UNL     1     -17.250  98.752   1.209  0.00  0.00    +0.000 C 
ENDBRANCH  21  22
BRANCH  21  24
ATOM     24  C   UNL     1     -18.643  95.864   2.983  0.00  0.00    +0.000 C 
ATOM     25  C   UNL     1     -18.994  94.474   2.445  0.00  0.00    +0.000 C 
ENDBRANCH  21  24
ENDBRANCH  20  21
ENDBRANCH  17  19
ENDBRANCH   3  17
TORSDOF 5
ENDMDL
MODEL 4
REMARK VINA RESULT:      -4.9      2.579      7.364
REMARK  Name = LUCANTHONE.pdbqt.pdb
REMARK  5 active torsions:
REMARK  status: ('A' for Active; 'I' for Inactive)
REMARK    1  A    between atoms: C_3  and  N_17
REMARK    2  A    between atoms: N_17  and  C_19
REMARK    3  A    between atoms: C_20  and  N_21
REMARK    4  A    between atoms: N_21  and  C_22
REMARK    5  A    between atoms: N_21  and  C_24
REMARK                            x       y       z     vdW  Elec       q    Type
REMARK                         _______ _______ _______ _____ _____    ______ ____
ROOT
ATOM      1  S   UNL     1     -21.806 101.781   8.532  0.00  0.00    +0.000 S 
ATOM      2  O   UNL     1     -23.259 100.192   4.769  0.00  0.00    +0.000 OA
ATOM      3  C   UNL     1     -21.147  98.709   5.847  0.00  0.00    +0.000 A 
ATOM      4  C   UNL     1     -21.631  99.906   6.445  0.00  0.00    +0.000 A 
ATOM      5  C   UNL     1     -21.184 100.305   7.722  0.00  0.00    +0.000 A 
ATOM      6  C   UNL     1     -20.236  99.490   8.385  0.00  0.00    +0.000 A 
ATOM      7  C   UNL     1     -22.636 100.713   5.693  0.00  0.00    +0.000 A 
ATOM      8  C   UNL     1     -20.190  97.955   6.535  0.00  0.00    +0.000 A 
ATOM      9  C   UNL     1     -22.890 102.127   5.999  0.00  0.00    +0.000 A 
ATOM     10  C   UNL     1     -19.749  98.329   7.793  0.00  0.00    +0.000 A 
ATOM     11  C   UNL     1     -22.532 102.693   7.213  0.00  0.00    +0.000 A 
ATOM     12  C   UNL     1     -19.676  99.803   9.755  0.00  0.00    +0.000 C 
ATOM     13  C   UNL     1     -23.525 102.899   5.020  0.00  0.00    +0.000 A 
ATOM     14  C   UNL     1     -22.810 104.043   7.437  0.00  0.00    +0.000 A 
ATOM     15  C   UNL     1     -23.792 104.246   5.249  0.00  0.00    +0.000 A 
ATOM     16  C   UNL     1     -23.430 104.821   6.462  0.00  0.00    +0.000 A 
ENDROOT
BRANCH   3  17
ATOM     17  N   UNL     1     -21.482  98.349   4.515  0.00  0.00    +0.000 N 
ATOM     18  H   UNL     1     -22.504  98.294   4.388  0.00  0.00    +0.000 HD
BRANCH  17  19
ATOM     19  C   UNL     1     -20.688  97.348   3.823  0.00  0.00    +0.000 C 
ATOM     20  C   UNL     1     -19.851  96.291   3.095  0.00  0.00    +0.000 C 
BRANCH  20  21
ATOM     21  N   UNL     1     -19.046  95.293   2.410  0.00  0.00    +0.000 N 
BRANCH  21  22
ATOM     22  C   UNL     1     -18.440  94.454   3.428  0.00  0.00    +0.000 C 
ATOM     23  C   UNL     1     -17.795  93.582   4.509  0.00  0.00    +0.000 C 
ENDBRANCH  21  22
BRANCH  21  24
ATOM     24  C   UNL     1     -17.959  95.995   1.755  0.00  0.00    +0.000 C 
ATOM     25  C   UNL     1     -16.799  96.721   1.067  0.00  0.00    +0.000 C 
ENDBRANCH  21  24
ENDBRANCH  20  21
ENDBRANCH  17  19
ENDBRANCH   3  17
TORSDOF 5
ENDMDL
MODEL 5
REMARK VINA RESULT:      -4.8      1.866      2.719
REMARK  Name = LUCANTHONE.pdbqt.pdb
REMARK  5 active torsions:
REMARK  status: ('A' for Active; 'I' for Inactive)
REMARK    1  A    between atoms: C_3  and  N_17
REMARK    2  A    between atoms: N_17  and  C_19
REMARK    3  A    between atoms: C_20  and  N_21
REMARK    4  A    between atoms: N_21  and  C_22
REMARK    5  A    between atoms: N_21  and  C_24
REMARK                            x       y       z     vdW  Elec       q    Type
REMARK                         _______ _______ _______ _____ _____    ______ ____
ROOT
ATOM      1  S   UNL     1     -17.526  96.695   6.284  0.00  0.00    +0.000 S 
ATOM      2  O   UNL     1     -20.723  98.341   3.862  0.00  0.00    +0.000 OA
ATOM      3  C   UNL     1     -20.913  99.047   6.562  0.00  0.00    +0.000 A 
ATOM      4  C   UNL     1     -19.908  98.171   6.064  0.00  0.00    +0.000 A 
ATOM      5  C   UNL     1     -18.840  97.758   6.888  0.00  0.00    +0.000 A 
ATOM      6  C   UNL     1     -18.800  98.231   8.221  0.00  0.00    +0.000 A 
ATOM      7  C   UNL     1     -20.008  97.719   4.646  0.00  0.00    +0.000 A 
ATOM      8  C   UNL     1     -20.840  99.462   7.896  0.00  0.00    +0.000 A 
ATOM      9  C   UNL     1     -19.299  96.530   4.153  0.00  0.00    +0.000 A 
ATOM     10  C   UNL     1     -19.792  99.073   8.714  0.00  0.00    +0.000 A 
ATOM     11  C   UNL     1     -18.213  95.990   4.825  0.00  0.00    +0.000 A 
ATOM     12  C   UNL     1     -17.712  97.866   9.206  0.00  0.00    +0.000 C 
ATOM     13  C   UNL     1     -19.749  95.954   2.960  0.00  0.00    +0.000 A 
ATOM     14  C   UNL     1     -17.584  94.861   4.294  0.00  0.00    +0.000 A 
ATOM     15  C   UNL     1     -19.121  94.825   2.443  0.00  0.00    +0.000 A 
ATOM     16  C   UNL     1     -18.035  94.274   3.114  0.00  0.00    +0.000 A 
ENDROOT
BRANCH   3  17
ATOM     17  N   UNL     1     -22.064  99.377   5.799  0.00  0.00    +0.000 N 
ATOM     18  H   UNL     1     -22.091  98.849   4.914  0.00  0.00    +0.000 HD
BRANCH  17  19
ATOM     19  C   UNL     1     -22.514 100.758   5.742  0.00  0.00    +0.000 C 
ATOM     20  C   UNL     1     -22.990 102.213   5.682  0.00  0.00    +0.000 C 
BRANCH  20  21
ATOM     21  N   UNL     1     -23.450 103.590   5.617  0.00  0.00    +0.000 N 
BRANCH  21  22
ATOM     22  C   UNL     1     -24.163 103.748   4.363  0.00  0.00    +0.000 C 
ATOM     23  C   UNL     1     -24.903 103.916   3.033  0.00  0.00    +0.000 C 
ENDBRANCH  21  22
BRANCH  21  24
ATOM     24  C   UNL     1     -22.271 104.430   5.528  0.00  0.00    +0.000 C 
ATOM     25  C   UNL     1     -21.018 105.308   5.450  0.00  0.00    +0.000 C 
ENDBRANCH  21  24
ENDBRANCH  20  21
ENDBRANCH  17  19
ENDBRANCH   3  17
TORSDOF 5
ENDMDL
MODEL 6
REMARK VINA RESULT:      -4.7     17.958     19.955
REMARK  Name = LUCANTHONE.pdbqt.pdb
REMARK  5 active torsions:
REMARK  status: ('A' for Active; 'I' for Inactive)
REMARK    1  A    between atoms: C_3  and  N_17
REMARK    2  A    between atoms: N_17  and  C_19
REMARK    3  A    between atoms: C_20  and  N_21
REMARK    4  A    between atoms: N_21  and  C_22
REMARK    5  A    between atoms: N_21  and  C_24
REMARK                            x       y       z     vdW  Elec       q    Type
REMARK                         _______ _______ _______ _____ _____    ______ ____
ROOT
ATOM      1  S   UNL     1     -25.179  86.325  -8.303  0.00  0.00    +0.000 S 
ATOM      2  O   UNL     1     -27.960  88.975  -6.292  0.00  0.00    +0.000 OA
ATOM      3  C   UNL     1     -28.912  88.042  -8.751  0.00  0.00    +0.000 A 
ATOM      4  C   UNL     1     -27.612  87.732  -8.261  0.00  0.00    +0.000 A 
ATOM      5  C   UNL     1     -26.803  86.780  -8.916  0.00  0.00    +0.000 A 
ATOM      6  C   UNL     1     -27.314  86.151 -10.076  0.00  0.00    +0.000 A 
ATOM      7  C   UNL     1     -27.140  88.427  -7.028  0.00  0.00    +0.000 A 
ATOM      8  C   UNL     1     -29.357  87.409  -9.918  0.00  0.00    +0.000 A 
ATOM      9  C   UNL     1     -25.717  88.508  -6.672  0.00  0.00    +0.000 A 
ATOM     10  C   UNL     1     -28.577  86.466 -10.566  0.00  0.00    +0.000 A 
ATOM     11  C   UNL     1     -24.775  87.642  -7.207  0.00  0.00    +0.000 A 
ATOM     12  C   UNL     1     -26.551  85.114 -10.871  0.00  0.00    +0.000 C 
ATOM     13  C   UNL     1     -25.332  89.491  -5.754  0.00  0.00    +0.000 A 
ATOM     14  C   UNL     1     -23.440  87.774  -6.819  0.00  0.00    +0.000 A 
ATOM     15  C   UNL     1     -23.998  89.619  -5.378  0.00  0.00    +0.000 A 
ATOM     16  C   UNL     1     -23.047  88.759  -5.915  0.00  0.00    +0.000 A 
ENDROOT
BRANCH   3  17
ATOM     17  N   UNL     1     -29.696  89.083  -8.189  0.00  0.00    +0.000 N 
ATOM     18  H   UNL     1     -29.745  89.002  -7.162  0.00  0.00    +0.000 HD
BRANCH  17  19
ATOM     19  C   UNL     1     -30.910  89.510  -8.864  0.00  0.00    +0.000 C 
ATOM     20  C   UNL     1     -32.191  89.958  -9.574  0.00  0.00    +0.000 C 
BRANCH  20  21
ATOM     21  N   UNL     1     -33.410  90.372 -10.250  0.00  0.00    +0.000 N 
BRANCH  21  22
ATOM     22  C   UNL     1     -34.492  90.272  -9.288  0.00  0.00    +0.000 C 
ATOM     23  C   UNL     1     -35.625  90.159  -8.264  0.00  0.00    +0.000 C 
ENDBRANCH  21  22
BRANCH  21  24
ATOM     24  C   UNL     1     -33.682  89.388 -11.280  0.00  0.00    +0.000 C 
ATOM     25  C   UNL     1     -33.972  88.365 -12.382  0.00  0.00    +0.000 C 
ENDBRANCH  21  24
ENDBRANCH  20  21
ENDBRANCH  17  19
ENDBRANCH   3  17
TORSDOF 5
ENDMDL
MODEL 7
REMARK VINA RESULT:      -4.6     20.164     22.197
REMARK  Name = LUCANTHONE.pdbqt.pdb
REMARK  5 active torsions:
REMARK  status: ('A' for Active; 'I' for Inactive)
REMARK    1  A    between atoms: C_3  and  N_17
REMARK    2  A    between atoms: N_17  and  C_19
REMARK    3  A    between atoms: C_20  and  N_21
REMARK    4  A    between atoms: N_21  and  C_22
REMARK    5  A    between atoms: N_21  and  C_24
REMARK                            x       y       z     vdW  Elec       q    Type
REMARK                         _______ _______ _______ _____ _____    ______ ____
ROOT
ATOM      1  S   UNL     1     -31.470  77.224   5.918  0.00  0.00    +0.000 S 
ATOM      2  O   UNL     1     -28.208  79.961   6.734  0.00  0.00    +0.000 OA
ATOM      3  C   UNL     1     -30.564  80.623   8.087  0.00  0.00    +0.000 A 
ATOM      4  C   UNL     1     -30.483  79.541   7.166  0.00  0.00    +0.000 A 
ATOM      5  C   UNL     1     -31.552  78.630   7.031  0.00  0.00    +0.000 A 
ATOM      6  C   UNL     1     -32.705  78.827   7.826  0.00  0.00    +0.000 A 
ATOM      7  C   UNL     1     -29.233  79.389   6.367  0.00  0.00    +0.000 A 
ATOM      8  C   UNL     1     -31.739  80.787   8.829  0.00  0.00    +0.000 A 
ATOM      9  C   UNL     1     -29.188  78.597   5.130  0.00  0.00    +0.000 A 
ATOM     10  C   UNL     1     -32.792  79.895   8.713  0.00  0.00    +0.000 A 
ATOM     11  C   UNL     1     -30.148  77.641   4.833  0.00  0.00    +0.000 A 
ATOM     12  C   UNL     1     -33.919  77.924   7.778  0.00  0.00    +0.000 C 
ATOM     13  C   UNL     1     -28.126  78.828   4.249  0.00  0.00    +0.000 A 
ATOM     14  C   UNL     1     -30.039  76.922   3.641  0.00  0.00    +0.000 A 
ATOM     15  C   UNL     1     -28.029  78.112   3.060  0.00  0.00    +0.000 A 
ATOM     16  C   UNL     1     -28.991  77.156   2.753  0.00  0.00    +0.000 A 
ENDROOT
BRANCH   3  17
ATOM     17  N   UNL     1     -29.561  81.625   8.155  0.00  0.00    +0.000 N 
ATOM     18  H   UNL     1     -28.719  81.348   7.627  0.00  0.00    +0.000 HD
BRANCH  17  19
ATOM     19  C   UNL     1     -29.338  82.333   9.404  0.00  0.00    +0.000 C 
ATOM     20  C   UNL     1     -29.105  83.079  10.722  0.00  0.00    +0.000 C 
BRANCH  20  21
ATOM     21  N   UNL     1     -28.893  83.795  11.969  0.00  0.00    +0.000 N 
BRANCH  21  22
ATOM     22  C   UNL     1     -29.187  85.194  11.719  0.00  0.00    +0.000 C 
ATOM     23  C   UNL     1     -29.493  86.668  11.441  0.00  0.00    +0.000 C 
ENDBRANCH  21  22
BRANCH  21  24
ATOM     24  C   UNL     1     -27.476  83.719  12.269  0.00  0.00    +0.000 C 
ATOM     25  C   UNL     1     -25.980  83.659  12.593  0.00  0.00    +0.000 C 
ENDBRANCH  21  24
ENDBRANCH  20  21
ENDBRANCH  17  19
ENDBRANCH   3  17
TORSDOF 5
ENDMDL
MODEL 8
REMARK VINA RESULT:      -4.6     15.897     17.461
REMARK  Name = LUCANTHONE.pdbqt.pdb
REMARK  5 active torsions:
REMARK  status: ('A' for Active; 'I' for Inactive)
REMARK    1  A    between atoms: C_3  and  N_17
REMARK    2  A    between atoms: N_17  and  C_19
REMARK    3  A    between atoms: C_20  and  N_21
REMARK    4  A    between atoms: N_21  and  C_22
REMARK    5  A    between atoms: N_21  and  C_24
REMARK                            x       y       z     vdW  Elec       q    Type
REMARK                         _______ _______ _______ _____ _____    ______ ____
ROOT
ATOM      1  S   UNL     1     -18.146  91.156  18.179  0.00  0.00    +0.000 S 
ATOM      2  O   UNL     1     -21.837  89.397  19.620  0.00  0.00    +0.000 OA
ATOM      3  C   UNL     1     -21.005  88.350  17.164  0.00  0.00    +0.000 A 
ATOM      4  C   UNL     1     -20.318  89.408  17.822  0.00  0.00    +0.000 A 
ATOM      5  C   UNL     1     -19.068  89.859  17.350  0.00  0.00    +0.000 A 
ATOM      6  C   UNL     1     -18.522  89.237  16.201  0.00  0.00    +0.000 A 
ATOM      7  C   UNL     1     -20.948  90.011  19.033  0.00  0.00    +0.000 A 
ATOM      8  C   UNL     1     -20.433  87.789  16.017  0.00  0.00    +0.000 A 
ATOM      9  C   UNL     1     -20.562  91.337  19.537  0.00  0.00    +0.000 A 
ATOM     10  C   UNL     1     -19.202  88.215  15.547  0.00  0.00    +0.000 A 
ATOM     11  C   UNL     1     -19.359  91.933  19.190  0.00  0.00    +0.000 A 
ATOM     12  C   UNL     1     -17.192  89.624  15.593  0.00  0.00    +0.000 C 
ATOM     13  C   UNL     1     -21.450  91.987  20.400  0.00  0.00    +0.000 A 
ATOM     14  C   UNL     1     -19.055  93.193  19.711  0.00  0.00    +0.000 A 
ATOM     15  C   UNL     1     -21.142  93.245  20.909  0.00  0.00    +0.000 A 
ATOM     16  C   UNL     1     -19.941  93.852  20.561  0.00  0.00    +0.000 A 
ENDROOT
BRANCH   3  17
ATOM     17  N   UNL     1     -22.318  87.962  17.540  0.00  0.00    +0.000 N 
ATOM     18  H   UNL     1     -22.308  87.384  18.394  0.00  0.00    +0.000 HD
BRANCH  17  19
ATOM     19  C   UNL     1     -23.274  87.583  16.514  0.00  0.00    +0.000 C 
ATOM     20  C   UNL     1     -24.282  87.184  15.430  0.00  0.00    +0.000 C 
BRANCH  20  21
ATOM     21  N   UNL     1     -25.239  86.817  14.400  0.00  0.00    +0.000 N 
BRANCH  21  22
ATOM     22  C   UNL     1     -26.298  87.810  14.422  0.00  0.00    +0.000 C 
ATOM     23  C   UNL     1     -27.421  88.850  14.433  0.00  0.00    +0.000 C 
ENDBRANCH  21  22
BRANCH  21  24
ATOM     24  C   UNL     1     -25.844  85.563  14.806  0.00  0.00    +0.000 C 
ATOM     25  C   UNL     1     -26.469  84.237  15.251  0.00  0.00    +0.000 C 
ENDBRANCH  21  24
ENDBRANCH  20  21
ENDBRANCH  17  19
ENDBRANCH   3  17
TORSDOF 5
ENDMDL
MODEL 9
REMARK VINA RESULT:      -4.5      2.459      4.743
REMARK  Name = LUCANTHONE.pdbqt.pdb
REMARK  5 active torsions:
REMARK  status: ('A' for Active; 'I' for Inactive)
REMARK    1  A    between atoms: C_3  and  N_17
REMARK    2  A    between atoms: N_17  and  C_19
REMARK    3  A    between atoms: C_20  and  N_21
REMARK    4  A    between atoms: N_21  and  C_22
REMARK    5  A    between atoms: N_21  and  C_24
REMARK                            x       y       z     vdW  Elec       q    Type
REMARK                         _______ _______ _______ _____ _____    ______ ____
ROOT
ATOM      1  S   UNL     1     -16.773  94.499   5.768  0.00  0.00    +0.000 S 
ATOM      2  O   UNL     1     -18.832  96.700   2.652  0.00  0.00    +0.000 OA
ATOM      3  C   UNL     1     -19.039  97.903   5.168  0.00  0.00    +0.000 A 
ATOM      4  C   UNL     1     -18.388  96.654   4.963  0.00  0.00    +0.000 A 
ATOM      5  C   UNL     1     -17.649  96.047   6.001  0.00  0.00    +0.000 A 
ATOM      6  C   UNL     1     -17.582  96.708   7.250  0.00  0.00    +0.000 A 
ATOM      7  C   UNL     1     -18.493  96.018   3.618  0.00  0.00    +0.000 A 
ATOM      8  C   UNL     1     -18.962  98.499   6.432  0.00  0.00    +0.000 A 
ATOM      9  C   UNL     1     -18.233  94.587   3.406  0.00  0.00    +0.000 A 
ATOM     10  C   UNL     1     -18.233  97.920   7.457  0.00  0.00    +0.000 A 
ATOM     11  C   UNL     1     -17.509  93.830   4.315  0.00  0.00    +0.000 A 
ATOM     12  C   UNL     1     -16.825  96.167   8.443  0.00  0.00    +0.000 C 
ATOM     13  C   UNL     1     -18.732  94.001   2.238  0.00  0.00    +0.000 A 
ATOM     14  C   UNL     1     -17.295  92.476   4.047  0.00  0.00    +0.000 A 
ATOM     15  C   UNL     1     -18.520  92.650   1.983  0.00  0.00    +0.000 A 
ATOM     16  C   UNL     1     -17.801  91.883   2.892  0.00  0.00    +0.000 A 
ENDROOT
BRANCH   3  17
ATOM     17  N   UNL     1     -19.890  98.474   4.186  0.00  0.00    +0.000 N 
ATOM     18  H   UNL     1     -19.349  98.989   3.475  0.00  0.00    +0.000 HD
BRANCH  17  19
ATOM     19  C   UNL     1     -21.155  99.064   4.591  0.00  0.00    +0.000 C 
ATOM     20  C   UNL     1     -22.487  99.688   5.017  0.00  0.00    +0.000 C 
BRANCH  20  21
ATOM     21  N   UNL     1     -23.746 100.287   5.429  0.00  0.00    +0.000 N 
BRANCH  21  22
ATOM     22  C   UNL     1     -23.958 101.459   4.600  0.00  0.00    +0.000 C 
ATOM     23  C   UNL     1     -24.167 102.698   3.724  0.00  0.00    +0.000 C 
ENDBRANCH  21  22
BRANCH  21  24
ATOM     24  C   UNL     1     -23.565 100.770   6.785  0.00  0.00    +0.000 C 
ATOM     25  C   UNL     1     -23.360 101.266   8.220  0.00  0.00    +0.000 C 
ENDBRANCH  21  24
ENDBRANCH  20  21
ENDBRANCH  17  19
ENDBRANCH   3  17
TORSDOF 5
ENDMDL
