MODEL 1
REMARK VINA RESULT:      -5.7      0.000      0.000
REMARK  Name = MeIQx.pdbqt.pdb
REMARK  0 active torsions:
REMARK  status: ('A' for Active; 'I' for Inactive)
REMARK                            x       y       z     vdW  Elec       q    Type
REMARK                         _______ _______ _______ _____ _____    ______ ____
ROOT
ATOM      1  N   UNL     1     -31.097  98.816  16.654  0.00  0.00    +0.000 N 
ATOM      2  N   UNL     1     -33.188  98.112  16.471  0.00  0.00    +0.000 NA
ATOM      3  N   UNL     1     -35.097  99.281  14.572  0.00  0.00    +0.000 NA
ATOM      4  N   UNL     1     -34.151 101.405  12.930  0.00  0.00    +0.000 NA
ATOM      5  C   UNL     1     -31.644  99.604  15.677  0.00  0.00    +0.000 A 
ATOM      6  C   UNL     1     -32.957  99.147  15.578  0.00  0.00    +0.000 A 
ATOM      7  C   UNL     1     -33.825  99.757  14.638  0.00  0.00    +0.000 A 
ATOM      8  C   UNL     1     -33.341 100.813  13.827  0.00  0.00    +0.000 A 
ATOM      9  C   UNL     1     -32.057  97.929  17.115  0.00  0.00    +0.000 A 
ATOM     10  C   UNL     1     -31.137 100.641  14.890  0.00  0.00    +0.000 A 
ATOM     11  C   UNL     1     -32.022 101.221  13.975  0.00  0.00    +0.000 A 
ATOM     12  C   UNL     1     -29.732  98.878  17.093  0.00  0.00    +0.000 C 
ATOM     13  C   UNL     1     -35.893  99.887  13.667  0.00  0.00    +0.000 A 
ATOM     14  C   UNL     1     -35.427 100.926  12.866  0.00  0.00    +0.000 A 
ATOM     15  C   UNL     1     -37.313  99.417  13.529  0.00  0.00    +0.000 C 
ATOM     16  N   UNL     1     -31.845  97.013  18.086  0.00  0.00    +0.000 N 
ATOM     17  H   UNL     1     -32.537  96.281  18.215  0.00  0.00    +0.000 HD
ATOM     18  H   UNL     1     -30.901  96.778  18.384  0.00  0.00    +0.000 HD
ENDROOT
TORSDOF 0
ENDMDL
MODEL 2
REMARK VINA RESULT:      -5.2      1.798      3.149
REMARK  Name = MeIQx.pdbqt.pdb
REMARK  0 active torsions:
REMARK  status: ('A' for Active; 'I' for Inactive)
REMARK                            x       y       z     vdW  Elec       q    Type
REMARK                         _______ _______ _______ _____ _____    ______ ____
ROOT
ATOM      1  N   UNL     1     -30.711 100.585  15.601  0.00  0.00    +0.000 N 
ATOM      2  N   UNL     1     -32.036 101.117  13.909  0.00  0.00    +0.000 NA
ATOM      3  N   UNL     1     -34.840 100.256  13.757  0.00  0.00    +0.000 NA
ATOM      4  N   UNL     1     -35.826  98.675  15.908  0.00  0.00    +0.000 NA
ATOM      5  C   UNL     1     -31.911 100.001  15.905  0.00  0.00    +0.000 A 
ATOM      6  C   UNL     1     -32.730 100.346  14.830  0.00  0.00    +0.000 A 
ATOM      7  C   UNL     1     -34.074  99.897  14.822  0.00  0.00    +0.000 A 
ATOM      8  C   UNL     1     -34.551  99.111  15.899  0.00  0.00    +0.000 A 
ATOM      9  C   UNL     1     -30.819 101.246  14.388  0.00  0.00    +0.000 A 
ATOM     10  C   UNL     1     -32.355  99.230  16.982  0.00  0.00    +0.000 A 
ATOM     11  C   UNL     1     -33.685  98.802  16.939  0.00  0.00    +0.000 A 
ATOM     12  C   UNL     1     -29.543 100.546  16.434  0.00  0.00    +0.000 C 
ATOM     13  C   UNL     1     -36.112  99.810  13.785  0.00  0.00    +0.000 A 
ATOM     14  C   UNL     1     -36.591  99.036  14.838  0.00  0.00    +0.000 A 
ATOM     15  C   UNL     1     -37.024 100.167  12.645  0.00  0.00    +0.000 C 
ATOM     16  N   UNL     1     -29.811 101.923  13.796  0.00  0.00    +0.000 N 
ATOM     17  H   UNL     1     -30.035 102.538  13.019  0.00  0.00    +0.000 HD
ATOM     18  H   UNL     1     -28.970 102.167  14.315  0.00  0.00    +0.000 HD
ENDROOT
TORSDOF 0
ENDMDL
MODEL 3
REMARK VINA RESULT:      -5.2     12.641     15.057
REMARK  Name = MeIQx.pdbqt.pdb
REMARK  0 active torsions:
REMARK  status: ('A' for Active; 'I' for Inactive)
REMARK                            x       y       z     vdW  Elec       q    Type
REMARK                         _______ _______ _______ _____ _____    ______ ____
ROOT
ATOM      1  N   UNL     1     -39.221 102.508   3.413  0.00  0.00    +0.000 N 
ATOM      2  N   UNL     1     -40.912 102.434   4.840  0.00  0.00    +0.000 NA
ATOM      3  N   UNL     1     -43.581 101.465   4.091  0.00  0.00    +0.000 NA
ATOM      4  N   UNL     1     -43.936 100.603   1.402  0.00  0.00    +0.000 NA
ATOM      5  C   UNL     1     -40.267 102.006   2.685  0.00  0.00    +0.000 A 
ATOM      6  C   UNL     1     -41.319 101.968   3.599  0.00  0.00    +0.000 A 
ATOM      7  C   UNL     1     -42.582 101.488   3.169  0.00  0.00    +0.000 A 
ATOM      8  C   UNL     1     -42.744 101.062   1.828  0.00  0.00    +0.000 A 
ATOM      9  C   UNL     1     -39.646 102.759   4.707  0.00  0.00    +0.000 A 
ATOM     10  C   UNL     1     -40.396 101.591   1.358  0.00  0.00    +0.000 A 
ATOM     11  C   UNL     1     -41.656 101.125   0.968  0.00  0.00    +0.000 A 
ATOM     12  C   UNL     1     -37.889 102.700   2.914  0.00  0.00    +0.000 C 
ATOM     13  C   UNL     1     -44.767 101.003   3.644  0.00  0.00    +0.000 A 
ATOM     14  C   UNL     1     -44.937 100.582   2.328  0.00  0.00    +0.000 A 
ATOM     15  C   UNL     1     -45.922 100.943   4.603  0.00  0.00    +0.000 C 
ATOM     16  N   UNL     1     -38.859 103.265   5.683  0.00  0.00    +0.000 N 
ATOM     17  H   UNL     1     -39.196 103.227   6.640  0.00  0.00    +0.000 HD
ATOM     18  H   UNL     1     -37.847 103.289   5.578  0.00  0.00    +0.000 HD
ENDROOT
TORSDOF 0
ENDMDL
MODEL 4
REMARK VINA RESULT:      -5.1      1.695      5.145
REMARK  Name = MeIQx.pdbqt.pdb
REMARK  0 active torsions:
REMARK  status: ('A' for Active; 'I' for Inactive)
REMARK                            x       y       z     vdW  Elec       q    Type
REMARK                         _______ _______ _______ _____ _____    ______ ____
ROOT
ATOM      1  N   UNL     1     -37.259 100.576  13.609  0.00  0.00    +0.000 N 
ATOM      2  N   UNL     1     -36.633  99.199  15.226  0.00  0.00    +0.000 NA
ATOM      3  N   UNL     1     -33.821  98.795  15.967  0.00  0.00    +0.000 NA
ATOM      4  N   UNL     1     -31.873 100.266  14.503  0.00  0.00    +0.000 NA
ATOM      5  C   UNL     1     -35.894 100.672  13.637  0.00  0.00    +0.000 A 
ATOM      6  C   UNL     1     -35.520  99.800  14.659  0.00  0.00    +0.000 A 
ATOM      7  C   UNL     1     -34.143  99.654  14.964  0.00  0.00    +0.000 A 
ATOM      8  C   UNL     1     -33.185 100.393  14.227  0.00  0.00    +0.000 A 
ATOM      9  C   UNL     1     -37.672  99.675  14.578  0.00  0.00    +0.000 A 
ATOM     10  C   UNL     1     -34.972 101.415  12.896  0.00  0.00    +0.000 A 
ATOM     11  C   UNL     1     -33.623 101.245  13.223  0.00  0.00    +0.000 A 
ATOM     12  C   UNL     1     -38.119 101.324  12.739  0.00  0.00    +0.000 C 
ATOM     13  C   UNL     1     -32.502  98.682  16.228  0.00  0.00    +0.000 A 
ATOM     14  C   UNL     1     -31.553  99.403  15.510  0.00  0.00    +0.000 A 
ATOM     15  C   UNL     1     -32.063  97.755  17.325  0.00  0.00    +0.000 C 
ATOM     16  N   UNL     1     -38.962  99.344  14.811  0.00  0.00    +0.000 N 
ATOM     17  H   UNL     1     -39.181  98.836  15.663  0.00  0.00    +0.000 HD
ATOM     18  H   UNL     1     -39.721  99.904  14.430  0.00  0.00    +0.000 HD
ENDROOT
TORSDOF 0
ENDMDL
MODEL 5
REMARK VINA RESULT:      -5.0      1.516      2.491
REMARK  Name = MeIQx.pdbqt.pdb
REMARK  0 active torsions:
REMARK  status: ('A' for Active; 'I' for Inactive)
REMARK                            x       y       z     vdW  Elec       q    Type
REMARK                         _______ _______ _______ _____ _____    ______ ____
ROOT
ATOM      1  N   UNL     1     -31.893  97.083  18.339  0.00  0.00    +0.000 N 
ATOM      2  N   UNL     1     -33.796  97.756  17.428  0.00  0.00    +0.000 NA
ATOM      3  N   UNL     1     -33.898  99.583  15.131  0.00  0.00    +0.000 NA
ATOM      4  N   UNL     1     -31.410 100.486  14.086  0.00  0.00    +0.000 NA
ATOM      5  C   UNL     1     -31.514  97.910  17.316  0.00  0.00    +0.000 A 
ATOM      6  C   UNL     1     -32.723  98.322  16.757  0.00  0.00    +0.000 A 
ATOM      7  C   UNL     1     -32.698  99.205  15.648  0.00  0.00    +0.000 A 
ATOM      8  C   UNL     1     -31.452  99.647  15.139  0.00  0.00    +0.000 A 
ATOM      9  C   UNL     1     -33.277  97.016  18.382  0.00  0.00    +0.000 A 
ATOM     10  C   UNL     1     -30.271  98.326  16.834  0.00  0.00    +0.000 A 
ATOM     11  C   UNL     1     -30.285  99.199  15.741  0.00  0.00    +0.000 A 
ATOM     12  C   UNL     1     -30.992  96.371  19.199  0.00  0.00    +0.000 C 
ATOM     13  C   UNL     1     -33.833 100.423  14.079  0.00  0.00    +0.000 A 
ATOM     14  C   UNL     1     -32.615 100.863  13.570  0.00  0.00    +0.000 A 
ATOM     15  C   UNL     1     -35.116 100.884  13.448  0.00  0.00    +0.000 C 
ATOM     16  N   UNL     1     -33.977  96.288  19.280  0.00  0.00    +0.000 N 
ATOM     17  H   UNL     1     -34.968  96.140  19.111  0.00  0.00    +0.000 HD
ATOM     18  H   UNL     1     -33.521  95.574  19.844  0.00  0.00    +0.000 HD
ENDROOT
TORSDOF 0
ENDMDL
MODEL 6
REMARK VINA RESULT:      -4.8     12.881     14.129
REMARK  Name = MeIQx.pdbqt.pdb
REMARK  0 active torsions:
REMARK  status: ('A' for Active; 'I' for Inactive)
REMARK                            x       y       z     vdW  Elec       q    Type
REMARK                         _______ _______ _______ _____ _____    ______ ____
ROOT
ATOM      1  N   UNL     1     -24.246 102.400   4.398  0.00  0.00    +0.000 N 
ATOM      2  N   UNL     1     -23.890 100.545   5.554  0.00  0.00    +0.000 NA
ATOM      3  N   UNL     1     -22.559 100.535   8.171  0.00  0.00    +0.000 NA
ATOM      4  N   UNL     1     -21.717 103.051   9.203  0.00  0.00    +0.000 NA
ATOM      5  C   UNL     1     -23.612 102.818   5.538  0.00  0.00    +0.000 A 
ATOM      6  C   UNL     1     -23.397 101.638   6.250  0.00  0.00    +0.000 A 
ATOM      7  C   UNL     1     -22.748 101.708   7.508  0.00  0.00    +0.000 A 
ATOM      8  C   UNL     1     -22.335 102.966   8.009  0.00  0.00    +0.000 A 
ATOM      9  C   UNL     1     -24.394 101.023   4.438  0.00  0.00    +0.000 A 
ATOM     10  C   UNL     1     -23.218 104.073   6.007  0.00  0.00    +0.000 A 
ATOM     11  C   UNL     1     -22.579 104.103   7.251  0.00  0.00    +0.000 A 
ATOM     12  C   UNL     1     -24.715 103.264   3.354  0.00  0.00    +0.000 C 
ATOM     13  C   UNL     1     -21.938 100.642   9.364  0.00  0.00    +0.000 A 
ATOM     14  C   UNL     1     -21.527 101.873   9.865  0.00  0.00    +0.000 A 
ATOM     15  C   UNL     1     -21.694  99.392  10.161  0.00  0.00    +0.000 C 
ATOM     16  N   UNL     1     -24.976 100.290   3.463  0.00  0.00    +0.000 N 
ATOM     17  H   UNL     1     -25.218  99.325   3.666  0.00  0.00    +0.000 HD
ATOM     18  H   UNL     1     -25.534 100.735   2.738  0.00  0.00    +0.000 HD
ENDROOT
TORSDOF 0
ENDMDL
MODEL 7
REMARK VINA RESULT:      -4.8      6.338      9.108
REMARK  Name = MeIQx.pdbqt.pdb
REMARK  0 active torsions:
REMARK  status: ('A' for Active; 'I' for Inactive)
REMARK                            x       y       z     vdW  Elec       q    Type
REMARK                         _______ _______ _______ _____ _____    ______ ____
ROOT
ATOM      1  N   UNL     1     -26.725  98.827  24.406  0.00  0.00    +0.000 N 
ATOM      2  N   UNL     1     -27.435  97.966  22.494  0.00  0.00    +0.000 NA
ATOM      3  N   UNL     1     -28.368  99.622  20.256  0.00  0.00    +0.000 NA
ATOM      4  N   UNL     1     -28.330 102.443  20.631  0.00  0.00    +0.000 NA
ATOM      5  C   UNL     1     -27.064  99.912  23.642  0.00  0.00    +0.000 A 
ATOM      6  C   UNL     1     -27.508  99.350  22.446  0.00  0.00    +0.000 A 
ATOM      7  C   UNL     1     -27.944 100.209  21.407  0.00  0.00    +0.000 A 
ATOM      8  C   UNL     1     -27.919 101.611  21.607  0.00  0.00    +0.000 A 
ATOM      9  C   UNL     1     -26.966  97.669  23.685  0.00  0.00    +0.000 A 
ATOM     10  C   UNL     1     -27.026 101.289  23.868  0.00  0.00    +0.000 A 
ATOM     11  C   UNL     1     -27.465 102.107  22.822  0.00  0.00    +0.000 A 
ATOM     12  C   UNL     1     -26.170  98.893  25.728  0.00  0.00    +0.000 C 
ATOM     13  C   UNL     1     -28.775 100.472  19.291  0.00  0.00    +0.000 A 
ATOM     14  C   UNL     1     -28.756 101.851  19.478  0.00  0.00    +0.000 A 
ATOM     15  C   UNL     1     -29.256  99.902  17.987  0.00  0.00    +0.000 C 
ATOM     16  N   UNL     1     -26.744  96.420  24.152  0.00  0.00    +0.000 N 
ATOM     17  H   UNL     1     -26.758  95.650  23.490  0.00  0.00    +0.000 HD
ATOM     18  H   UNL     1     -26.181  96.267  24.986  0.00  0.00    +0.000 HD
ENDROOT
TORSDOF 0
ENDMDL
MODEL 8
REMARK VINA RESULT:      -4.8      2.255      3.853
REMARK  Name = MeIQx.pdbqt.pdb
REMARK  0 active torsions:
REMARK  status: ('A' for Active; 'I' for Inactive)
REMARK                            x       y       z     vdW  Elec       q    Type
REMARK                         _______ _______ _______ _____ _____    ______ ____
ROOT
ATOM      1  N   UNL     1     -33.514  96.281  18.889  0.00  0.00    +0.000 N 
ATOM      2  N   UNL     1     -32.171  97.453  17.576  0.00  0.00    +0.000 NA
ATOM      3  N   UNL     1     -33.171  99.304  15.528  0.00  0.00    +0.000 NA
ATOM      4  N   UNL     1     -35.995  99.551  15.276  0.00  0.00    +0.000 NA
ATOM      5  C   UNL     1     -34.357  97.006  18.090  0.00  0.00    +0.000 A 
ATOM      6  C   UNL     1     -33.494  97.735  17.272  0.00  0.00    +0.000 A 
ATOM      7  C   UNL     1     -34.046  98.611  16.304  0.00  0.00    +0.000 A 
ATOM      8  C   UNL     1     -35.453  98.723  16.190  0.00  0.00    +0.000 A 
ATOM      9  C   UNL     1     -32.202  96.571  18.550  0.00  0.00    +0.000 A 
ATOM     10  C   UNL     1     -35.748  97.098  18.002  0.00  0.00    +0.000 A 
ATOM     11  C   UNL     1     -36.257  97.970  17.035  0.00  0.00    +0.000 A 
ATOM     12  C   UNL     1     -33.933  95.396  19.937  0.00  0.00    +0.000 C 
ATOM     13  C   UNL     1     -33.733 100.126  14.619  0.00  0.00    +0.000 A 
ATOM     14  C   UNL     1     -35.115 100.244  14.498  0.00  0.00    +0.000 A 
ATOM     15  C   UNL     1     -32.834 100.931  13.724  0.00  0.00    +0.000 C 
ATOM     16  N   UNL     1     -31.121  96.019  19.144  0.00  0.00    +0.000 N 
ATOM     17  H   UNL     1     -30.212  96.437  18.971  0.00  0.00    +0.000 HD
ATOM     18  H   UNL     1     -31.209  95.519  20.026  0.00  0.00    +0.000 HD
ENDROOT
TORSDOF 0
ENDMDL
MODEL 9
REMARK VINA RESULT:      -4.8     14.352     16.636
REMARK  Name = MeIQx.pdbqt.pdb
REMARK  0 active torsions:
REMARK  status: ('A' for Active; 'I' for Inactive)
REMARK                            x       y       z     vdW  Elec       q    Type
REMARK                         _______ _______ _______ _____ _____    ______ ____
ROOT
ATOM      1  N   UNL     1     -26.110 105.999   1.032  0.00  0.00    +0.000 N 
ATOM      2  N   UNL     1     -26.028 105.327   3.140  0.00  0.00    +0.000 NA
ATOM      3  N   UNL     1     -24.493 102.975   3.998  0.00  0.00    +0.000 NA
ATOM      4  N   UNL     1     -23.077 101.549   1.983  0.00  0.00    +0.000 NA
ATOM      5  C   UNL     1     -25.306 104.891   1.011  0.00  0.00    +0.000 A 
ATOM      6  C   UNL     1     -25.268 104.483   2.344  0.00  0.00    +0.000 A 
ATOM      7  C   UNL     1     -24.505 103.339   2.688  0.00  0.00    +0.000 A 
ATOM      8  C   UNL     1     -23.806 102.639   1.674  0.00  0.00    +0.000 A 
ATOM      9  C   UNL     1     -26.532 106.232   2.331  0.00  0.00    +0.000 A 
ATOM     10  C   UNL     1     -24.625 104.223  -0.009  0.00  0.00    +0.000 A 
ATOM     11  C   UNL     1     -23.885 103.097   0.366  0.00  0.00    +0.000 A 
ATOM     12  C   UNL     1     -26.425 106.808  -0.110  0.00  0.00    +0.000 C 
ATOM     13  C   UNL     1     -23.758 101.882   4.286  0.00  0.00    +0.000 A 
ATOM     14  C   UNL     1     -23.067 101.187   3.298  0.00  0.00    +0.000 A 
ATOM     15  C   UNL     1     -23.690 101.416   5.713  0.00  0.00    +0.000 C 
ATOM     16  N   UNL     1     -27.344 107.248   2.699  0.00  0.00    +0.000 N 
ATOM     17  H   UNL     1     -27.435 107.456   3.689  0.00  0.00    +0.000 HD
ATOM     18  H   UNL     1     -27.519 108.030   2.072  0.00  0.00    +0.000 HD
ENDROOT
TORSDOF 0
ENDMDL
