MODEL 1
REMARK VINA RESULT:      -1.2      0.000      0.000
REMARK  Name = MERCURY.pdbqt.pdb
REMARK  0 active torsions:
REMARK  status: ('A' for Active; 'I' for Inactive)
REMARK                            x       y       z     vdW  Elec       q    Type
REMARK                         _______ _______ _______ _____ _____    ______ ____
ROOT
ATOM      1 HG   UNL     1     -28.087  88.166   2.560  0.00  0.00    +0.000 Hg
ENDROOT
TORSDOF 0
ENDMDL
MODEL 2
REMARK VINA RESULT:      -1.0     11.074     11.074
REMARK  Name = MERCURY.pdbqt.pdb
REMARK  0 active torsions:
REMARK  status: ('A' for Active; 'I' for Inactive)
REMARK                            x       y       z     vdW  Elec       q    Type
REMARK                         _______ _______ _______ _____ _____    ______ ____
ROOT
ATOM      1 HG   UNL     1     -30.605  97.785  -2.315  0.00  0.00    +0.000 Hg
ENDROOT
TORSDOF 0
ENDMDL
MODEL 3
REMARK VINA RESULT:      -1.0     16.637     16.637
REMARK  Name = MERCURY.pdbqt.pdb
REMARK  0 active torsions:
REMARK  status: ('A' for Active; 'I' for Inactive)
REMARK                            x       y       z     vdW  Elec       q    Type
REMARK                         _______ _______ _______ _____ _____    ______ ____
ROOT
ATOM      1 HG   UNL     1     -44.463  90.698   1.068  0.00  0.00    +0.000 Hg
ENDROOT
TORSDOF 0
ENDMDL
MODEL 4
REMARK VINA RESULT:      -1.0     16.391     16.391
REMARK  Name = MERCURY.pdbqt.pdb
REMARK  0 active torsions:
REMARK  status: ('A' for Active; 'I' for Inactive)
REMARK                            x       y       z     vdW  Elec       q    Type
REMARK                         _______ _______ _______ _____ _____    ______ ____
ROOT
ATOM      1 HG   UNL     1     -34.410  97.953  -8.969  0.00  0.00    +0.000 Hg
ENDROOT
TORSDOF 0
ENDMDL
MODEL 5
REMARK VINA RESULT:      -0.9     17.698     17.698
REMARK  Name = MERCURY.pdbqt.pdb
REMARK  0 active torsions:
REMARK  status: ('A' for Active; 'I' for Inactive)
REMARK                            x       y       z     vdW  Elec       q    Type
REMARK                         _______ _______ _______ _____ _____    ______ ____
ROOT
ATOM      1 HG   UNL     1     -36.682  99.472  -8.002  0.00  0.00    +0.000 Hg
ENDROOT
TORSDOF 0
ENDMDL
MODEL 6
REMARK VINA RESULT:      -0.9     18.490     18.490
REMARK  Name = MERCURY.pdbqt.pdb
REMARK  0 active torsions:
REMARK  status: ('A' for Active; 'I' for Inactive)
REMARK                            x       y       z     vdW  Elec       q    Type
REMARK                         _______ _______ _______ _____ _____    ______ ____
ROOT
ATOM      1 HG   UNL     1     -38.859  99.218  -7.624  0.00  0.00    +0.000 Hg
ENDROOT
TORSDOF 0
ENDMDL
MODEL 7
REMARK VINA RESULT:      -0.9      6.335      6.335
REMARK  Name = MERCURY.pdbqt.pdb
REMARK  0 active torsions:
REMARK  status: ('A' for Active; 'I' for Inactive)
REMARK                            x       y       z     vdW  Elec       q    Type
REMARK                         _______ _______ _______ _____ _____    ______ ____
ROOT
ATOM      1 HG   UNL     1     -28.698  85.359   8.206  0.00  0.00    +0.000 Hg
ENDROOT
TORSDOF 0
ENDMDL
MODEL 8
REMARK VINA RESULT:      -0.8     14.218     14.218
REMARK  Name = MERCURY.pdbqt.pdb
REMARK  0 active torsions:
REMARK  status: ('A' for Active; 'I' for Inactive)
REMARK                            x       y       z     vdW  Elec       q    Type
REMARK                         _______ _______ _______ _____ _____    ______ ____
ROOT
ATOM      1 HG   UNL     1     -25.470  99.927  -4.990  0.00  0.00    +0.000 Hg
ENDROOT
TORSDOF 0
ENDMDL
MODEL 9
REMARK VINA RESULT:      -0.8     15.583     15.583
REMARK  Name = MERCURY.pdbqt.pdb
REMARK  0 active torsions:
REMARK  status: ('A' for Active; 'I' for Inactive)
REMARK                            x       y       z     vdW  Elec       q    Type
REMARK                         _______ _______ _______ _____ _____    ______ ____
ROOT
ATOM      1 HG   UNL     1     -35.509  99.754   9.872  0.00  0.00    +0.000 Hg
ENDROOT
TORSDOF 0
ENDMDL
