MODEL 1
REMARK VINA RESULT:      -7.3      0.000      0.000
REMARK  Name = Methotrexate.pdbqt.pdb
REMARK  9 active torsions:
REMARK  status: ('A' for Active; 'I' for Inactive)
REMARK    1  A    between atoms: C_1  and  N_22
REMARK    2  A    between atoms: C_2  and  C_9
REMARK    3  A    between atoms: CA_11  and  C_13
REMARK    4  A    between atoms: CA_11  and  CB_16
REMARK    5  A    between atoms: C_13  and  O_14
REMARK    6  A    between atoms: CG_17  and  CD_19
REMARK    7  A    between atoms: CD_19  and  OE1_20
REMARK    8  A    between atoms: N_22  and  C_24
REMARK    9  A    between atoms: C_24  and  C_31
REMARK                            x       y       z     vdW  Elec       q    Type
REMARK                         _______ _______ _______ _____ _____    ______ ____
ROOT
ATOM      1  C   UNL     1     -24.736 104.149   1.040  0.00  0.00    +0.000 A 
ATOM      2  C   UNL     1     -24.043 103.660  -1.658  0.00  0.00    +0.000 A 
ATOM      3  C   UNL     1     -23.926 103.064   0.680  0.00  0.00    +0.000 A 
ATOM      4  C   UNL     1     -25.195 104.979   0.007  0.00  0.00    +0.000 A 
ATOM      5  C   UNL     1     -23.579 102.820  -0.650  0.00  0.00    +0.000 A 
ATOM      6  C   UNL     1     -24.854 104.743  -1.325  0.00  0.00    +0.000 A 
ENDROOT
BRANCH   2   9
ATOM      7  O   UNL     1     -22.658 103.913  -3.518  0.00  0.00    +0.000 OA
ATOM      8  N   UNL     1     -24.614 102.710  -3.825  0.00  0.00    +0.000 N 
ATOM      9  C   ACE A   0     -23.703 103.442  -3.086  0.00  0.00    +0.000 C 
ATOM     10  H   UNL     1     -25.457 102.360  -3.377  0.00  0.00    +0.000 HD
ATOM     11  CA  UNL     1     -24.525 102.378  -5.165  0.00  0.00    +0.000 C 
BRANCH  11  13
ATOM     12  OXT UNL     1     -26.354 101.941  -6.639  0.00  0.00    +0.000 OA
ATOM     13  C   UNL     1     -25.653 101.579  -5.706  0.00  0.00    +0.000 C 
BRANCH  13  14
ATOM     14  O   UNL     1     -25.848 100.408  -5.080  0.00  0.00    +0.000 OA
ATOM     15  H   UNL     1     -25.733  99.727  -5.774  0.00  0.00    +0.000 HD
ENDBRANCH  13  14
ENDBRANCH  11  13
BRANCH  11  16
ATOM     16  CB  UNL     1     -23.430 102.777  -5.975  0.00  0.00    +0.000 C 
ATOM     17  CG  UNL     1     -22.251 103.200  -6.860  0.00  0.00    +0.000 C 
BRANCH  17  19
ATOM     18  OE2 UNL     1     -21.044 103.231  -8.861  0.00  0.00    +0.000 OA
ATOM     19  CD  UNL     1     -21.156 103.582  -7.699  0.00  0.00    +0.000 C 
BRANCH  19  20
ATOM     20  OE1 UNL     1     -20.240 104.354  -7.087  0.00  0.00    +0.000 OA
ATOM     21  HE1 UNL     1     -20.451 105.254  -7.408  0.00  0.00    +0.000 HD
ENDBRANCH  19  20
ENDBRANCH  17  19
ENDBRANCH  11  16
ENDBRANCH   2   9
BRANCH   1  22
ATOM     22  N   UNL     1     -25.095 104.372   2.391  0.00  0.00    +0.000 N 
ATOM     23  C   UNL     1     -25.793 105.578   2.798  0.00  0.00    +0.000 C 
BRANCH  22  24
ATOM     24  C   UNL     1     -24.428 103.651   3.454  0.00  0.00    +0.000 C 
BRANCH  24  31
ATOM     25  N   UNL     1     -23.280 101.776   4.183  0.00  0.00    +0.000 NA
ATOM     26  N   UNL     1     -23.067 102.767   6.990  0.00  0.00    +0.000 NA
ATOM     27  N   UNL     1     -21.970 100.815   7.574  0.00  0.00    +0.000 NA
ATOM     28  N   UNL     1     -21.439  99.139   5.986  0.00  0.00    +0.000 NA
ATOM     29  N   UNL     1     -21.935  99.232   3.750  0.00  0.00    +0.000 N 
ATOM     30  N   UNL     1     -20.892  98.920   8.211  0.00  0.00    +0.000 N 
ATOM     31  C   UNL     1     -23.773 102.942   4.496  0.00  0.00    +0.000 C 
ATOM     32  C   UNL     1     -23.592 103.285   5.871  0.00  0.00    +0.000 C 
ATOM     33  C   UNL     1     -22.638 101.089   5.234  0.00  0.00    +0.000 C 
ATOM     34  C   UNL     1     -22.568 101.608   6.650  0.00  0.00    +0.000 C 
ATOM     35  C   UNL     1     -21.981  99.788   5.002  0.00  0.00    +0.000 C 
ATOM     36  C   UNL     1     -21.470  99.669   7.242  0.00  0.00    +0.000 C 
ATOM     37  H   UNL     1     -21.768  98.232   3.744  0.00  0.00    +0.000 HD
ATOM     38  H   UNL     1     -22.636  99.558   3.093  0.00  0.00    +0.000 HD
ATOM     39  H   UNL     1     -20.177  98.298   7.858  0.00  0.00    +0.000 HD
ATOM     40  H   UNL     1     -20.616  99.468   9.015  0.00  0.00    +0.000 HD
ENDBRANCH  24  31
ENDBRANCH  22  24
ENDBRANCH   1  22
TORSDOF 9
ENDMDL
MODEL 2
REMARK VINA RESULT:      -7.0      1.590      2.210
REMARK  Name = Methotrexate.pdbqt.pdb
REMARK  9 active torsions:
REMARK  status: ('A' for Active; 'I' for Inactive)
REMARK    1  A    between atoms: C_1  and  N_22
REMARK    2  A    between atoms: C_2  and  C_9
REMARK    3  A    between atoms: CA_11  and  C_13
REMARK    4  A    between atoms: CA_11  and  CB_16
REMARK    5  A    between atoms: C_13  and  O_14
REMARK    6  A    between atoms: CG_17  and  CD_19
REMARK    7  A    between atoms: CD_19  and  OE1_20
REMARK    8  A    between atoms: N_22  and  C_24
REMARK    9  A    between atoms: C_24  and  C_31
REMARK                            x       y       z     vdW  Elec       q    Type
REMARK                         _______ _______ _______ _____ _____    ______ ____
ROOT
ATOM      1  C   UNL     1     -24.632 104.145   0.738  0.00  0.00    +0.000 A 
ATOM      2  C   UNL     1     -24.571 104.073  -2.088  0.00  0.00    +0.000 A 
ATOM      3  C   UNL     1     -23.948 103.135   0.048  0.00  0.00    +0.000 A 
ATOM      4  C   UNL     1     -25.292 105.114  -0.031  0.00  0.00    +0.000 A 
ATOM      5  C   UNL     1     -23.912 103.097  -1.346  0.00  0.00    +0.000 A 
ATOM      6  C   UNL     1     -25.263 105.085  -1.425  0.00  0.00    +0.000 A 
ENDROOT
BRANCH   2   9
ATOM      7  O   UNL     1     -24.291 105.117  -4.155  0.00  0.00    +0.000 OA
ATOM      8  N   UNL     1     -24.873 102.875  -4.185  0.00  0.00    +0.000 N 
ATOM      9  C   ACE A   0     -24.565 104.075  -3.573  0.00  0.00    +0.000 C 
ATOM     10  H   UNL     1     -25.088 102.061  -3.615  0.00  0.00    +0.000 HD
ATOM     11  CA  UNL     1     -24.936 102.626  -5.545  0.00  0.00    +0.000 C 
BRANCH  11  13
ATOM     12  OXT UNL     1     -25.113 100.775  -7.044  0.00  0.00    +0.000 OA
ATOM     13  C   UNL     1     -25.294 101.238  -5.929  0.00  0.00    +0.000 C 
BRANCH  13  14
ATOM     14  O   UNL     1     -25.844 100.518  -4.939  0.00  0.00    +0.000 OA
ATOM     15  H   UNL     1     -26.775 100.380  -5.211  0.00  0.00    +0.000 HD
ENDBRANCH  13  14
ENDBRANCH  11  13
BRANCH  11  16
ATOM     16  CB  UNL     1     -24.679 103.631  -6.514  0.00  0.00    +0.000 C 
ATOM     17  CG  UNL     1     -24.414 104.723  -7.557  0.00  0.00    +0.000 C 
BRANCH  17  19
ATOM     18  OE2 UNL     1     -24.640 105.721  -9.659  0.00  0.00    +0.000 OA
ATOM     19  CD  UNL     1     -24.183 105.749  -8.528  0.00  0.00    +0.000 C 
BRANCH  19  20
ATOM     20  OE1 UNL     1     -23.396 106.749  -8.094  0.00  0.00    +0.000 OA
ATOM     21  HE1 UNL     1     -22.642 106.731  -8.717  0.00  0.00    +0.000 HD
ENDBRANCH  19  20
ENDBRANCH  17  19
ENDBRANCH  11  16
ENDBRANCH   2   9
BRANCH   1  22
ATOM     22  N   UNL     1     -24.675 104.158   2.153  0.00  0.00    +0.000 N 
ATOM     23  C   UNL     1     -25.025 105.361   2.887  0.00  0.00    +0.000 C 
BRANCH  22  24
ATOM     24  C   UNL     1     -23.977 103.146   2.917  0.00  0.00    +0.000 C 
BRANCH  24  31
ATOM     25  N   UNL     1     -23.401 102.226   4.962  0.00  0.00    +0.000 NA
ATOM     26  N   UNL     1     -21.709 100.093   3.740  0.00  0.00    +0.000 NA
ATOM     27  N   UNL     1     -21.191  99.319   5.858  0.00  0.00    +0.000 NA
ATOM     28  N   UNL     1     -22.120 100.275   7.816  0.00  0.00    +0.000 NA
ATOM     29  N   UNL     1     -23.592 102.031   7.860  0.00  0.00    +0.000 N 
ATOM     30  N   UNL     1     -20.640  98.514   7.909  0.00  0.00    +0.000 N 
ATOM     31  C   UNL     1     -23.294 102.152   3.665  0.00  0.00    +0.000 C 
ATOM     32  C   UNL     1     -22.458 101.080   3.226  0.00  0.00    +0.000 C 
ATOM     33  C   UNL     1     -22.712 101.231   5.686  0.00  0.00    +0.000 C 
ATOM     34  C   UNL     1     -21.844 100.179   5.036  0.00  0.00    +0.000 C 
ATOM     35  C   UNL     1     -22.800 101.161   7.157  0.00  0.00    +0.000 C 
ATOM     36  C   UNL     1     -21.324  99.397   7.142  0.00  0.00    +0.000 C 
ATOM     37  H   UNL     1     -23.345 102.122   8.838  0.00  0.00    +0.000 HD
ATOM     38  H   UNL     1     -23.825 102.899   7.389  0.00  0.00    +0.000 HD
ATOM     39  H   UNL     1     -21.086  98.333   8.798  0.00  0.00    +0.000 HD
ATOM     40  H   UNL     1     -20.363  97.686   7.398  0.00  0.00    +0.000 HD
ENDBRANCH  24  31
ENDBRANCH  22  24
ENDBRANCH   1  22
TORSDOF 9
ENDMDL
MODEL 3
REMARK VINA RESULT:      -6.8      4.804     11.106
REMARK  Name = Methotrexate.pdbqt.pdb
REMARK  9 active torsions:
REMARK  status: ('A' for Active; 'I' for Inactive)
REMARK    1  A    between atoms: C_1  and  N_22
REMARK    2  A    between atoms: C_2  and  C_9
REMARK    3  A    between atoms: CA_11  and  C_13
REMARK    4  A    between atoms: CA_11  and  CB_16
REMARK    5  A    between atoms: C_13  and  O_14
REMARK    6  A    between atoms: CG_17  and  CD_19
REMARK    7  A    between atoms: CD_19  and  OE1_20
REMARK    8  A    between atoms: N_22  and  C_24
REMARK    9  A    between atoms: C_24  and  C_31
REMARK                            x       y       z     vdW  Elec       q    Type
REMARK                         _______ _______ _______ _____ _____    ______ ____
ROOT
ATOM      1  C   UNL     1     -24.406 104.007   0.129  0.00  0.00    +0.000 A 
ATOM      2  C   UNL     1     -23.594 102.602   2.445  0.00  0.00    +0.000 A 
ATOM      3  C   UNL     1     -23.727 102.784   0.040  0.00  0.00    +0.000 A 
ATOM      4  C   UNL     1     -24.659 104.510   1.413  0.00  0.00    +0.000 A 
ATOM      5  C   UNL     1     -23.327 102.086   1.180  0.00  0.00    +0.000 A 
ATOM      6  C   UNL     1     -24.262 103.819   2.559  0.00  0.00    +0.000 A 
ENDROOT
BRANCH   2   9
ATOM      7  O   UNL     1     -23.591 102.327   4.761  0.00  0.00    +0.000 OA
ATOM      8  N   UNL     1     -22.368 100.796   3.523  0.00  0.00    +0.000 N 
ATOM      9  C   ACE A   0     -23.186 101.898   3.687  0.00  0.00    +0.000 C 
ATOM     10  H   UNL     1     -22.084 100.517   2.588  0.00  0.00    +0.000 HD
ATOM     11  CA  UNL     1     -21.857  99.984   4.519  0.00  0.00    +0.000 C 
BRANCH  11  13
ATOM     12  OXT UNL     1     -19.840  98.999   3.701  0.00  0.00    +0.000 OA
ATOM     13  C   UNL     1     -21.000  98.863   4.059  0.00  0.00    +0.000 C 
BRANCH  13  14
ATOM     14  O   UNL     1     -21.608  97.667   4.063  0.00  0.00    +0.000 OA
ATOM     15  H   UNL     1     -21.633  97.397   5.004  0.00  0.00    +0.000 HD
ENDBRANCH  13  14
ENDBRANCH  11  13
BRANCH  11  16
ATOM     16  CB  UNL     1     -22.127 100.207   5.895  0.00  0.00    +0.000 C 
ATOM     17  CG  UNL     1     -22.406 100.446   7.384  0.00  0.00    +0.000 C 
BRANCH  17  19
ATOM     18  OE2 UNL     1     -22.309  99.886   9.651  0.00  0.00    +0.000 OA
ATOM     19  CD  UNL     1     -22.649 100.666   8.777  0.00  0.00    +0.000 C 
BRANCH  19  20
ATOM     20  OE1 UNL     1     -23.306 101.808   9.046  0.00  0.00    +0.000 OA
ATOM     21  HE1 UNL     1     -23.834 101.962   8.237  0.00  0.00    +0.000 HD
ENDBRANCH  19  20
ENDBRANCH  17  19
ENDBRANCH  11  16
ENDBRANCH   2   9
BRANCH   1  22
ATOM     22  N   UNL     1     -24.788 104.713  -1.037  0.00  0.00    +0.000 N 
ATOM     23  C   UNL     1     -25.533 105.956  -0.958  0.00  0.00    +0.000 C 
BRANCH  22  24
ATOM     24  C   UNL     1     -24.840 104.039  -2.317  0.00  0.00    +0.000 C 
BRANCH  24  31
ATOM     25  N   UNL     1     -24.054 103.799  -4.482  0.00  0.00    +0.000 NA
ATOM     26  N   UNL     1     -25.986 101.623  -5.143  0.00  0.00    +0.000 NA
ATOM     27  N   UNL     1     -25.122 101.535  -7.288  0.00  0.00    +0.000 NA
ATOM     28  N   UNL     1     -23.298 102.884  -7.973  0.00  0.00    +0.000 NA
ATOM     29  N   UNL     1     -22.203 104.398  -6.647  0.00  0.00    +0.000 N 
ATOM     30  N   UNL     1     -24.321 101.404  -9.410  0.00  0.00    +0.000 N 
ATOM     31  C   UNL     1     -24.889 103.379  -3.574  0.00  0.00    +0.000 C 
ATOM     32  C   UNL     1     -25.747 102.333  -4.031  0.00  0.00    +0.000 C 
ATOM     33  C   UNL     1     -24.123 103.133  -5.723  0.00  0.00    +0.000 C 
ATOM     34  C   UNL     1     -25.130 102.051  -6.033  0.00  0.00    +0.000 C 
ATOM     35  C   UNL     1     -23.192 103.465  -6.819  0.00  0.00    +0.000 C 
ATOM     36  C   UNL     1     -24.273 101.952  -8.172  0.00  0.00    +0.000 C 
ATOM     37  H   UNL     1     -21.841 104.786  -7.510  0.00  0.00    +0.000 HD
ATOM     38  H   UNL     1     -22.348 105.067  -5.898  0.00  0.00    +0.000 HD
ATOM     39  H   UNL     1     -23.430 101.427  -9.887  0.00  0.00    +0.000 HD
ATOM     40  H   UNL     1     -24.784 100.505  -9.420  0.00  0.00    +0.000 HD
ENDBRANCH  24  31
ENDBRANCH  22  24
ENDBRANCH   1  22
TORSDOF 9
ENDMDL
MODEL 4
REMARK VINA RESULT:      -6.8      4.559     10.909
REMARK  Name = Methotrexate.pdbqt.pdb
REMARK  9 active torsions:
REMARK  status: ('A' for Active; 'I' for Inactive)
REMARK    1  A    between atoms: C_1  and  N_22
REMARK    2  A    between atoms: C_2  and  C_9
REMARK    3  A    between atoms: CA_11  and  C_13
REMARK    4  A    between atoms: CA_11  and  CB_16
REMARK    5  A    between atoms: C_13  and  O_14
REMARK    6  A    between atoms: CG_17  and  CD_19
REMARK    7  A    between atoms: CD_19  and  OE1_20
REMARK    8  A    between atoms: N_22  and  C_24
REMARK    9  A    between atoms: C_24  and  C_31
REMARK                            x       y       z     vdW  Elec       q    Type
REMARK                         _______ _______ _______ _____ _____    ______ ____
ROOT
ATOM      1  C   UNL     1     -24.835 104.611  -0.357  0.00  0.00    +0.000 A 
ATOM      2  C   UNL     1     -23.805 103.123   1.817  0.00  0.00    +0.000 A 
ATOM      3  C   UNL     1     -24.010 103.497  -0.561  0.00  0.00    +0.000 A 
ATOM      4  C   UNL     1     -25.122 104.963   0.970  0.00  0.00    +0.000 A 
ATOM      5  C   UNL     1     -23.501 102.758   0.508  0.00  0.00    +0.000 A 
ATOM      6  C   UNL     1     -24.619 104.231   2.045  0.00  0.00    +0.000 A 
ENDROOT
BRANCH   2   9
ATOM      7  O   UNL     1     -22.766 101.279   2.796  0.00  0.00    +0.000 OA
ATOM      8  N   UNL     1     -23.440 102.979   4.219  0.00  0.00    +0.000 N 
ATOM      9  C   ACE A   0     -23.288 102.371   2.987  0.00  0.00    +0.000 C 
ATOM     10  H   UNL     1     -23.888 103.890   4.277  0.00  0.00    +0.000 HD
ATOM     11  CA  UNL     1     -23.046 102.481   5.448  0.00  0.00    +0.000 C 
BRANCH  11  13
ATOM     12  OXT UNL     1     -23.704 104.509   6.524  0.00  0.00    +0.000 OA
ATOM     13  C   UNL     1     -23.335 103.349   6.616  0.00  0.00    +0.000 C 
BRANCH  13  14
ATOM     14  O   UNL     1     -23.156 102.751   7.804  0.00  0.00    +0.000 OA
ATOM     15  H   UNL     1     -23.902 102.122   7.888  0.00  0.00    +0.000 HD
ENDBRANCH  13  14
ENDBRANCH  11  13
BRANCH  11  16
ATOM     16  CB  UNL     1     -22.409 101.220   5.587  0.00  0.00    +0.000 C 
ATOM     17  CG  UNL     1     -21.717  99.862   5.751  0.00  0.00    +0.000 C 
BRANCH  17  19
ATOM     18  OE2 UNL     1     -20.935  97.782   5.024  0.00  0.00    +0.000 OA
ATOM     19  CD  UNL     1     -21.066  98.598   5.921  0.00  0.00    +0.000 C 
BRANCH  19  20
ATOM     20  OE1 UNL     1     -20.620  98.374   7.170  0.00  0.00    +0.000 OA
ATOM     21  HE1 UNL     1     -19.906  99.033   7.277  0.00  0.00    +0.000 HD
ENDBRANCH  19  20
ENDBRANCH  17  19
ENDBRANCH  11  16
ENDBRANCH   2   9
BRANCH   1  22
ATOM     22  N   UNL     1     -25.326 105.362  -1.452  0.00  0.00    +0.000 N 
ATOM     23  C   UNL     1     -26.404 106.320  -1.287  0.00  0.00    +0.000 C 
BRANCH  22  24
ATOM     24  C   UNL     1     -25.092 104.916  -2.809  0.00  0.00    +0.000 C 
BRANCH  24  31
ATOM     25  N   UNL     1     -25.089 103.216  -4.381  0.00  0.00    +0.000 NA
ATOM     26  N   UNL     1     -24.068 104.979  -6.562  0.00  0.00    +0.000 NA
ATOM     27  N   UNL     1     -24.078 103.168  -8.002  0.00  0.00    +0.000 NA
ATOM     28  N   UNL     1     -24.856 101.030  -7.340  0.00  0.00    +0.000 NA
ATOM     29  N   UNL     1     -25.660 100.501  -5.261  0.00  0.00    +0.000 N 
ATOM     30  N   UNL     1     -24.060 101.429  -9.464  0.00  0.00    +0.000 N 
ATOM     31  C   UNL     1     -24.865 104.477  -4.140  0.00  0.00    +0.000 C 
ATOM     32  C   UNL     1     -24.386 105.196  -5.278  0.00  0.00    +0.000 C 
ATOM     33  C   UNL     1     -24.853 102.801  -5.708  0.00  0.00    +0.000 C 
ATOM     34  C   UNL     1     -24.313 103.714  -6.783  0.00  0.00    +0.000 C 
ATOM     35  C   UNL     1     -25.126 101.415  -6.132  0.00  0.00    +0.000 C 
ATOM     36  C   UNL     1     -24.323 101.918  -8.228  0.00  0.00    +0.000 C 
ATOM     37  H   UNL     1     -25.510  99.535  -5.526  0.00  0.00    +0.000 HD
ATOM     38  H   UNL     1     -25.539 100.704  -4.274  0.00  0.00    +0.000 HD
ATOM     39  H   UNL     1     -24.639 100.637  -9.708  0.00  0.00    +0.000 HD
ATOM     40  H   UNL     1     -24.016 102.154 -10.168  0.00  0.00    +0.000 HD
ENDBRANCH  24  31
ENDBRANCH  22  24
ENDBRANCH   1  22
TORSDOF 9
ENDMDL
MODEL 5
REMARK VINA RESULT:      -6.5     16.991     19.469
REMARK  Name = Methotrexate.pdbqt.pdb
REMARK  9 active torsions:
REMARK  status: ('A' for Active; 'I' for Inactive)
REMARK    1  A    between atoms: C_1  and  N_22
REMARK    2  A    between atoms: C_2  and  C_9
REMARK    3  A    between atoms: CA_11  and  C_13
REMARK    4  A    between atoms: CA_11  and  CB_16
REMARK    5  A    between atoms: C_13  and  O_14
REMARK    6  A    between atoms: CG_17  and  CD_19
REMARK    7  A    between atoms: CD_19  and  OE1_20
REMARK    8  A    between atoms: N_22  and  C_24
REMARK    9  A    between atoms: C_24  and  C_31
REMARK                            x       y       z     vdW  Elec       q    Type
REMARK                         _______ _______ _______ _____ _____    ______ ____
ROOT
ATOM      1  C   UNL     1     -40.831 102.365   0.739  0.00  0.00    +0.000 A 
ATOM      2  C   UNL     1     -38.445 103.510   1.738  0.00  0.00    +0.000 A 
ATOM      3  C   UNL     1     -40.139 101.790   1.815  0.00  0.00    +0.000 A 
ATOM      4  C   UNL     1     -40.287 103.527   0.173  0.00  0.00    +0.000 A 
ATOM      5  C   UNL     1     -38.963 102.353   2.313  0.00  0.00    +0.000 A 
ATOM      6  C   UNL     1     -39.111 104.097   0.664  0.00  0.00    +0.000 A 
ENDROOT
BRANCH   2   9
ATOM      7  O   UNL     1     -36.219 104.162   1.492  0.00  0.00    +0.000 OA
ATOM      8  N   UNL     1     -37.245 104.678   3.504  0.00  0.00    +0.000 N 
ATOM      9  C   ACE A   0     -37.197 104.146   2.229  0.00  0.00    +0.000 C 
ATOM     10  H   UNL     1     -38.105 104.615   4.042  0.00  0.00    +0.000 HD
ATOM     11  CA  UNL     1     -36.219 105.313   4.181  0.00  0.00    +0.000 C 
BRANCH  11  13
ATOM     12  OXT UNL     1     -35.834 106.544   6.191  0.00  0.00    +0.000 OA
ATOM     13  C   UNL     1     -36.547 105.789   5.547  0.00  0.00    +0.000 C 
BRANCH  13  14
ATOM     14  O   UNL     1     -37.706 105.318   6.031  0.00  0.00    +0.000 OA
ATOM     15  H   UNL     1     -38.229 106.114   6.259  0.00  0.00    +0.000 HD
ENDBRANCH  13  14
ENDBRANCH  11  13
BRANCH  11  16
ATOM     16  CB  UNL     1     -34.932 105.497   3.609  0.00  0.00    +0.000 C 
ATOM     17  CG  UNL     1     -33.548 105.696   2.979  0.00  0.00    +0.000 C 
BRANCH  17  19
ATOM     18  OE2 UNL     1     -31.385 106.573   2.859  0.00  0.00    +0.000 OA
ATOM     19  CD  UNL     1     -32.265 105.881   2.374  0.00  0.00    +0.000 C 
BRANCH  19  20
ATOM     20  OE1 UNL     1     -32.112 105.238   1.202  0.00  0.00    +0.000 OA
ATOM     21  HE1 UNL     1     -31.687 104.396   1.461  0.00  0.00    +0.000 HD
ENDBRANCH  19  20
ENDBRANCH  17  19
ENDBRANCH  11  16
ENDBRANCH   2   9
BRANCH   1  22
ATOM     22  N   UNL     1     -42.011 101.770   0.234  0.00  0.00    +0.000 N 
ATOM     23  C   UNL     1     -42.371 101.879  -1.169  0.00  0.00    +0.000 C 
BRANCH  22  24
ATOM     24  C   UNL     1     -43.095 101.418   1.127  0.00  0.00    +0.000 C 
BRANCH  24  31
ATOM     25  N   UNL     1     -45.197 100.505   1.459  0.00  0.00    +0.000 NA
ATOM     26  N   UNL     1     -45.197 101.092   4.384  0.00  0.00    +0.000 NA
ATOM     27  N   UNL     1     -47.320 100.187   4.545  0.00  0.00    +0.000 NA
ATOM     28  N   UNL     1     -48.428  99.222   2.687  0.00  0.00    +0.000 NA
ATOM     29  N   UNL     1     -47.570  99.075   0.567  0.00  0.00    +0.000 N 
ATOM     30  N   UNL     1     -49.406  99.317   4.769  0.00  0.00    +0.000 N 
ATOM     31  C   UNL     1     -44.158 101.074   2.002  0.00  0.00    +0.000 C 
ATOM     32  C   UNL     1     -44.299 101.287   3.408  0.00  0.00    +0.000 C 
ATOM     33  C   UNL     1     -46.242 100.177   2.346  0.00  0.00    +0.000 C 
ATOM     34  C   UNL     1     -46.220 100.510   3.819  0.00  0.00    +0.000 C 
ATOM     35  C   UNL     1     -47.449  99.472   1.873  0.00  0.00    +0.000 C 
ATOM     36  C   UNL     1     -48.335  99.606   3.992  0.00  0.00    +0.000 C 
ATOM     37  H   UNL     1     -48.523  98.905   0.269  0.00  0.00    +0.000 HD
ATOM     38  H   UNL     1     -46.987  99.566  -0.102  0.00  0.00    +0.000 HD
ATOM     39  H   UNL     1     -49.940  98.527   4.430  0.00  0.00    +0.000 HD
ATOM     40  H   UNL     1     -49.176  99.281   5.753  0.00  0.00    +0.000 HD
ENDBRANCH  24  31
ENDBRANCH  22  24
ENDBRANCH   1  22
TORSDOF 9
ENDMDL
MODEL 6
REMARK VINA RESULT:      -6.2     17.541     21.717
REMARK  Name = Methotrexate.pdbqt.pdb
REMARK  9 active torsions:
REMARK  status: ('A' for Active; 'I' for Inactive)
REMARK    1  A    between atoms: C_1  and  N_22
REMARK    2  A    between atoms: C_2  and  C_9
REMARK    3  A    between atoms: CA_11  and  C_13
REMARK    4  A    between atoms: CA_11  and  CB_16
REMARK    5  A    between atoms: C_13  and  O_14
REMARK    6  A    between atoms: CG_17  and  CD_19
REMARK    7  A    between atoms: CD_19  and  OE1_20
REMARK    8  A    between atoms: N_22  and  C_24
REMARK    9  A    between atoms: C_24  and  C_31
REMARK                            x       y       z     vdW  Elec       q    Type
REMARK                         _______ _______ _______ _____ _____    ______ ____
ROOT
ATOM      1  C   UNL     1     -18.586  88.294  11.329  0.00  0.00    +0.000 A 
ATOM      2  C   UNL     1     -19.478  88.717  13.979  0.00  0.00    +0.000 A 
ATOM      3  C   UNL     1     -19.195  89.497  11.711  0.00  0.00    +0.000 A 
ATOM      4  C   UNL     1     -18.445  87.305  12.313  0.00  0.00    +0.000 A 
ATOM      5  C   UNL     1     -19.635  89.712  13.018  0.00  0.00    +0.000 A 
ATOM      6  C   UNL     1     -18.881  87.510  13.623  0.00  0.00    +0.000 A 
ENDROOT
BRANCH   2   9
ATOM      7  O   UNL     1     -19.993  90.032  15.836  0.00  0.00    +0.000 OA
ATOM      8  N   UNL     1     -20.253  87.741  16.071  0.00  0.00    +0.000 N 
ATOM      9  C   ACE A   0     -19.931  88.896  15.382  0.00  0.00    +0.000 C 
ATOM     10  H   UNL     1     -20.169  86.841  15.608  0.00  0.00    +0.000 HD
ATOM     11  CA  UNL     1     -20.693  87.648  17.380  0.00  0.00    +0.000 C 
BRANCH  11  13
ATOM     12  OXT UNL     1     -21.654  85.464  17.268  0.00  0.00    +0.000 OA
ATOM     13  C   UNL     1     -20.965  86.274  17.870  0.00  0.00    +0.000 C 
BRANCH  13  14
ATOM     14  O   UNL     1     -20.389  85.985  19.046  0.00  0.00    +0.000 OA
ATOM     15  H   UNL     1     -20.459  86.808  19.573  0.00  0.00    +0.000 HD
ENDBRANCH  13  14
ENDBRANCH  11  13
BRANCH  11  16
ATOM     16  CB  UNL     1     -20.869  88.790  18.205  0.00  0.00    +0.000 C 
ATOM     17  CG  UNL     1     -21.048  90.028  19.090  0.00  0.00    +0.000 C 
BRANCH  17  19
ATOM     18  OE2 UNL     1     -20.469  91.449  20.854  0.00  0.00    +0.000 OA
ATOM     19  CD  UNL     1     -21.198  91.191  19.911  0.00  0.00    +0.000 C 
BRANCH  19  20
ATOM     20  OE1 UNL     1     -22.234  91.978  19.565  0.00  0.00    +0.000 OA
ATOM     21  HE1 UNL     1     -22.619  91.517  18.793  0.00  0.00    +0.000 HD
ENDBRANCH  19  20
ENDBRANCH  17  19
ENDBRANCH  11  16
ENDBRANCH   2   9
BRANCH   1  22
ATOM     22  N   UNL     1     -18.164  88.084   9.995  0.00  0.00    +0.000 N 
ATOM     23  C   UNL     1     -16.781  88.284   9.600  0.00  0.00    +0.000 C 
BRANCH  22  24
ATOM     24  C   UNL     1     -19.126  88.090   8.912  0.00  0.00    +0.000 C 
BRANCH  24  31
ATOM     25  N   UNL     1     -20.987  87.166   7.888  0.00  0.00    +0.000 NA
ATOM     26  N   UNL     1     -20.916  89.087   5.606  0.00  0.00    +0.000 NA
ATOM     27  N   UNL     1     -22.755  88.027   4.684  0.00  0.00    +0.000 NA
ATOM     28  N   UNL     1     -23.850  86.225   5.765  0.00  0.00    +0.000 NA
ATOM     29  N   UNL     1     -23.242  85.330   7.785  0.00  0.00    +0.000 N 
ATOM     30  N   UNL     1     -24.555  87.028   3.725  0.00  0.00    +0.000 N 
ATOM     31  C   UNL     1     -20.071  88.093   7.853  0.00  0.00    +0.000 C 
ATOM     32  C   UNL     1     -20.165  88.941   6.707  0.00  0.00    +0.000 C 
ATOM     33  C   UNL     1     -21.911  87.187   6.824  0.00  0.00    +0.000 C 
ATOM     34  C   UNL     1     -21.833  88.159   5.671  0.00  0.00    +0.000 C 
ATOM     35  C   UNL     1     -23.036  86.233   6.775  0.00  0.00    +0.000 C 
ATOM     36  C   UNL     1     -23.668  87.113   4.745  0.00  0.00    +0.000 C 
ATOM     37  H   UNL     1     -23.809  84.533   7.522  0.00  0.00    +0.000 HD
ATOM     38  H   UNL     1     -22.435  85.117   8.362  0.00  0.00    +0.000 HD
ATOM     39  H   UNL     1     -25.444  86.635   4.006  0.00  0.00    +0.000 HD
ATOM     40  H   UNL     1     -24.620  87.885   3.193  0.00  0.00    +0.000 HD
ENDBRANCH  24  31
ENDBRANCH  22  24
ENDBRANCH   1  22
TORSDOF 9
ENDMDL
MODEL 7
REMARK VINA RESULT:      -6.1     25.814     28.512
REMARK  Name = Methotrexate.pdbqt.pdb
REMARK  9 active torsions:
REMARK  status: ('A' for Active; 'I' for Inactive)
REMARK    1  A    between atoms: C_1  and  N_22
REMARK    2  A    between atoms: C_2  and  C_9
REMARK    3  A    between atoms: CA_11  and  C_13
REMARK    4  A    between atoms: CA_11  and  CB_16
REMARK    5  A    between atoms: C_13  and  O_14
REMARK    6  A    between atoms: CG_17  and  CD_19
REMARK    7  A    between atoms: CD_19  and  OE1_20
REMARK    8  A    between atoms: N_22  and  C_24
REMARK    9  A    between atoms: C_24  and  C_31
REMARK                            x       y       z     vdW  Elec       q    Type
REMARK                         _______ _______ _______ _____ _____    ______ ____
ROOT
ATOM      1  C   UNL     1     -36.504  77.778   6.292  0.00  0.00    +0.000 A 
ATOM      2  C   UNL     1     -39.259  78.411   6.201  0.00  0.00    +0.000 A 
ATOM      3  C   UNL     1     -37.434  77.111   7.101  0.00  0.00    +0.000 A 
ATOM      4  C   UNL     1     -36.995  78.779   5.441  0.00  0.00    +0.000 A 
ATOM      5  C   UNL     1     -38.794  77.418   7.058  0.00  0.00    +0.000 A 
ATOM      6  C   UNL     1     -38.354  79.093   5.390  0.00  0.00    +0.000 A 
ENDROOT
BRANCH   2   9
ATOM      7  O   UNL     1     -41.524  77.993   6.570  0.00  0.00    +0.000 OA
ATOM      8  N   UNL     1     -40.984  79.993   5.531  0.00  0.00    +0.000 N 
ATOM      9  C   ACE A   0     -40.696  78.776   6.120  0.00  0.00    +0.000 C 
ATOM     10  H   UNL     1     -40.226  80.575   5.185  0.00  0.00    +0.000 HD
ATOM     11  CA  UNL     1     -42.237  80.548   5.338  0.00  0.00    +0.000 C 
BRANCH  11  13
ATOM     12  OXT UNL     1     -41.594  82.149   3.686  0.00  0.00    +0.000 OA
ATOM     13  C   UNL     1     -42.256  81.876   4.676  0.00  0.00    +0.000 C 
BRANCH  13  14
ATOM     14  O   UNL     1     -43.070  82.770   5.257  0.00  0.00    +0.000 OA
ATOM     15  H   UNL     1     -42.524  83.575   5.370  0.00  0.00    +0.000 HD
ENDBRANCH  13  14
ENDBRANCH  11  13
BRANCH  11  16
ATOM     16  CB  UNL     1     -43.429  79.892   5.743  0.00  0.00    +0.000 C 
ATOM     17  CG  UNL     1     -44.716  79.190   6.192  0.00  0.00    +0.000 C 
BRANCH  17  19
ATOM     18  OE2 UNL     1     -46.759  78.102   5.866  0.00  0.00    +0.000 OA
ATOM     19  CD  UNL     1     -45.915  78.542   6.628  0.00  0.00    +0.000 C 
BRANCH  19  20
ATOM     20  OE1 UNL     1     -46.047  78.474   7.965  0.00  0.00    +0.000 OA
ATOM     21  HE1 UNL     1     -45.136  78.296   8.274  0.00  0.00    +0.000 HD
ENDBRANCH  19  20
ENDBRANCH  17  19
ENDBRANCH  11  16
ENDBRANCH   2   9
BRANCH   1  22
ATOM     22  N   UNL     1     -35.125  77.469   6.362  0.00  0.00    +0.000 N 
ATOM     23  C   UNL     1     -34.636  76.130   6.089  0.00  0.00    +0.000 C 
BRANCH  22  24
ATOM     24  C   UNL     1     -34.220  78.321   7.105  0.00  0.00    +0.000 C 
BRANCH  24  31
ATOM     25  N   UNL     1     -32.186  79.416   7.269  0.00  0.00    +0.000 NA
ATOM     26  N   UNL     1     -32.768  80.486   9.993  0.00  0.00    +0.000 NA
ATOM     27  N   UNL     1     -30.681  81.486  10.024  0.00  0.00    +0.000 NA
ATOM     28  N   UNL     1     -29.203  81.383   8.175  0.00  0.00    +0.000 NA
ATOM     29  N   UNL     1     -29.634  80.313   6.196  0.00  0.00    +0.000 N 
ATOM     30  N   UNL     1     -28.645  82.487  10.118  0.00  0.00    +0.000 N 
ATOM     31  C   UNL     1     -33.331  79.154   7.834  0.00  0.00    +0.000 C 
ATOM     32  C   UNL     1     -33.470  79.736   9.131  0.00  0.00    +0.000 C 
ATOM     33  C   UNL     1     -31.318  80.242   8.013  0.00  0.00    +0.000 C 
ATOM     34  C   UNL     1     -31.634  80.747   9.400  0.00  0.00    +0.000 C 
ATOM     35  C   UNL     1     -30.017  80.668   7.463  0.00  0.00    +0.000 C 
ATOM     36  C   UNL     1     -29.558  81.751   9.440  0.00  0.00    +0.000 C 
ATOM     37  H   UNL     1     -28.635  80.364   6.032  0.00  0.00    +0.000 HD
ATOM     38  H   UNL     1     -30.096  79.499   5.804  0.00  0.00    +0.000 HD
ATOM     39  H   UNL     1     -28.026  83.008   9.510  0.00  0.00    +0.000 HD
ATOM     40  H   UNL     1     -29.058  83.027  10.866  0.00  0.00    +0.000 HD
ENDBRANCH  24  31
ENDBRANCH  22  24
ENDBRANCH   1  22
TORSDOF 9
ENDMDL
MODEL 8
REMARK VINA RESULT:      -6.1     21.778     24.134
REMARK  Name = Methotrexate.pdbqt.pdb
REMARK  9 active torsions:
REMARK  status: ('A' for Active; 'I' for Inactive)
REMARK    1  A    between atoms: C_1  and  N_22
REMARK    2  A    between atoms: C_2  and  C_9
REMARK    3  A    between atoms: CA_11  and  C_13
REMARK    4  A    between atoms: CA_11  and  CB_16
REMARK    5  A    between atoms: C_13  and  O_14
REMARK    6  A    between atoms: CG_17  and  CD_19
REMARK    7  A    between atoms: CD_19  and  OE1_20
REMARK    8  A    between atoms: N_22  and  C_24
REMARK    9  A    between atoms: C_24  and  C_31
REMARK                            x       y       z     vdW  Elec       q    Type
REMARK                         _______ _______ _______ _____ _____    ______ ____
ROOT
ATOM      1  C   UNL     1     -46.975 101.498   3.355  0.00  0.00    +0.000 A 
ATOM      2  C   UNL     1     -48.340  99.032   3.129  0.00  0.00    +0.000 A 
ATOM      3  C   UNL     1     -47.902 101.086   4.321  0.00  0.00    +0.000 A 
ATOM      4  C   UNL     1     -46.757 100.640   2.267  0.00  0.00    +0.000 A 
ATOM      5  C   UNL     1     -48.577  99.869   4.216  0.00  0.00    +0.000 A 
ATOM      6  C   UNL     1     -47.427  99.421   2.152  0.00  0.00    +0.000 A 
ENDROOT
BRANCH   2   9
ATOM      7  O   UNL     1     -49.273  97.068   3.973  0.00  0.00    +0.000 OA
ATOM      8  N   UNL     1     -49.358  97.364   1.677  0.00  0.00    +0.000 N 
ATOM      9  C   ACE A   0     -49.034  97.729   2.970  0.00  0.00    +0.000 C 
ATOM     10  H   UNL     1     -49.117  97.981   0.906  0.00  0.00    +0.000 HD
ATOM     11  CA  UNL     1     -49.999  96.205   1.274  0.00  0.00    +0.000 C 
BRANCH  11  13
ATOM     12  OXT UNL     1     -50.112  96.992  -0.978  0.00  0.00    +0.000 OA
ATOM     13  C   UNL     1     -50.222  96.068  -0.186  0.00  0.00    +0.000 C 
BRANCH  13  14
ATOM     14  O   UNL     1     -50.562  94.831  -0.578  0.00  0.00    +0.000 OA
ATOM     15  H   UNL     1     -50.810  94.921  -1.521  0.00  0.00    +0.000 HD
ENDBRANCH  13  14
ENDBRANCH  11  13
BRANCH  11  16
ATOM     16  CB  UNL     1     -50.413  95.207   2.195  0.00  0.00    +0.000 C 
ATOM     17  CG  UNL     1     -50.847  94.128   3.194  0.00  0.00    +0.000 C 
BRANCH  17  19
ATOM     18  OE2 UNL     1     -51.633  92.012   3.802  0.00  0.00    +0.000 OA
ATOM     19  CD  UNL     1     -51.234  93.117   4.130  0.00  0.00    +0.000 C 
BRANCH  19  20
ATOM     20  OE1 UNL     1     -51.139  93.495   5.417  0.00  0.00    +0.000 OA
ATOM     21  HE1 UNL     1     -50.621  92.775   5.828  0.00  0.00    +0.000 HD
ENDBRANCH  19  20
ENDBRANCH  17  19
ENDBRANCH  11  16
ENDBRANCH   2   9
BRANCH   1  22
ATOM     22  N   UNL     1     -46.314 102.744   3.466  0.00  0.00    +0.000 N 
ATOM     23  C   UNL     1     -46.871 103.950   2.880  0.00  0.00    +0.000 C 
BRANCH  22  24
ATOM     24  C   UNL     1     -44.899 102.799   3.772  0.00  0.00    +0.000 C 
BRANCH  24  31
ATOM     25  N   UNL     1     -42.703 102.379   3.170  0.00  0.00    +0.000 NA
ATOM     26  N   UNL     1     -41.602 103.418   5.741  0.00  0.00    +0.000 NA
ATOM     27  N   UNL     1     -39.468 102.897   5.014  0.00  0.00    +0.000 NA
ATOM     28  N   UNL     1     -39.049 102.005   2.859  0.00  0.00    +0.000 NA
ATOM     29  N   UNL     1     -40.648 101.552   1.282  0.00  0.00    +0.000 N 
ATOM     30  N   UNL     1     -37.349 102.406   4.360  0.00  0.00    +0.000 N 
ATOM     31  C   UNL     1     -43.514 102.854   4.074  0.00  0.00    +0.000 C 
ATOM     32  C   UNL     1     -42.844 103.319   5.247  0.00  0.00    +0.000 C 
ATOM     33  C   UNL     1     -41.332 102.439   3.493  0.00  0.00    +0.000 C 
ATOM     34  C   UNL     1     -40.809 102.950   4.814  0.00  0.00    +0.000 C 
ATOM     35  C   UNL     1     -40.304 101.994   2.533  0.00  0.00    +0.000 C 
ATOM     36  C   UNL     1     -38.678 102.439   4.098  0.00  0.00    +0.000 C 
ATOM     37  H   UNL     1     -39.943 100.980   0.833  0.00  0.00    +0.000 HD
ATOM     38  H   UNL     1     -41.603 101.228   1.173  0.00  0.00    +0.000 HD
ATOM     39  H   UNL     1     -36.779 102.463   3.526  0.00  0.00    +0.000 HD
ATOM     40  H   UNL     1     -37.081 103.041   5.100  0.00  0.00    +0.000 HD
ENDBRANCH  24  31
ENDBRANCH  22  24
ENDBRANCH   1  22
TORSDOF 9
ENDMDL
MODEL 9
REMARK VINA RESULT:      -6.0     17.671     21.702
REMARK  Name = Methotrexate.pdbqt.pdb
REMARK  9 active torsions:
REMARK  status: ('A' for Active; 'I' for Inactive)
REMARK    1  A    between atoms: C_1  and  N_22
REMARK    2  A    between atoms: C_2  and  C_9
REMARK    3  A    between atoms: CA_11  and  C_13
REMARK    4  A    between atoms: CA_11  and  CB_16
REMARK    5  A    between atoms: C_13  and  O_14
REMARK    6  A    between atoms: CG_17  and  CD_19
REMARK    7  A    between atoms: CD_19  and  OE1_20
REMARK    8  A    between atoms: N_22  and  C_24
REMARK    9  A    between atoms: C_24  and  C_31
REMARK                            x       y       z     vdW  Elec       q    Type
REMARK                         _______ _______ _______ _____ _____    ______ ____
ROOT
ATOM      1  C   UNL     1     -18.633  88.439  11.354  0.00  0.00    +0.000 A 
ATOM      2  C   UNL     1     -19.621  88.561  14.001  0.00  0.00    +0.000 A 
ATOM      3  C   UNL     1     -19.249  89.596  11.851  0.00  0.00    +0.000 A 
ATOM      4  C   UNL     1     -18.534  87.342  12.221  0.00  0.00    +0.000 A 
ATOM      5  C   UNL     1     -19.736  89.662  13.157  0.00  0.00    +0.000 A 
ATOM      6  C   UNL     1     -19.018  87.398  13.529  0.00  0.00    +0.000 A 
ENDROOT
BRANCH   2   9
ATOM      7  O   UNL     1     -20.663  87.573  15.839  0.00  0.00    +0.000 OA
ATOM      8  N   UNL     1     -19.941  89.759  16.096  0.00  0.00    +0.000 N 
ATOM      9  C   ACE A   0     -20.125  88.581  15.397  0.00  0.00    +0.000 C 
ATOM     10  H   UNL     1     -19.482  90.545  15.642  0.00  0.00    +0.000 HD
ATOM     11  CA  UNL     1     -20.323  90.024  17.399  0.00  0.00    +0.000 C 
BRANCH  11  13
ATOM     12  OXT UNL     1     -20.823  92.277  18.014  0.00  0.00    +0.000 OA
ATOM     13  C   UNL     1     -19.999  91.382  17.901  0.00  0.00    +0.000 C 
BRANCH  13  14
ATOM     14  O   UNL     1     -18.709  91.556  18.226  0.00  0.00    +0.000 OA
ATOM     15  H   UNL     1     -18.271  91.827  17.393  0.00  0.00    +0.000 HD
ENDBRANCH  13  14
ENDBRANCH  11  13
BRANCH  11  16
ATOM     16  CB  UNL     1     -20.986  89.062  18.205  0.00  0.00    +0.000 C 
ATOM     17  CG  UNL     1     -21.709  88.033  19.083  0.00  0.00    +0.000 C 
BRANCH  17  19
ATOM     18  OE2 UNL     1     -23.325  87.380  20.641  0.00  0.00    +0.000 OA
ATOM     19  CD  UNL     1     -22.392  87.087  19.912  0.00  0.00    +0.000 C 
BRANCH  19  20
ATOM     20  OE1 UNL     1     -21.903  85.836  19.835  0.00  0.00    +0.000 OA
ATOM     21  HE1 UNL     1     -22.076  85.582  18.906  0.00  0.00    +0.000 HD
ENDBRANCH  19  20
ENDBRANCH  17  19
ENDBRANCH  11  16
ENDBRANCH   2   9
BRANCH   1  22
ATOM     22  N   UNL     1     -18.162  88.382  10.020  0.00  0.00    +0.000 N 
ATOM     23  C   UNL     1     -16.814  88.798   9.677  0.00  0.00    +0.000 C 
BRANCH  22  24
ATOM     24  C   UNL     1     -19.096  88.327   8.915  0.00  0.00    +0.000 C 
BRANCH  24  31
ATOM     25  N   UNL     1     -20.925  87.343   7.891  0.00  0.00    +0.000 NA
ATOM     26  N   UNL     1     -20.810  89.154   5.522  0.00  0.00    +0.000 NA
ATOM     27  N   UNL     1     -22.619  88.037   4.607  0.00  0.00    +0.000 NA
ATOM     28  N   UNL     1     -23.728  86.280   5.745  0.00  0.00    +0.000 NA
ATOM     29  N   UNL     1     -23.166  85.487   7.820  0.00  0.00    +0.000 N 
ATOM     30  N   UNL     1     -24.388  86.980   3.653  0.00  0.00    +0.000 N 
ATOM     31  C   UNL     1     -20.014  88.274   7.834  0.00  0.00    +0.000 C 
ATOM     32  C   UNL     1     -20.085  89.065   6.647  0.00  0.00    +0.000 C 
ATOM     33  C   UNL     1     -21.822  87.305   6.804  0.00  0.00    +0.000 C 
ATOM     34  C   UNL     1     -21.722  88.222   5.609  0.00  0.00    +0.000 C 
ATOM     35  C   UNL     1     -22.940  86.342   6.773  0.00  0.00    +0.000 C 
ATOM     36  C   UNL     1     -23.527  87.120   4.689  0.00  0.00    +0.000 C 
ATOM     37  H   UNL     1     -23.721  84.673   7.581  0.00  0.00    +0.000 HD
ATOM     38  H   UNL     1     -22.372  85.307   8.426  0.00  0.00    +0.000 HD
ATOM     39  H   UNL     1     -25.281  86.594   3.929  0.00  0.00    +0.000 HD
ATOM     40  H   UNL     1     -24.445  87.810   3.078  0.00  0.00    +0.000 HD
ENDBRANCH  24  31
ENDBRANCH  22  24
ENDBRANCH   1  22
TORSDOF 9
ENDMDL
