MODEL 1
REMARK VINA RESULT:      -5.4      0.000      0.000
REMARK  Name = 
REMARK  21 active torsions:
REMARK  status: ('A' for Active; 'I' for Inactive)
REMARK    1  A    between atoms: O_3  and  C_27
REMARK    2  A    between atoms: O_3  and  C_28
REMARK    3  A    between atoms: N_6  and  CA_9
REMARK    4  A    between atoms: N_7  and  CA_15
REMARK    5  A    between atoms: N_8  and  CA_12
REMARK    6  A    between atoms: CA_9  and  CB_10
REMARK    7  A    between atoms: CA_9  and  C_16
REMARK    8  A    between atoms: CB_10  and  CG_11
REMARK    9  A    between atoms: CG_11  and  CD1_20
REMARK   10  A    between atoms: CG_11  and  CD2_21
REMARK   11  A    between atoms: CA_12  and  CB_13
REMARK   12  A    between atoms: CA_12  and  C_18
REMARK   13  A    between atoms: CB_13  and  CG_14
REMARK   14  A    between atoms: CG_14  and  CD1_22
REMARK   15  A    between atoms: CG_14  and  CD2_23
REMARK   16  A    between atoms: CA_15  and  CB_17
REMARK   17  A    between atoms: CA_15  and  C_26
REMARK   18  A    between atoms: CB_17  and  CG_19
REMARK   19  A    between atoms: CG_19  and  CD1_24
REMARK   20  A    between atoms: CG_19  and  CD2_25
REMARK   21  A    between atoms: C_28  and  C_29
REMARK                            x       y       z     vdW  Elec       q    Type
REMARK                         _______ _______ _______ _____ _____    ______ ____
ROOT
ATOM      1  O   UNL     1     -32.225 100.859  18.872  0.00  0.00    +0.000 OA
ATOM      2  N   UNL     1     -31.520 100.279  16.782  0.00  0.00    +0.000 N 
ATOM      3  C   UNL     1     -31.417 100.999  17.960  0.00  0.00    +0.000 C 
ATOM      4  H   UNL     1     -30.624 100.077  16.343  0.00  0.00    +0.000 HD
ENDROOT
BRANCH   2   5
ATOM      5  CA  UNL     1     -32.532  99.228  16.664  0.00  0.00    +0.000 C 
BRANCH   5   8
ATOM      6  O   UNL     1     -31.352  97.511  15.439  0.00  0.00    +0.000 OA
ATOM      7  N   UNL     1     -31.444  97.157  17.634  0.00  0.00    +0.000 N 
ATOM      8  C   UNL     1     -31.733  97.917  16.542  0.00  0.00    +0.000 C 
ATOM      9  H   UNL     1     -30.889  96.348  17.378  0.00  0.00    +0.000 HD
BRANCH   7  10
ATOM     10  CA  UNL     1     -31.441  97.533  19.048  0.00  0.00    +0.000 C 
BRANCH  10  12
ATOM     11  O   UNL     1     -29.157  98.377  18.973  0.00  0.00    +0.000 OA
ATOM     12  C   UNL     1     -30.005  97.696  19.545  0.00  0.00    +0.000 C 
ENDBRANCH  10  12
BRANCH  10  13
ATOM     13  CB  UNL     1     -32.285  96.576  19.905  0.00  0.00    +0.000 C 
BRANCH  13  14
ATOM     14  CG  UNL     1     -33.100  95.491  19.168  0.00  0.00    +0.000 C 
ATOM     15  CD1 UNL     1     -33.151  94.156  19.908  0.00  0.00    +0.000 C 
ATOM     16  CD2 UNL     1     -34.527  95.999  18.932  0.00  0.00    +0.000 C 
ENDBRANCH  13  14
ENDBRANCH  10  13
ENDBRANCH   7  10
ENDBRANCH   5   8
BRANCH   5  17
ATOM     17  CB  UNL     1     -33.378  99.456  15.403  0.00  0.00    +0.000 C 
BRANCH  17  18
ATOM     18  CG  UNL     1     -33.197 100.840  14.749  0.00  0.00    +0.000 C 
ATOM     19  CD1 UNL     1     -32.167 100.818  13.619  0.00  0.00    +0.000 C 
ATOM     20  CD2 UNL     1     -34.540 101.331  14.202  0.00  0.00    +0.000 C 
ENDBRANCH  17  18
ENDBRANCH   5  17
ENDBRANCH   2   5
BRANCH   3  21
ATOM     21  CA  UNL     1     -30.170 101.914  18.052  0.00  0.00    +0.000 C 
BRANCH  21  23
ATOM     22  O   UNL     1     -28.764 103.611  19.815  0.00  0.00    +0.000 OA
ATOM     23  N   UNL     1     -29.319 101.482  19.168  0.00  0.00    +0.000 N 
ATOM     24  C   ACE A   0     -28.655 102.401  19.936  0.00  0.00    +0.000 C 
ATOM     25  H   UNL     1     -28.902 100.563  19.110  0.00  0.00    +0.000 HD
BRANCH  24  26
ATOM     26  O   UNL     1     -27.766 101.832  20.785  0.00  0.00    +0.000 OA
BRANCH  26  27
ATOM     27  C   UNL     1     -28.139 101.841  22.168  0.00  0.00    +0.000 C 
BRANCH  27  28
ATOM     28  C   UNL     1     -27.643 100.582  22.836  0.00  0.00    +0.000 A 
ATOM     29  C   UNL     1     -27.919  99.326  22.277  0.00  0.00    +0.000 A 
ATOM     30  C   UNL     1     -26.950 100.642  24.054  0.00  0.00    +0.000 A 
ATOM     31  C   UNL     1     -27.489  98.158  22.911  0.00  0.00    +0.000 A 
ATOM     32  C   UNL     1     -26.521  99.474  24.686  0.00  0.00    +0.000 A 
ATOM     33  C   UNL     1     -26.790  98.232  24.113  0.00  0.00    +0.000 A 
ENDBRANCH  27  28
ENDBRANCH  26  27
ENDBRANCH  24  26
ENDBRANCH  21  23
BRANCH  21  34
ATOM     34  CB  UNL     1     -29.362 101.898  16.742  0.00  0.00    +0.000 C 
BRANCH  34  35
ATOM     35  CG  UNL     1     -29.617 103.073  15.776  0.00  0.00    +0.000 C 
ATOM     36  CD1 UNL     1     -29.037 104.391  16.292  0.00  0.00    +0.000 C 
ATOM     37  CD2 UNL     1     -29.012 102.749  14.406  0.00  0.00    +0.000 C 
ENDBRANCH  34  35
ENDBRANCH  21  34
ENDBRANCH   3  21
TORSDOF 15
ENDMDL
MODEL 2
REMARK VINA RESULT:      -5.4      1.637      2.320
REMARK  Name = 
REMARK  21 active torsions:
REMARK  status: ('A' for Active; 'I' for Inactive)
REMARK    1  A    between atoms: O_3  and  C_27
REMARK    2  A    between atoms: O_3  and  C_28
REMARK    3  A    between atoms: N_6  and  CA_9
REMARK    4  A    between atoms: N_7  and  CA_15
REMARK    5  A    between atoms: N_8  and  CA_12
REMARK    6  A    between atoms: CA_9  and  CB_10
REMARK    7  A    between atoms: CA_9  and  C_16
REMARK    8  A    between atoms: CB_10  and  CG_11
REMARK    9  A    between atoms: CG_11  and  CD1_20
REMARK   10  A    between atoms: CG_11  and  CD2_21
REMARK   11  A    between atoms: CA_12  and  CB_13
REMARK   12  A    between atoms: CA_12  and  C_18
REMARK   13  A    between atoms: CB_13  and  CG_14
REMARK   14  A    between atoms: CG_14  and  CD1_22
REMARK   15  A    between atoms: CG_14  and  CD2_23
REMARK   16  A    between atoms: CA_15  and  CB_17
REMARK   17  A    between atoms: CA_15  and  C_26
REMARK   18  A    between atoms: CB_17  and  CG_19
REMARK   19  A    between atoms: CG_19  and  CD1_24
REMARK   20  A    between atoms: CG_19  and  CD2_25
REMARK   21  A    between atoms: C_28  and  C_29
REMARK                            x       y       z     vdW  Elec       q    Type
REMARK                         _______ _______ _______ _____ _____    ______ ____
ROOT
ATOM      1  O   UNL     1     -32.016 100.663  18.293  0.00  0.00    +0.000 OA
ATOM      2  N   UNL     1     -31.734  99.970  16.138  0.00  0.00    +0.000 N 
ATOM      3  C   UNL     1     -31.298 100.583  17.301  0.00  0.00    +0.000 C 
ATOM      4  H   UNL     1     -30.991  99.521  15.607  0.00  0.00    +0.000 HD
ENDROOT
BRANCH   2   5
ATOM      5  CA  UNL     1     -33.025  99.281  16.125  0.00  0.00    +0.000 C 
BRANCH   5   8
ATOM      6  O   UNL     1     -31.829  97.250  15.593  0.00  0.00    +0.000 OA
ATOM      7  N   UNL     1     -33.325  97.019  17.224  0.00  0.00    +0.000 N 
ATOM      8  C   UNL     1     -32.684  97.790  16.303  0.00  0.00    +0.000 C 
ATOM      9  H   UNL     1     -32.956  96.074  17.228  0.00  0.00    +0.000 HD
BRANCH   7  10
ATOM     10  CA  UNL     1     -34.087  97.430  18.403  0.00  0.00    +0.000 C 
BRANCH  10  12
ATOM     11  O   UNL     1     -32.263  96.451  19.687  0.00  0.00    +0.000 OA
ATOM     12  C   UNL     1     -33.308  97.096  19.676  0.00  0.00    +0.000 C 
ENDBRANCH  10  12
BRANCH  10  13
ATOM     13  CB  UNL     1     -35.519  96.871  18.392  0.00  0.00    +0.000 C 
BRANCH  13  14
ATOM     14  CG  UNL     1     -36.677  97.882  18.236  0.00  0.00    +0.000 C 
ATOM     15  CD1 UNL     1     -36.624  99.032  19.241  0.00  0.00    +0.000 C 
ATOM     16  CD2 UNL     1     -36.668  98.449  16.812  0.00  0.00    +0.000 C 
ENDBRANCH  13  14
ENDBRANCH  10  13
ENDBRANCH   7  10
ENDBRANCH   5   8
BRANCH   5  17
ATOM     17  CB  UNL     1     -33.726  99.510  14.778  0.00  0.00    +0.000 C 
BRANCH  17  18
ATOM     18  CG  UNL     1     -34.252 100.943  14.563  0.00  0.00    +0.000 C 
ATOM     19  CD1 UNL     1     -33.411 101.725  13.554  0.00  0.00    +0.000 C 
ATOM     20  CD2 UNL     1     -35.705 100.893  14.082  0.00  0.00    +0.000 C 
ENDBRANCH  17  18
ENDBRANCH   5  17
ENDBRANCH   2   5
BRANCH   3  21
ATOM     21  CA  UNL     1     -29.830 101.072  17.263  0.00  0.00    +0.000 C 
BRANCH  21  23
ATOM     22  O   UNL     1     -28.196 102.655  18.935  0.00  0.00    +0.000 OA
ATOM     23  N   UNL     1     -29.121 100.610  18.464  0.00  0.00    +0.000 N 
ATOM     24  C   ACE A   0     -28.325 101.466  19.178  0.00  0.00    +0.000 C 
ATOM     25  H   UNL     1     -28.886  99.629  18.520  0.00  0.00    +0.000 HD
BRANCH  24  26
ATOM     26  O   UNL     1     -27.596 100.834  20.129  0.00  0.00    +0.000 OA
BRANCH  26  27
ATOM     27  C   UNL     1     -28.329  99.944  20.980  0.00  0.00    +0.000 C 
BRANCH  27  28
ATOM     28  C   UNL     1     -27.695  99.914  22.349  0.00  0.00    +0.000 A 
ATOM     29  C   UNL     1     -27.404 101.109  23.023  0.00  0.00    +0.000 A 
ATOM     30  C   UNL     1     -27.332  98.697  22.945  0.00  0.00    +0.000 A 
ATOM     31  C   UNL     1     -26.788 101.085  24.277  0.00  0.00    +0.000 A 
ATOM     32  C   UNL     1     -26.717  98.674  24.198  0.00  0.00    +0.000 A 
ATOM     33  C   UNL     1     -26.446  99.868  24.863  0.00  0.00    +0.000 A 
ENDBRANCH  27  28
ENDBRANCH  26  27
ENDBRANCH  24  26
ENDBRANCH  21  23
BRANCH  21  34
ATOM     34  CB  UNL     1     -29.101 100.571  16.003  0.00  0.00    +0.000 C 
BRANCH  34  35
ATOM     35  CG  UNL     1     -28.362 101.645  15.178  0.00  0.00    +0.000 C 
ATOM     36  CD1 UNL     1     -29.039 103.013  15.259  0.00  0.00    +0.000 C 
ATOM     37  CD2 UNL     1     -26.915 101.760  15.668  0.00  0.00    +0.000 C 
ENDBRANCH  34  35
ENDBRANCH  21  34
ENDBRANCH   3  21
TORSDOF 15
ENDMDL
MODEL 3
REMARK VINA RESULT:      -5.0     11.926     14.521
REMARK  Name = 
REMARK  21 active torsions:
REMARK  status: ('A' for Active; 'I' for Inactive)
REMARK    1  A    between atoms: O_3  and  C_27
REMARK    2  A    between atoms: O_3  and  C_28
REMARK    3  A    between atoms: N_6  and  CA_9
REMARK    4  A    between atoms: N_7  and  CA_15
REMARK    5  A    between atoms: N_8  and  CA_12
REMARK    6  A    between atoms: CA_9  and  CB_10
REMARK    7  A    between atoms: CA_9  and  C_16
REMARK    8  A    between atoms: CB_10  and  CG_11
REMARK    9  A    between atoms: CG_11  and  CD1_20
REMARK   10  A    between atoms: CG_11  and  CD2_21
REMARK   11  A    between atoms: CA_12  and  CB_13
REMARK   12  A    between atoms: CA_12  and  C_18
REMARK   13  A    between atoms: CB_13  and  CG_14
REMARK   14  A    between atoms: CG_14  and  CD1_22
REMARK   15  A    between atoms: CG_14  and  CD2_23
REMARK   16  A    between atoms: CA_15  and  CB_17
REMARK   17  A    between atoms: CA_15  and  C_26
REMARK   18  A    between atoms: CB_17  and  CG_19
REMARK   19  A    between atoms: CG_19  and  CD1_24
REMARK   20  A    between atoms: CG_19  and  CD2_25
REMARK   21  A    between atoms: C_28  and  C_29
REMARK                            x       y       z     vdW  Elec       q    Type
REMARK                         _______ _______ _______ _____ _____    ______ ____
ROOT
ATOM      1  O   UNL     1     -22.666  87.717  15.254  0.00  0.00    +0.000 OA
ATOM      2  N   UNL     1     -23.860  86.362  16.648  0.00  0.00    +0.000 N 
ATOM      3  C   UNL     1     -22.826  87.242  16.374  0.00  0.00    +0.000 C 
ATOM      4  H   UNL     1     -24.209  86.422  17.602  0.00  0.00    +0.000 HD
ENDROOT
BRANCH   2   5
ATOM      5  CA  UNL     1     -24.869  86.092  15.623  0.00  0.00    +0.000 C 
BRANCH   5   8
ATOM      6  O   UNL     1     -26.353  86.489  17.488  0.00  0.00    +0.000 OA
ATOM      7  N   UNL     1     -27.274  86.874  15.499  0.00  0.00    +0.000 N 
ATOM      8  C   UNL     1     -26.208  86.504  16.261  0.00  0.00    +0.000 C 
ATOM      9  H   UNL     1     -28.062  87.142  16.081  0.00  0.00    +0.000 HD
BRANCH   7  10
ATOM     10  CA  UNL     1     -27.306  87.322  14.107  0.00  0.00    +0.000 C 
BRANCH  10  12
ATOM     11  O   UNL     1     -27.672  89.724  14.279  0.00  0.00    +0.000 OA
ATOM     12  C   UNL     1     -26.910  88.796  14.020  0.00  0.00    +0.000 C 
ENDBRANCH  10  12
BRANCH  10  13
ATOM     13  CB  UNL     1     -28.644  87.001  13.424  0.00  0.00    +0.000 C 
BRANCH  13  14
ATOM     14  CG  UNL     1     -28.593  86.252  12.073  0.00  0.00    +0.000 C 
ATOM     15  CD1 UNL     1     -28.677  84.734  12.213  0.00  0.00    +0.000 C 
ATOM     16  CD2 UNL     1     -29.734  86.746  11.176  0.00  0.00    +0.000 C 
ENDBRANCH  13  14
ENDBRANCH  10  13
ENDBRANCH   7  10
ENDBRANCH   5   8
BRANCH   5  17
ATOM     17  CB  UNL     1     -24.880  84.594  15.282  0.00  0.00    +0.000 C 
BRANCH  17  18
ATOM     18  CG  UNL     1     -24.333  84.250  13.883  0.00  0.00    +0.000 C 
ATOM     19  CD1 UNL     1     -24.933  85.136  12.790  0.00  0.00    +0.000 C 
ATOM     20  CD2 UNL     1     -22.808  84.397  13.874  0.00  0.00    +0.000 C 
ENDBRANCH  17  18
ENDBRANCH   5  17
ENDBRANCH   2   5
BRANCH   3  21
ATOM     21  CA  UNL     1     -21.962  87.626  17.600  0.00  0.00    +0.000 C 
BRANCH  21  23
ATOM     22  O   UNL     1     -19.215  88.270  17.677  0.00  0.00    +0.000 OA
ATOM     23  N   UNL     1     -21.384  88.962  17.401  0.00  0.00    +0.000 N 
ATOM     24  C   ACE A   0     -20.032  89.159  17.498  0.00  0.00    +0.000 C 
ATOM     25  H   UNL     1     -21.968  89.760  17.608  0.00  0.00    +0.000 HD
BRANCH  24  26
ATOM     26  O   UNL     1     -19.691  90.470  17.487  0.00  0.00    +0.000 OA
BRANCH  26  27
ATOM     27  C   UNL     1     -20.775  91.392  17.649  0.00  0.00    +0.000 C 
BRANCH  27  28
ATOM     28  C   UNL     1     -20.552  92.225  18.888  0.00  0.00    +0.000 A 
ATOM     29  C   UNL     1     -19.297  92.793  19.145  0.00  0.00    +0.000 A 
ATOM     30  C   UNL     1     -21.576  92.395  19.831  0.00  0.00    +0.000 A 
ATOM     31  C   UNL     1     -19.079  93.537  20.306  0.00  0.00    +0.000 A 
ATOM     32  C   UNL     1     -21.358  93.139  20.991  0.00  0.00    +0.000 A 
ATOM     33  C   UNL     1     -20.109  93.711  21.228  0.00  0.00    +0.000 A 
ENDBRANCH  27  28
ENDBRANCH  26  27
ENDBRANCH  24  26
ENDBRANCH  21  23
BRANCH  21  34
ATOM     34  CB  UNL     1     -22.787  87.603  18.900  0.00  0.00    +0.000 C 
BRANCH  34  35
ATOM     35  CG  UNL     1     -21.980  87.675  20.213  0.00  0.00    +0.000 C 
ATOM     36  CD1 UNL     1     -22.233  88.971  20.984  0.00  0.00    +0.000 C 
ATOM     37  CD2 UNL     1     -22.336  86.475  21.097  0.00  0.00    +0.000 C 
ENDBRANCH  34  35
ENDBRANCH  21  34
ENDBRANCH   3  21
TORSDOF 15
ENDMDL
MODEL 4
REMARK VINA RESULT:      -4.9     16.262     19.434
REMARK  Name = 
REMARK  21 active torsions:
REMARK  status: ('A' for Active; 'I' for Inactive)
REMARK    1  A    between atoms: O_3  and  C_27
REMARK    2  A    between atoms: O_3  and  C_28
REMARK    3  A    between atoms: N_6  and  CA_9
REMARK    4  A    between atoms: N_7  and  CA_15
REMARK    5  A    between atoms: N_8  and  CA_12
REMARK    6  A    between atoms: CA_9  and  CB_10
REMARK    7  A    between atoms: CA_9  and  C_16
REMARK    8  A    between atoms: CB_10  and  CG_11
REMARK    9  A    between atoms: CG_11  and  CD1_20
REMARK   10  A    between atoms: CG_11  and  CD2_21
REMARK   11  A    between atoms: CA_12  and  CB_13
REMARK   12  A    between atoms: CA_12  and  C_18
REMARK   13  A    between atoms: CB_13  and  CG_14
REMARK   14  A    between atoms: CG_14  and  CD1_22
REMARK   15  A    between atoms: CG_14  and  CD2_23
REMARK   16  A    between atoms: CA_15  and  CB_17
REMARK   17  A    between atoms: CA_15  and  C_26
REMARK   18  A    between atoms: CB_17  and  CG_19
REMARK   19  A    between atoms: CG_19  and  CD1_24
REMARK   20  A    between atoms: CG_19  and  CD2_25
REMARK   21  A    between atoms: C_28  and  C_29
REMARK                            x       y       z     vdW  Elec       q    Type
REMARK                         _______ _______ _______ _____ _____    ______ ____
ROOT
ATOM      1  O   UNL     1     -36.829 106.540   3.780  0.00  0.00    +0.000 OA
ATOM      2  N   UNL     1     -36.214 105.012   2.201  0.00  0.00    +0.000 N 
ATOM      3  C   UNL     1     -35.952 106.061   3.067  0.00  0.00    +0.000 C 
ATOM      4  H   UNL     1     -35.421 104.392   2.055  0.00  0.00    +0.000 HD
ENDROOT
BRANCH   2   5
ATOM      5  CA  UNL     1     -37.526 104.366   2.225  0.00  0.00    +0.000 C 
BRANCH   5   8
ATOM      6  O   UNL     1     -36.148 102.428   2.654  0.00  0.00    +0.000 OA
ATOM      7  N   UNL     1     -38.249 102.219   3.357  0.00  0.00    +0.000 N 
ATOM      8  C   UNL     1     -37.263 102.948   2.765  0.00  0.00    +0.000 C 
ATOM      9  H   UNL     1     -37.896 101.324   3.680  0.00  0.00    +0.000 HD
BRANCH   7  10
ATOM     10  CA  UNL     1     -39.514 102.671   3.935  0.00  0.00    +0.000 C 
BRANCH  10  12
ATOM     11  O   UNL     1     -40.180 103.185   6.221  0.00  0.00    +0.000 OA
ATOM     12  C   UNL     1     -39.295 103.149   5.370  0.00  0.00    +0.000 C 
ENDBRANCH  10  12
BRANCH  10  13
ATOM     13  CB  UNL     1     -40.625 101.618   3.798  0.00  0.00    +0.000 C 
BRANCH  13  14
ATOM     14  CG  UNL     1     -41.590 101.753   2.599  0.00  0.00    +0.000 C 
ATOM     15  CD1 UNL     1     -40.926 101.500   1.247  0.00  0.00    +0.000 C 
ATOM     16  CD2 UNL     1     -42.763 100.783   2.780  0.00  0.00    +0.000 C 
ENDBRANCH  13  14
ENDBRANCH  10  13
ENDBRANCH   7  10
ENDBRANCH   5   8
BRANCH   5  17
ATOM     17  CB  UNL     1     -38.101 104.295   0.802  0.00  0.00    +0.000 C 
BRANCH  17  18
ATOM     18  CG  UNL     1     -37.508 105.323  -0.182  0.00  0.00    +0.000 C 
ATOM     19  CD1 UNL     1     -36.595 104.672  -1.221  0.00  0.00    +0.000 C 
ATOM     20  CD2 UNL     1     -38.641 106.066  -0.896  0.00  0.00    +0.000 C 
ENDBRANCH  17  18
ENDBRANCH   5  17
ENDBRANCH   2   5
BRANCH   3  21
ATOM     21  CA  UNL     1     -34.470 106.506   3.114  0.00  0.00    +0.000 C 
BRANCH  21  23
ATOM     22  O   UNL     1     -31.794 105.617   2.977  0.00  0.00    +0.000 OA
ATOM     23  N   UNL     1     -33.775 106.048   1.904  0.00  0.00    +0.000 N 
ATOM     24  C   ACE A   0     -32.458 105.673   1.954  0.00  0.00    +0.000 C 
ATOM     25  H   UNL     1     -34.107 106.393   1.014  0.00  0.00    +0.000 HD
BRANCH  24  26
ATOM     26  O   UNL     1     -31.922 105.472   0.727  0.00  0.00    +0.000 OA
BRANCH  26  27
ATOM     27  C   UNL     1     -32.103 106.542  -0.209  0.00  0.00    +0.000 C 
BRANCH  27  28
ATOM     28  C   UNL     1     -32.790 106.022  -1.448  0.00  0.00    +0.000 A 
ATOM     29  C   UNL     1     -32.700 104.666  -1.794  0.00  0.00    +0.000 A 
ATOM     30  C   UNL     1     -33.479 106.893  -2.305  0.00  0.00    +0.000 A 
ATOM     31  C   UNL     1     -33.309 104.189  -2.957  0.00  0.00    +0.000 A 
ATOM     32  C   UNL     1     -34.087 106.415  -3.467  0.00  0.00    +0.000 A 
ATOM     33  C   UNL     1     -34.002 105.062  -3.792  0.00  0.00    +0.000 A 
ENDBRANCH  27  28
ENDBRANCH  26  27
ENDBRANCH  24  26
ENDBRANCH  21  23
BRANCH  21  34
ATOM     34  CB  UNL     1     -34.345 108.035   3.240  0.00  0.00    +0.000 C 
BRANCH  34  35
ATOM     35  CG  UNL     1     -33.642 108.553   4.512  0.00  0.00    +0.000 C 
ATOM     36  CD1 UNL     1     -33.620 107.514   5.632  0.00  0.00    +0.000 C 
ATOM     37  CD2 UNL     1     -32.207 108.968   4.169  0.00  0.00    +0.000 C 
ENDBRANCH  34  35
ENDBRANCH  21  34
ENDBRANCH   3  21
TORSDOF 15
ENDMDL
MODEL 5
REMARK VINA RESULT:      -4.9      3.949      9.732
REMARK  Name = 
REMARK  21 active torsions:
REMARK  status: ('A' for Active; 'I' for Inactive)
REMARK    1  A    between atoms: O_3  and  C_27
REMARK    2  A    between atoms: O_3  and  C_28
REMARK    3  A    between atoms: N_6  and  CA_9
REMARK    4  A    between atoms: N_7  and  CA_15
REMARK    5  A    between atoms: N_8  and  CA_12
REMARK    6  A    between atoms: CA_9  and  CB_10
REMARK    7  A    between atoms: CA_9  and  C_16
REMARK    8  A    between atoms: CB_10  and  CG_11
REMARK    9  A    between atoms: CG_11  and  CD1_20
REMARK   10  A    between atoms: CG_11  and  CD2_21
REMARK   11  A    between atoms: CA_12  and  CB_13
REMARK   12  A    between atoms: CA_12  and  C_18
REMARK   13  A    between atoms: CB_13  and  CG_14
REMARK   14  A    between atoms: CG_14  and  CD1_22
REMARK   15  A    between atoms: CG_14  and  CD2_23
REMARK   16  A    between atoms: CA_15  and  CB_17
REMARK   17  A    between atoms: CA_15  and  C_26
REMARK   18  A    between atoms: CB_17  and  CG_19
REMARK   19  A    between atoms: CG_19  and  CD1_24
REMARK   20  A    between atoms: CG_19  and  CD2_25
REMARK   21  A    between atoms: C_28  and  C_29
REMARK                            x       y       z     vdW  Elec       q    Type
REMARK                         _______ _______ _______ _____ _____    ______ ____
ROOT
ATOM      1  O   UNL     1     -33.662 101.445  16.663  0.00  0.00    +0.000 OA
ATOM      2  N   UNL     1     -33.796  99.237  16.105  0.00  0.00    +0.000 N 
ATOM      3  C   UNL     1     -34.222 100.552  16.034  0.00  0.00    +0.000 C 
ATOM      4  H   UNL     1     -33.949  98.708  15.250  0.00  0.00    +0.000 HD
ENDROOT
BRANCH   2   5
ATOM      5  CA  UNL     1     -32.569  98.914  16.836  0.00  0.00    +0.000 C 
BRANCH   5   8
ATOM      6  O   UNL     1     -31.779  97.165  15.368  0.00  0.00    +0.000 OA
ATOM      7  N   UNL     1     -30.570  99.031  15.285  0.00  0.00    +0.000 N 
ATOM      8  C   UNL     1     -31.620  98.319  15.779  0.00  0.00    +0.000 C 
ATOM      9  H   UNL     1     -30.070  98.500  14.580  0.00  0.00    +0.000 HD
BRANCH   7  10
ATOM     10  CA  UNL     1     -30.344 100.476  15.301  0.00  0.00    +0.000 C 
BRANCH  10  12
ATOM     11  O   UNL     1     -32.104 100.684  13.630  0.00  0.00    +0.000 OA
ATOM     12  C   UNL     1     -31.080 101.137  14.136  0.00  0.00    +0.000 C 
ENDBRANCH  10  12
BRANCH  10  13
ATOM     13  CB  UNL     1     -28.849 100.829  15.366  0.00  0.00    +0.000 C 
BRANCH  13  14
ATOM     14  CG  UNL     1     -28.335 101.517  16.650  0.00  0.00    +0.000 C 
ATOM     15  CD1 UNL     1     -28.293 103.041  16.553  0.00  0.00    +0.000 C 
ATOM     16  CD2 UNL     1     -29.217 101.106  17.835  0.00  0.00    +0.000 C 
ENDBRANCH  13  14
ENDBRANCH  10  13
ENDBRANCH   7  10
ENDBRANCH   5   8
BRANCH   5  17
ATOM     17  CB  UNL     1     -32.868  97.877  17.928  0.00  0.00    +0.000 C 
BRANCH  17  18
ATOM     18  CG  UNL     1     -33.041  98.466  19.342  0.00  0.00    +0.000 C 
ATOM     19  CD1 UNL     1     -32.326  99.807  19.504  0.00  0.00    +0.000 C 
ATOM     20  CD2 UNL     1     -34.531  98.645  19.648  0.00  0.00    +0.000 C 
ENDBRANCH  17  18
ENDBRANCH   5  17
ENDBRANCH   2   5
BRANCH   3  21
ATOM     21  CA  UNL     1     -35.390 100.801  15.048  0.00  0.00    +0.000 C 
BRANCH  21  23
ATOM     22  O   UNL     1     -36.938 103.072  14.403  0.00  0.00    +0.000 OA
ATOM     23  N   UNL     1     -35.019 101.854  14.094  0.00  0.00    +0.000 N 
ATOM     24  C   ACE A   0     -35.872 102.894  13.835  0.00  0.00    +0.000 C 
ATOM     25  H   UNL     1     -34.375 101.610  13.355  0.00  0.00    +0.000 HD
BRANCH  24  26
ATOM     26  O   UNL     1     -35.466 103.659  12.793  0.00  0.00    +0.000 OA
BRANCH  26  27
ATOM     27  C   UNL     1     -35.293 105.052  13.080  0.00  0.00    +0.000 C 
BRANCH  27  28
ATOM     28  C   UNL     1     -36.119 105.874  12.120  0.00  0.00    +0.000 A 
ATOM     29  C   UNL     1     -37.484 105.607  11.949  0.00  0.00    +0.000 A 
ATOM     30  C   UNL     1     -35.524 106.877  11.340  0.00  0.00    +0.000 A 
ATOM     31  C   UNL     1     -38.243 106.344  11.037  0.00  0.00    +0.000 A 
ATOM     32  C   UNL     1     -36.283 107.613  10.429  0.00  0.00    +0.000 A 
ATOM     33  C   UNL     1     -37.643 107.347  10.278  0.00  0.00    +0.000 A 
ENDBRANCH  27  28
ENDBRANCH  26  27
ENDBRANCH  24  26
ENDBRANCH  21  23
BRANCH  21  34
ATOM     34  CB  UNL     1     -35.769  99.518  14.288  0.00  0.00    +0.000 C 
BRANCH  34  35
ATOM     35  CG  UNL     1     -37.279  99.223  14.168  0.00  0.00    +0.000 C 
ATOM     36  CD1 UNL     1     -38.058  99.652  15.411  0.00  0.00    +0.000 C 
ATOM     37  CD2 UNL     1     -37.843  99.939  12.937  0.00  0.00    +0.000 C 
ENDBRANCH  34  35
ENDBRANCH  21  34
ENDBRANCH   3  21
TORSDOF 15
ENDMDL
MODEL 6
REMARK VINA RESULT:      -4.9      9.812     14.443
REMARK  Name = 
REMARK  21 active torsions:
REMARK  status: ('A' for Active; 'I' for Inactive)
REMARK    1  A    between atoms: O_3  and  C_27
REMARK    2  A    between atoms: O_3  and  C_28
REMARK    3  A    between atoms: N_6  and  CA_9
REMARK    4  A    between atoms: N_7  and  CA_15
REMARK    5  A    between atoms: N_8  and  CA_12
REMARK    6  A    between atoms: CA_9  and  CB_10
REMARK    7  A    between atoms: CA_9  and  C_16
REMARK    8  A    between atoms: CB_10  and  CG_11
REMARK    9  A    between atoms: CG_11  and  CD1_20
REMARK   10  A    between atoms: CG_11  and  CD2_21
REMARK   11  A    between atoms: CA_12  and  CB_13
REMARK   12  A    between atoms: CA_12  and  C_18
REMARK   13  A    between atoms: CB_13  and  CG_14
REMARK   14  A    between atoms: CG_14  and  CD1_22
REMARK   15  A    between atoms: CG_14  and  CD2_23
REMARK   16  A    between atoms: CA_15  and  CB_17
REMARK   17  A    between atoms: CA_15  and  C_26
REMARK   18  A    between atoms: CB_17  and  CG_19
REMARK   19  A    between atoms: CG_19  and  CD1_24
REMARK   20  A    between atoms: CG_19  and  CD2_25
REMARK   21  A    between atoms: C_28  and  C_29
REMARK                            x       y       z     vdW  Elec       q    Type
REMARK                         _______ _______ _______ _____ _____    ______ ____
ROOT
ATOM      1  O   UNL     1     -32.551  88.670  16.787  0.00  0.00    +0.000 OA
ATOM      2  N   UNL     1     -31.259  86.954  17.555  0.00  0.00    +0.000 N 
ATOM      3  C   UNL     1     -31.442  88.248  17.098  0.00  0.00    +0.000 C 
ATOM      4  H   UNL     1     -30.496  86.856  18.220  0.00  0.00    +0.000 HD
ENDROOT
BRANCH   2   5
ATOM      5  CA  UNL     1     -32.425  86.105  17.803  0.00  0.00    +0.000 C 
BRANCH   5   8
ATOM      6  O   UNL     1     -31.830  86.453  20.119  0.00  0.00    +0.000 OA
ATOM      7  N   UNL     1     -34.017  86.243  19.768  0.00  0.00    +0.000 N 
ATOM      8  C   UNL     1     -32.739  86.285  19.300  0.00  0.00    +0.000 C 
ATOM      9  H   UNL     1     -34.044  86.409  20.769  0.00  0.00    +0.000 HD
BRANCH   7  10
ATOM     10  CA  UNL     1     -35.275  86.415  19.041  0.00  0.00    +0.000 C 
BRANCH  10  12
ATOM     11  O   UNL     1     -35.576  88.548  17.903  0.00  0.00    +0.000 OA
ATOM     12  C   UNL     1     -35.627  87.899  18.945  0.00  0.00    +0.000 C 
ENDBRANCH  10  12
BRANCH  10  13
ATOM     13  CB  UNL     1     -36.404  85.549  19.621  0.00  0.00    +0.000 C 
BRANCH  13  14
ATOM     14  CG  UNL     1     -37.389  84.901  18.623  0.00  0.00    +0.000 C 
ATOM     15  CD1 UNL     1     -38.857  85.154  18.959  0.00  0.00    +0.000 C 
ATOM     16  CD2 UNL     1     -37.093  85.416  17.210  0.00  0.00    +0.000 C 
ENDBRANCH  13  14
ENDBRANCH  10  13
ENDBRANCH   7  10
ENDBRANCH   5   8
BRANCH   5  17
ATOM     17  CB  UNL     1     -32.079  84.639  17.504  0.00  0.00    +0.000 C 
BRANCH  17  18
ATOM     18  CG  UNL     1     -33.144  83.880  16.689  0.00  0.00    +0.000 C 
ATOM     19  CD1 UNL     1     -34.156  83.161  17.581  0.00  0.00    +0.000 C 
ATOM     20  CD2 UNL     1     -33.884  84.858  15.771  0.00  0.00    +0.000 C 
ENDBRANCH  17  18
ENDBRANCH   5  17
ENDBRANCH   2   5
BRANCH   3  21
ATOM     21  CA  UNL     1     -30.161  89.119  17.096  0.00  0.00    +0.000 C 
BRANCH  21  23
ATOM     22  O   UNL     1     -28.353  87.076  16.373  0.00  0.00    +0.000 OA
ATOM     23  N   UNL     1     -29.476  88.993  15.803  0.00  0.00    +0.000 N 
ATOM     24  C   ACE A   0     -28.589  87.974  15.580  0.00  0.00    +0.000 C 
ATOM     25  H   UNL     1     -29.334  89.836  15.265  0.00  0.00    +0.000 HD
BRANCH  24  26
ATOM     26  O   UNL     1     -27.904  88.119  14.420  0.00  0.00    +0.000 OA
BRANCH  26  27
ATOM     27  C   UNL     1     -27.244  86.941  13.940  0.00  0.00    +0.000 C 
BRANCH  27  28
ATOM     28  C   UNL     1     -27.913  86.466  12.673  0.00  0.00    +0.000 A 
ATOM     29  C   UNL     1     -29.100  87.064  12.229  0.00  0.00    +0.000 A 
ATOM     30  C   UNL     1     -27.394  85.380  11.953  0.00  0.00    +0.000 A 
ATOM     31  C   UNL     1     -29.739  86.605  11.075  0.00  0.00    +0.000 A 
ATOM     32  C   UNL     1     -28.033  84.922  10.799  0.00  0.00    +0.000 A 
ATOM     33  C   UNL     1     -29.205  85.535  10.360  0.00  0.00    +0.000 A 
ENDBRANCH  27  28
ENDBRANCH  26  27
ENDBRANCH  24  26
ENDBRANCH  21  23
BRANCH  21  34
ATOM     34  CB  UNL     1     -30.486  90.598  17.372  0.00  0.00    +0.000 C 
BRANCH  34  35
ATOM     35  CG  UNL     1     -31.027  90.920  18.780  0.00  0.00    +0.000 C 
ATOM     36  CD1 UNL     1     -30.179  90.298  19.889  0.00  0.00    +0.000 C 
ATOM     37  CD2 UNL     1     -31.084  92.440  18.971  0.00  0.00    +0.000 C 
ENDBRANCH  34  35
ENDBRANCH  21  34
ENDBRANCH   3  21
TORSDOF 15
ENDMDL
MODEL 7
REMARK VINA RESULT:      -4.8     19.124     25.088
REMARK  Name = 
REMARK  21 active torsions:
REMARK  status: ('A' for Active; 'I' for Inactive)
REMARK    1  A    between atoms: O_3  and  C_27
REMARK    2  A    between atoms: O_3  and  C_28
REMARK    3  A    between atoms: N_6  and  CA_9
REMARK    4  A    between atoms: N_7  and  CA_15
REMARK    5  A    between atoms: N_8  and  CA_12
REMARK    6  A    between atoms: CA_9  and  CB_10
REMARK    7  A    between atoms: CA_9  and  C_16
REMARK    8  A    between atoms: CB_10  and  CG_11
REMARK    9  A    between atoms: CG_11  and  CD1_20
REMARK   10  A    between atoms: CG_11  and  CD2_21
REMARK   11  A    between atoms: CA_12  and  CB_13
REMARK   12  A    between atoms: CA_12  and  C_18
REMARK   13  A    between atoms: CB_13  and  CG_14
REMARK   14  A    between atoms: CG_14  and  CD1_22
REMARK   15  A    between atoms: CG_14  and  CD2_23
REMARK   16  A    between atoms: CA_15  and  CB_17
REMARK   17  A    between atoms: CA_15  and  C_26
REMARK   18  A    between atoms: CB_17  and  CG_19
REMARK   19  A    between atoms: CG_19  and  CD1_24
REMARK   20  A    between atoms: CG_19  and  CD2_25
REMARK   21  A    between atoms: C_28  and  C_29
REMARK                            x       y       z     vdW  Elec       q    Type
REMARK                         _______ _______ _______ _____ _____    ______ ____
ROOT
ATOM      1  O   UNL     1     -44.023 103.993  -0.064  0.00  0.00    +0.000 OA
ATOM      2  N   UNL     1     -43.936 101.719  -0.230  0.00  0.00    +0.000 N 
ATOM      3  C   UNL     1     -44.283 102.975  -0.699  0.00  0.00    +0.000 C 
ATOM      4  H   UNL     1     -43.728 101.049  -0.967  0.00  0.00    +0.000 HD
ENDROOT
BRANCH   2   5
ATOM      5  CA  UNL     1     -43.125 101.599   0.982  0.00  0.00    +0.000 C 
BRANCH   5   8
ATOM      6  O   UNL     1     -41.667 100.383  -0.513  0.00  0.00    +0.000 OA
ATOM      7  N   UNL     1     -40.609 101.381   1.172  0.00  0.00    +0.000 N 
ATOM      8  C   UNL     1     -41.755 101.090   0.496  0.00  0.00    +0.000 C 
ATOM      9  H   UNL     1     -39.799 100.993   0.698  0.00  0.00    +0.000 HD
BRANCH   7  10
ATOM     10  CA  UNL     1     -40.353 102.442   2.146  0.00  0.00    +0.000 C 
BRANCH  10  12
ATOM     11  O   UNL     1     -39.446 103.839   0.368  0.00  0.00    +0.000 OA
ATOM     12  C   UNL     1     -40.068 103.759   1.425  0.00  0.00    +0.000 C 
ENDBRANCH  10  12
BRANCH  10  13
ATOM     13  CB  UNL     1     -39.270 102.048   3.163  0.00  0.00    +0.000 C 
BRANCH  13  14
ATOM     14  CG  UNL     1     -38.083 103.019   3.350  0.00  0.00    +0.000 C 
ATOM     15  CD1 UNL     1     -37.796 103.359   4.811  0.00  0.00    +0.000 C 
ATOM     16  CD2 UNL     1     -36.828 102.415   2.711  0.00  0.00    +0.000 C 
ENDBRANCH  13  14
ENDBRANCH  10  13
ENDBRANCH   7  10
ENDBRANCH   5   8
BRANCH   5  17
ATOM     17  CB  UNL     1     -43.762 100.582   1.940  0.00  0.00    +0.000 C 
BRANCH  17  18
ATOM     18  CG  UNL     1     -43.968 101.097   3.378  0.00  0.00    +0.000 C 
ATOM     19  CD1 UNL     1     -42.754 100.831   4.269  0.00  0.00    +0.000 C 
ATOM     20  CD2 UNL     1     -44.259 102.600   3.351  0.00  0.00    +0.000 C 
ENDBRANCH  17  18
ENDBRANCH   5  17
ENDBRANCH   2   5
BRANCH   3  21
ATOM     21  CA  UNL     1     -44.936 102.984  -2.103  0.00  0.00    +0.000 C 
BRANCH  21  23
ATOM     22  O   UNL     1     -44.478 101.944  -4.687  0.00  0.00    +0.000 OA
ATOM     23  N   UNL     1     -45.200 101.605  -2.537  0.00  0.00    +0.000 N 
ATOM     24  C   ACE A   0     -44.971 101.225  -3.832  0.00  0.00    +0.000 C 
ATOM     25  H   UNL     1     -45.907 101.085  -2.037  0.00  0.00    +0.000 HD
BRANCH  24  26
ATOM     26  O   UNL     1     -45.452  99.989  -4.109  0.00  0.00    +0.000 OA
BRANCH  26  27
ATOM     27  C   UNL     1     -46.665  99.955  -4.871  0.00  0.00    +0.000 C 
BRANCH  27  28
ATOM     28  C   UNL     1     -47.679  99.083  -4.171  0.00  0.00    +0.000 A 
ATOM     29  C   UNL     1     -48.422  98.139  -4.893  0.00  0.00    +0.000 A 
ATOM     30  C   UNL     1     -47.938  99.243  -2.802  0.00  0.00    +0.000 A 
ATOM     31  C   UNL     1     -49.384  97.353  -4.253  0.00  0.00    +0.000 A 
ATOM     32  C   UNL     1     -48.900  98.458  -2.164  0.00  0.00    +0.000 A 
ATOM     33  C   UNL     1     -49.622  97.513  -2.889  0.00  0.00    +0.000 A 
ENDBRANCH  27  28
ENDBRANCH  26  27
ENDBRANCH  24  26
ENDBRANCH  21  23
BRANCH  21  34
ATOM     34  CB  UNL     1     -46.245 103.793  -2.110  0.00  0.00    +0.000 C 
BRANCH  34  35
ATOM     35  CG  UNL     1     -47.549 102.969  -2.063  0.00  0.00    +0.000 C 
ATOM     36  CD1 UNL     1     -48.381 103.263  -0.815  0.00  0.00    +0.000 C 
ATOM     37  CD2 UNL     1     -48.383 103.261  -3.315  0.00  0.00    +0.000 C 
ENDBRANCH  34  35
ENDBRANCH  21  34
ENDBRANCH   3  21
TORSDOF 15
ENDMDL
MODEL 8
REMARK VINA RESULT:      -4.8     25.261     27.281
REMARK  Name = 
REMARK  21 active torsions:
REMARK  status: ('A' for Active; 'I' for Inactive)
REMARK    1  A    between atoms: O_3  and  C_27
REMARK    2  A    between atoms: O_3  and  C_28
REMARK    3  A    between atoms: N_6  and  CA_9
REMARK    4  A    between atoms: N_7  and  CA_15
REMARK    5  A    between atoms: N_8  and  CA_12
REMARK    6  A    between atoms: CA_9  and  CB_10
REMARK    7  A    between atoms: CA_9  and  C_16
REMARK    8  A    between atoms: CB_10  and  CG_11
REMARK    9  A    between atoms: CG_11  and  CD1_20
REMARK   10  A    between atoms: CG_11  and  CD2_21
REMARK   11  A    between atoms: CA_12  and  CB_13
REMARK   12  A    between atoms: CA_12  and  C_18
REMARK   13  A    between atoms: CB_13  and  CG_14
REMARK   14  A    between atoms: CG_14  and  CD1_22
REMARK   15  A    between atoms: CG_14  and  CD2_23
REMARK   16  A    between atoms: CA_15  and  CB_17
REMARK   17  A    between atoms: CA_15  and  C_26
REMARK   18  A    between atoms: CB_17  and  CG_19
REMARK   19  A    between atoms: CG_19  and  CD1_24
REMARK   20  A    between atoms: CG_19  and  CD2_25
REMARK   21  A    between atoms: C_28  and  C_29
REMARK                            x       y       z     vdW  Elec       q    Type
REMARK                         _______ _______ _______ _____ _____    ______ ____
ROOT
ATOM      1  O   UNL     1     -41.881  78.538   2.634  0.00  0.00    +0.000 OA
ATOM      2  N   UNL     1     -41.260  80.271   3.981  0.00  0.00    +0.000 N 
ATOM      3  C   UNL     1     -40.995  79.273   3.059  0.00  0.00    +0.000 C 
ATOM      4  H   UNL     1     -40.654  81.084   3.892  0.00  0.00    +0.000 HD
ENDROOT
BRANCH   2   5
ATOM      5  CA  UNL     1     -42.644  80.554   4.362  0.00  0.00    +0.000 C 
BRANCH   5   8
ATOM      6  O   UNL     1     -41.628  82.680   4.894  0.00  0.00    +0.000 OA
ATOM      7  N   UNL     1     -43.846  82.752   4.733  0.00  0.00    +0.000 N 
ATOM      8  C   UNL     1     -42.674  82.062   4.671  0.00  0.00    +0.000 C 
ATOM      9  H   UNL     1     -43.680  83.736   4.917  0.00  0.00    +0.000 HD
BRANCH   7  10
ATOM     10  CA  UNL     1     -45.157  82.399   4.187  0.00  0.00    +0.000 C 
BRANCH  10  12
ATOM     11  O   UNL     1     -44.929  84.281   2.656  0.00  0.00    +0.000 OA
ATOM     12  C   UNL     1     -45.416  83.179   2.898  0.00  0.00    +0.000 C 
ENDBRANCH  10  12
BRANCH  10  13
ATOM     13  CB  UNL     1     -46.277  82.541   5.229  0.00  0.00    +0.000 C 
BRANCH  13  14
ATOM     14  CG  UNL     1     -45.988  83.412   6.472  0.00  0.00    +0.000 C 
ATOM     15  CD1 UNL     1     -47.215  84.154   6.997  0.00  0.00    +0.000 C 
ATOM     16  CD2 UNL     1     -45.408  82.533   7.585  0.00  0.00    +0.000 C 
ENDBRANCH  13  14
ENDBRANCH  10  13
ENDBRANCH   7  10
ENDBRANCH   5   8
BRANCH   5  17
ATOM     17  CB  UNL     1     -43.019  79.746   5.613  0.00  0.00    +0.000 C 
BRANCH  17  18
ATOM     18  CG  UNL     1     -44.253  78.838   5.445  0.00  0.00    +0.000 C 
ATOM     19  CD1 UNL     1     -43.891  77.352   5.480  0.00  0.00    +0.000 C 
ATOM     20  CD2 UNL     1     -45.269  79.138   6.552  0.00  0.00    +0.000 C 
ENDBRANCH  17  18
ENDBRANCH   5  17
ENDBRANCH   2   5
BRANCH   3  21
ATOM     21  CA  UNL     1     -39.529  79.223   2.563  0.00  0.00    +0.000 C 
BRANCH  21  23
ATOM     22  O   UNL     1     -39.645  80.750   0.192  0.00  0.00    +0.000 OA
ATOM     23  N   UNL     1     -39.016  80.589   2.391  0.00  0.00    +0.000 N 
ATOM     24  C   ACE A   0     -39.097  81.218   1.177  0.00  0.00    +0.000 C 
ATOM     25  H   UNL     1     -38.267  80.887   3.000  0.00  0.00    +0.000 HD
BRANCH  24  26
ATOM     26  O   UNL     1     -38.404  82.381   1.142  0.00  0.00    +0.000 OA
BRANCH  26  27
ATOM     27  C   UNL     1     -37.690  82.638  -0.074  0.00  0.00    +0.000 C 
BRANCH  27  28
ATOM     28  C   UNL     1     -38.097  83.982  -0.627  0.00  0.00    +0.000 A 
ATOM     29  C   UNL     1     -39.410  84.202  -1.065  0.00  0.00    +0.000 A 
ATOM     30  C   UNL     1     -37.156  85.013  -0.767  0.00  0.00    +0.000 A 
ATOM     31  C   UNL     1     -39.780  85.435  -1.607  0.00  0.00    +0.000 A 
ATOM     32  C   UNL     1     -37.527  86.245  -1.309  0.00  0.00    +0.000 A 
ATOM     33  C   UNL     1     -38.839  86.456  -1.728  0.00  0.00    +0.000 A 
ENDBRANCH  27  28
ENDBRANCH  26  27
ENDBRANCH  24  26
ENDBRANCH  21  23
BRANCH  21  34
ATOM     34  CB  UNL     1     -38.628  78.448   3.542  0.00  0.00    +0.000 C 
BRANCH  34  35
ATOM     35  CG  UNL     1     -37.807  79.304   4.528  0.00  0.00    +0.000 C 
ATOM     36  CD1 UNL     1     -38.201  79.058   5.985  0.00  0.00    +0.000 C 
ATOM     37  CD2 UNL     1     -36.315  79.005   4.344  0.00  0.00    +0.000 C 
ENDBRANCH  34  35
ENDBRANCH  21  34
ENDBRANCH   3  21
TORSDOF 15
ENDMDL
MODEL 9
REMARK VINA RESULT:      -4.8     10.465     15.008
REMARK  Name = 
REMARK  21 active torsions:
REMARK  status: ('A' for Active; 'I' for Inactive)
REMARK    1  A    between atoms: O_3  and  C_27
REMARK    2  A    between atoms: O_3  and  C_28
REMARK    3  A    between atoms: N_6  and  CA_9
REMARK    4  A    between atoms: N_7  and  CA_15
REMARK    5  A    between atoms: N_8  and  CA_12
REMARK    6  A    between atoms: CA_9  and  CB_10
REMARK    7  A    between atoms: CA_9  and  C_16
REMARK    8  A    between atoms: CB_10  and  CG_11
REMARK    9  A    between atoms: CG_11  and  CD1_20
REMARK   10  A    between atoms: CG_11  and  CD2_21
REMARK   11  A    between atoms: CA_12  and  CB_13
REMARK   12  A    between atoms: CA_12  and  C_18
REMARK   13  A    between atoms: CB_13  and  CG_14
REMARK   14  A    between atoms: CG_14  and  CD1_22
REMARK   15  A    between atoms: CG_14  and  CD2_23
REMARK   16  A    between atoms: CA_15  and  CB_17
REMARK   17  A    between atoms: CA_15  and  C_26
REMARK   18  A    between atoms: CB_17  and  CG_19
REMARK   19  A    between atoms: CG_19  and  CD1_24
REMARK   20  A    between atoms: CG_19  and  CD2_25
REMARK   21  A    between atoms: C_28  and  C_29
REMARK                            x       y       z     vdW  Elec       q    Type
REMARK                         _______ _______ _______ _____ _____    ______ ____
ROOT
ATOM      1  O   UNL     1     -30.616  86.472  19.020  0.00  0.00    +0.000 OA
ATOM      2  N   UNL     1     -32.298  87.001  17.572  0.00  0.00    +0.000 N 
ATOM      3  C   UNL     1     -31.071  87.233  18.172  0.00  0.00    +0.000 C 
ATOM      4  H   UNL     1     -32.357  87.338  16.614  0.00  0.00    +0.000 HD
ENDROOT
BRANCH   2   5
ATOM      5  CA  UNL     1     -33.013  85.755  17.850  0.00  0.00    +0.000 C 
BRANCH   5   8
ATOM      6  O   UNL     1     -34.434  85.732  15.895  0.00  0.00    +0.000 OA
ATOM      7  N   UNL     1     -32.815  84.206  15.856  0.00  0.00    +0.000 N 
ATOM      8  C   UNL     1     -33.460  85.236  16.470  0.00  0.00    +0.000 C 
ATOM      9  H   UNL     1     -33.220  84.014  14.946  0.00  0.00    +0.000 HD
BRANCH   7  10
ATOM     10  CA  UNL     1     -31.473  83.676  16.101  0.00  0.00    +0.000 C 
BRANCH  10  12
ATOM     11  O   UNL     1     -30.284  83.163  18.165  0.00  0.00    +0.000 OA
ATOM     12  C   UNL     1     -31.348  83.214  17.553  0.00  0.00    +0.000 C 
ENDBRANCH  10  12
BRANCH  10  13
ATOM     13  CB  UNL     1     -30.374  84.660  15.671  0.00  0.00    +0.000 C 
BRANCH  13  14
ATOM     14  CG  UNL     1     -29.257  84.121  14.750  0.00  0.00    +0.000 C 
ATOM     15  CD1 UNL     1     -27.901  83.997  15.442  0.00  0.00    +0.000 C 
ATOM     16  CD2 UNL     1     -29.673  82.754  14.194  0.00  0.00    +0.000 C 
ENDBRANCH  13  14
ENDBRANCH  10  13
ENDBRANCH   7  10
ENDBRANCH   5   8
BRANCH   5  17
ATOM     17  CB  UNL     1     -34.236  86.039  18.734  0.00  0.00    +0.000 C 
BRANCH  17  18
ATOM     18  CG  UNL     1     -34.049  85.683  20.222  0.00  0.00    +0.000 C 
ATOM     19  CD1 UNL     1     -33.096  84.505  20.422  0.00  0.00    +0.000 C 
ATOM     20  CD2 UNL     1     -33.515  86.902  20.981  0.00  0.00    +0.000 C 
ENDBRANCH  17  18
ENDBRANCH   5  17
ENDBRANCH   2   5
BRANCH   3  21
ATOM     21  CA  UNL     1     -30.308  88.465  17.627  0.00  0.00    +0.000 C 
BRANCH  21  23
ATOM     22  O   UNL     1     -27.917  87.564  16.426  0.00  0.00    +0.000 OA
ATOM     23  N   UNL     1     -30.073  88.307  16.185  0.00  0.00    +0.000 N 
ATOM     24  C   ACE A   0     -28.854  87.894  15.717  0.00  0.00    +0.000 C 
ATOM     25  H   UNL     1     -30.625  88.873  15.557  0.00  0.00    +0.000 HD
BRANCH  24  26
ATOM     26  O   UNL     1     -28.748  87.993  14.370  0.00  0.00    +0.000 OA
BRANCH  26  27
ATOM     27  C   UNL     1     -27.605  87.352  13.792  0.00  0.00    +0.000 C 
BRANCH  27  28
ATOM     28  C   UNL     1     -28.022  86.590  12.557  0.00  0.00    +0.000 A 
ATOM     29  C   UNL     1     -29.247  86.864  11.933  0.00  0.00    +0.000 A 
ATOM     30  C   UNL     1     -27.221  85.557  12.048  0.00  0.00    +0.000 A 
ATOM     31  C   UNL     1     -29.649  86.138  10.810  0.00  0.00    +0.000 A 
ATOM     32  C   UNL     1     -27.624  84.832  10.925  0.00  0.00    +0.000 A 
ATOM     33  C   UNL     1     -28.838  85.124  10.306  0.00  0.00    +0.000 A 
ENDBRANCH  27  28
ENDBRANCH  26  27
ENDBRANCH  24  26
ENDBRANCH  21  23
BRANCH  21  34
ATOM     34  CB  UNL     1     -31.082  89.769  17.889  0.00  0.00    +0.000 C 
BRANCH  34  35
ATOM     35  CG  UNL     1     -30.372  90.809  18.780  0.00  0.00    +0.000 C 
ATOM     36  CD1 UNL     1     -31.088  92.160  18.786  0.00  0.00    +0.000 C 
ATOM     37  CD2 UNL     1     -30.276  90.274  20.213  0.00  0.00    +0.000 C 
ENDBRANCH  34  35
ENDBRANCH  21  34
ENDBRANCH   3  21
TORSDOF 15
ENDMDL
