MODEL 1
REMARK VINA RESULT:      -5.4      0.000      0.000
REMARK  Name = Monobenzone.pdbqt.pdb
REMARK  4 active torsions:
REMARK  status: ('A' for Active; 'I' for Inactive)
REMARK    1  A    between atoms: C_1  and  O_7
REMARK    2  A    between atoms: C_6  and  O_15
REMARK    3  A    between atoms: O_7  and  C_8
REMARK    4  A    between atoms: C_8  and  C_9
REMARK                            x       y       z     vdW  Elec       q    Type
REMARK                         _______ _______ _______ _____ _____    ______ ____
ROOT
ATOM      1  C   UNL     1     -35.632 101.553  13.209  0.00  0.00    +0.000 A 
ATOM      2  C   UNL     1     -36.651 102.427  13.598  0.00  0.00    +0.000 A 
ATOM      3  C   UNL     1     -35.948 100.247  12.833  0.00  0.00    +0.000 A 
ATOM      4  C   UNL     1     -37.976 101.998  13.610  0.00  0.00    +0.000 A 
ATOM      5  C   UNL     1     -37.271  99.813  12.844  0.00  0.00    +0.000 A 
ATOM      6  C   UNL     1     -38.275 100.693  13.232  0.00  0.00    +0.000 A 
ENDROOT
BRANCH   6   7
ATOM      7  O   UNL     1     -39.564 100.247  13.234  0.00  0.00    +0.000 OA
ATOM      8  H   UNL     1     -40.097 100.848  12.685  0.00  0.00    +0.000 HD
ENDBRANCH   6   7
BRANCH   1   9
ATOM      9  O   UNL     1     -34.301 101.884  13.165  0.00  0.00    +0.000 OA
BRANCH   9  10
ATOM     10  C   UNL     1     -33.492 101.030  13.788  0.00  0.00    +0.000 C 
BRANCH  10  11
ATOM     11  C   UNL     1     -32.628 100.122  14.469  0.00  0.00    +0.000 A 
ATOM     12  C   UNL     1     -33.169  99.101  15.246  0.00  0.00    +0.000 A 
ATOM     13  C   UNL     1     -32.324  98.218  15.916  0.00  0.00    +0.000 A 
ATOM     14  C   UNL     1     -30.943  98.358  15.807  0.00  0.00    +0.000 A 
ATOM     15  C   UNL     1     -30.404  99.380  15.028  0.00  0.00    +0.000 A 
ATOM     16  C   UNL     1     -31.246 100.264  14.359  0.00  0.00    +0.000 A 
ENDBRANCH  10  11
ENDBRANCH   9  10
ENDBRANCH   1   9
TORSDOF 4
ENDMDL
MODEL 2
REMARK VINA RESULT:      -5.4      1.561      1.992
REMARK  Name = Monobenzone.pdbqt.pdb
REMARK  4 active torsions:
REMARK  status: ('A' for Active; 'I' for Inactive)
REMARK    1  A    between atoms: C_1  and  O_7
REMARK    2  A    between atoms: C_6  and  O_15
REMARK    3  A    between atoms: O_7  and  C_8
REMARK    4  A    between atoms: C_8  and  C_9
REMARK                            x       y       z     vdW  Elec       q    Type
REMARK                         _______ _______ _______ _____ _____    ______ ____
ROOT
ATOM      1  C   UNL     1     -36.429  99.645  14.896  0.00  0.00    +0.000 A 
ATOM      2  C   UNL     1     -37.440 100.520  15.302  0.00  0.00    +0.000 A 
ATOM      3  C   UNL     1     -36.163  99.479  13.536  0.00  0.00    +0.000 A 
ATOM      4  C   UNL     1     -38.179 101.225  14.356  0.00  0.00    +0.000 A 
ATOM      5  C   UNL     1     -36.899 100.181  12.586  0.00  0.00    +0.000 A 
ATOM      6  C   UNL     1     -37.902 101.049  13.004  0.00  0.00    +0.000 A 
ENDROOT
BRANCH   6   7
ATOM      7  O   UNL     1     -38.611 101.727  12.055  0.00  0.00    +0.000 OA
ATOM      8  H   UNL     1     -38.456 102.679  12.180  0.00  0.00    +0.000 HD
ENDBRANCH   6   7
BRANCH   1   9
ATOM      9  O   UNL     1     -35.649  98.909  15.753  0.00  0.00    +0.000 OA
BRANCH   9  10
ATOM     10  C   UNL     1     -34.338  99.034  15.562  0.00  0.00    +0.000 C 
BRANCH  10  11
ATOM     11  C   UNL     1     -32.930  99.166  15.373  0.00  0.00    +0.000 A 
ATOM     12  C   UNL     1     -32.063  98.244  15.955  0.00  0.00    +0.000 A 
ATOM     13  C   UNL     1     -30.688  98.376  15.775  0.00  0.00    +0.000 A 
ATOM     14  C   UNL     1     -30.183  99.429  15.015  0.00  0.00    +0.000 A 
ATOM     15  C   UNL     1     -31.053 100.350  14.434  0.00  0.00    +0.000 A 
ATOM     16  C   UNL     1     -32.427 100.219  14.613  0.00  0.00    +0.000 A 
ENDBRANCH  10  11
ENDBRANCH   9  10
ENDBRANCH   1   9
TORSDOF 4
ENDMDL
MODEL 3
REMARK VINA RESULT:      -5.2      2.304      6.343
REMARK  Name = Monobenzone.pdbqt.pdb
REMARK  4 active torsions:
REMARK  status: ('A' for Active; 'I' for Inactive)
REMARK    1  A    between atoms: C_1  and  O_7
REMARK    2  A    between atoms: C_6  and  O_15
REMARK    3  A    between atoms: O_7  and  C_8
REMARK    4  A    between atoms: C_8  and  C_9
REMARK                            x       y       z     vdW  Elec       q    Type
REMARK                         _______ _______ _______ _____ _____    ______ ____
ROOT
ATOM      1  C   UNL     1     -32.783  99.130  15.726  0.00  0.00    +0.000 A 
ATOM      2  C   UNL     1     -32.572 100.332  15.046  0.00  0.00    +0.000 A 
ATOM      3  C   UNL     1     -31.698  98.303  16.022  0.00  0.00    +0.000 A 
ATOM      4  C   UNL     1     -31.286 100.706  14.665  0.00  0.00    +0.000 A 
ATOM      5  C   UNL     1     -30.410  98.672  15.642  0.00  0.00    +0.000 A 
ATOM      6  C   UNL     1     -30.214  99.872  14.966  0.00  0.00    +0.000 A 
ENDROOT
BRANCH   6   7
ATOM      7  O   UNL     1     -28.944 100.213  14.605  0.00  0.00    +0.000 OA
ATOM      8  H   UNL     1     -28.669 100.978  15.140  0.00  0.00    +0.000 HD
ENDBRANCH   6   7
BRANCH   1   9
ATOM      9  O   UNL     1     -34.010  98.678  16.142  0.00  0.00    +0.000 OA
BRANCH   9  10
ATOM     10  C   UNL     1     -35.032  99.050  15.375  0.00  0.00    +0.000 C 
BRANCH  10  11
ATOM     11  C   UNL     1     -36.131  99.432  14.550  0.00  0.00    +0.000 A 
ATOM     12  C   UNL     1     -37.434  99.291  15.020  0.00  0.00    +0.000 A 
ATOM     13  C   UNL     1     -38.507  99.660  14.211  0.00  0.00    +0.000 A 
ATOM     14  C   UNL     1     -38.274 100.169  12.936  0.00  0.00    +0.000 A 
ATOM     15  C   UNL     1     -36.969 100.310  12.468  0.00  0.00    +0.000 A 
ATOM     16  C   UNL     1     -35.896  99.941  13.274  0.00  0.00    +0.000 A 
ENDBRANCH  10  11
ENDBRANCH   9  10
ENDBRANCH   1   9
TORSDOF 4
ENDMDL
MODEL 4
REMARK VINA RESULT:      -5.2     12.102     14.551
REMARK  Name = Monobenzone.pdbqt.pdb
REMARK  4 active torsions:
REMARK  status: ('A' for Active; 'I' for Inactive)
REMARK    1  A    between atoms: C_1  and  O_7
REMARK    2  A    between atoms: C_6  and  O_15
REMARK    3  A    between atoms: O_7  and  C_8
REMARK    4  A    between atoms: C_8  and  C_9
REMARK                            x       y       z     vdW  Elec       q    Type
REMARK                         _______ _______ _______ _____ _____    ______ ____
ROOT
ATOM      1  C   UNL     1     -28.438  88.520  15.466  0.00  0.00    +0.000 A 
ATOM      2  C   UNL     1     -28.644  89.881  15.701  0.00  0.00    +0.000 A 
ATOM      3  C   UNL     1     -29.309  87.583  16.024  0.00  0.00    +0.000 A 
ATOM      4  C   UNL     1     -29.712  90.304  16.487  0.00  0.00    +0.000 A 
ATOM      5  C   UNL     1     -30.379  88.000  16.812  0.00  0.00    +0.000 A 
ATOM      6  C   UNL     1     -30.572  89.359  17.037  0.00  0.00    +0.000 A 
ENDROOT
BRANCH   6   7
ATOM      7  O   UNL     1     -31.626  89.745  17.811  0.00  0.00    +0.000 OA
ATOM      8  H   UNL     1     -32.101  88.947  18.102  0.00  0.00    +0.000 HD
ENDBRANCH   6   7
BRANCH   1   9
ATOM      9  O   UNL     1     -27.416  88.008  14.706  0.00  0.00    +0.000 OA
BRANCH   9  10
ATOM     10  C   UNL     1     -27.805  87.346  13.619  0.00  0.00    +0.000 C 
BRANCH  10  11
ATOM     11  C   UNL     1     -28.230  86.649  12.450  0.00  0.00    +0.000 A 
ATOM     12  C   UNL     1     -27.446  85.621  11.931  0.00  0.00    +0.000 A 
ATOM     13  C   UNL     1     -27.859  84.944  10.786  0.00  0.00    +0.000 A 
ATOM     14  C   UNL     1     -29.054  85.295  10.163  0.00  0.00    +0.000 A 
ATOM     15  C   UNL     1     -29.837  86.323  10.683  0.00  0.00    +0.000 A 
ATOM     16  C   UNL     1     -29.426  87.001  11.828  0.00  0.00    +0.000 A 
ENDBRANCH  10  11
ENDBRANCH   9  10
ENDBRANCH   1   9
TORSDOF 4
ENDMDL
MODEL 5
REMARK VINA RESULT:      -4.9     11.999     13.727
REMARK  Name = Monobenzone.pdbqt.pdb
REMARK  4 active torsions:
REMARK  status: ('A' for Active; 'I' for Inactive)
REMARK    1  A    between atoms: C_1  and  O_7
REMARK    2  A    between atoms: C_6  and  O_15
REMARK    3  A    between atoms: O_7  and  C_8
REMARK    4  A    between atoms: C_8  and  C_9
REMARK                            x       y       z     vdW  Elec       q    Type
REMARK                         _______ _______ _______ _____ _____    ______ ____
ROOT
ATOM      1  C   UNL     1     -41.157 101.661   1.429  0.00  0.00    +0.000 A 
ATOM      2  C   UNL     1     -41.717 100.679   0.608  0.00  0.00    +0.000 A 
ATOM      3  C   UNL     1     -40.973 102.953   0.935  0.00  0.00    +0.000 A 
ATOM      4  C   UNL     1     -42.091 100.985  -0.697  0.00  0.00    +0.000 A 
ATOM      5  C   UNL     1     -41.344 103.265  -0.371  0.00  0.00    +0.000 A 
ATOM      6  C   UNL     1     -41.901 102.277  -1.177  0.00  0.00    +0.000 A 
ENDROOT
BRANCH   6   7
ATOM      7  O   UNL     1     -42.258 102.606  -2.452  0.00  0.00    +0.000 OA
ATOM      8  H   UNL     1     -43.054 102.098  -2.687  0.00  0.00    +0.000 HD
ENDBRANCH   6   7
BRANCH   1   9
ATOM      9  O   UNL     1     -40.759 101.454   2.727  0.00  0.00    +0.000 OA
BRANCH   9  10
ATOM     10  C   UNL     1     -39.635 102.077   3.073  0.00  0.00    +0.000 C 
BRANCH  10  11
ATOM     11  C   UNL     1     -38.427 102.747   3.428  0.00  0.00    +0.000 A 
ATOM     12  C   UNL     1     -38.434 103.692   4.451  0.00  0.00    +0.000 A 
ATOM     13  C   UNL     1     -37.254 104.351   4.794  0.00  0.00    +0.000 A 
ATOM     14  C   UNL     1     -36.073 104.062   4.114  0.00  0.00    +0.000 A 
ATOM     15  C   UNL     1     -36.069 103.116   3.092  0.00  0.00    +0.000 A 
ATOM     16  C   UNL     1     -37.246 102.457   2.747  0.00  0.00    +0.000 A 
ENDBRANCH  10  11
ENDBRANCH   9  10
ENDBRANCH   1   9
TORSDOF 4
ENDMDL
MODEL 6
REMARK VINA RESULT:      -4.8     13.476     15.583
REMARK  Name = Monobenzone.pdbqt.pdb
REMARK  4 active torsions:
REMARK  status: ('A' for Active; 'I' for Inactive)
REMARK    1  A    between atoms: C_1  and  O_7
REMARK    2  A    between atoms: C_6  and  O_15
REMARK    3  A    between atoms: O_7  and  C_8
REMARK    4  A    between atoms: C_8  and  C_9
REMARK                            x       y       z     vdW  Elec       q    Type
REMARK                         _______ _______ _______ _____ _____    ______ ____
ROOT
ATOM      1  C   UNL     1     -22.234  99.840   6.638  0.00  0.00    +0.000 A 
ATOM      2  C   UNL     1     -23.118 100.685   7.312  0.00  0.00    +0.000 A 
ATOM      3  C   UNL     1     -21.121  99.328   7.307  0.00  0.00    +0.000 A 
ATOM      4  C   UNL     1     -22.893 101.017   8.646  0.00  0.00    +0.000 A 
ATOM      5  C   UNL     1     -20.890  99.657   8.640  0.00  0.00    +0.000 A 
ATOM      6  C   UNL     1     -21.780 100.500   9.299  0.00  0.00    +0.000 A 
ENDROOT
BRANCH   6   7
ATOM      7  O   UNL     1     -21.534 100.808  10.605  0.00  0.00    +0.000 OA
ATOM      8  H   UNL     1     -21.887 100.091  11.160  0.00  0.00    +0.000 HD
ENDBRANCH   6   7
BRANCH   1   9
ATOM      9  O   UNL     1     -22.373  99.457   5.327  0.00  0.00    +0.000 OA
BRANCH   9  10
ATOM     10  C   UNL     1     -22.867 100.392   4.521  0.00  0.00    +0.000 C 
BRANCH  10  11
ATOM     11  C   UNL     1     -23.406 101.384   3.648  0.00  0.00    +0.000 A 
ATOM     12  C   UNL     1     -24.084 102.478   4.179  0.00  0.00    +0.000 A 
ATOM     13  C   UNL     1     -24.615 103.444   3.326  0.00  0.00    +0.000 A 
ATOM     14  C   UNL     1     -24.466 103.313   1.947  0.00  0.00    +0.000 A 
ATOM     15  C   UNL     1     -23.786 102.218   1.420  0.00  0.00    +0.000 A 
ATOM     16  C   UNL     1     -23.256 101.252   2.270  0.00  0.00    +0.000 A 
ENDBRANCH  10  11
ENDBRANCH   9  10
ENDBRANCH   1   9
TORSDOF 4
ENDMDL
MODEL 7
REMARK VINA RESULT:      -4.6     11.163     13.170
REMARK  Name = Monobenzone.pdbqt.pdb
REMARK  4 active torsions:
REMARK  status: ('A' for Active; 'I' for Inactive)
REMARK    1  A    between atoms: C_1  and  O_7
REMARK    2  A    between atoms: C_6  and  O_15
REMARK    3  A    between atoms: O_7  and  C_8
REMARK    4  A    between atoms: C_8  and  C_9
REMARK                            x       y       z     vdW  Elec       q    Type
REMARK                         _______ _______ _______ _____ _____    ______ ____
ROOT
ATOM      1  C   UNL     1     -43.551 101.103   2.793  0.00  0.00    +0.000 A 
ATOM      2  C   UNL     1     -43.505 101.207   4.185  0.00  0.00    +0.000 A 
ATOM      3  C   UNL     1     -44.765 100.834   2.159  0.00  0.00    +0.000 A 
ATOM      4  C   UNL     1     -44.664 101.044   4.939  0.00  0.00    +0.000 A 
ATOM      5  C   UNL     1     -45.927 100.669   2.908  0.00  0.00    +0.000 A 
ATOM      6  C   UNL     1     -45.867 100.775   4.294  0.00  0.00    +0.000 A 
ENDROOT
BRANCH   6   7
ATOM      7  O   UNL     1     -47.018 100.610   5.007  0.00  0.00    +0.000 OA
ATOM      8  H   UNL     1     -46.801 100.665   5.954  0.00  0.00    +0.000 HD
ENDBRANCH   6   7
BRANCH   1   9
ATOM      9  O   UNL     1     -42.464 101.249   1.967  0.00  0.00    +0.000 OA
BRANCH   9  10
ATOM     10  C   UNL     1     -41.352 101.657   2.573  0.00  0.00    +0.000 C 
BRANCH  10  11
ATOM     11  C   UNL     1     -40.151 102.087   3.212  0.00  0.00    +0.000 A 
ATOM     12  C   UNL     1     -38.937 101.999   2.536  0.00  0.00    +0.000 A 
ATOM     13  C   UNL     1     -37.763 102.414   3.162  0.00  0.00    +0.000 A 
ATOM     14  C   UNL     1     -37.807 102.916   4.460  0.00  0.00    +0.000 A 
ATOM     15  C   UNL     1     -39.023 103.003   5.134  0.00  0.00    +0.000 A 
ATOM     16  C   UNL     1     -40.197 102.589   4.511  0.00  0.00    +0.000 A 
ENDBRANCH  10  11
ENDBRANCH   9  10
ENDBRANCH   1   9
TORSDOF 4
ENDMDL
MODEL 8
REMARK VINA RESULT:      -4.5     12.036     14.597
REMARK  Name = Monobenzone.pdbqt.pdb
REMARK  4 active torsions:
REMARK  status: ('A' for Active; 'I' for Inactive)
REMARK    1  A    between atoms: C_1  and  O_7
REMARK    2  A    between atoms: C_6  and  O_15
REMARK    3  A    between atoms: O_7  and  C_8
REMARK    4  A    between atoms: C_8  and  C_9
REMARK                            x       y       z     vdW  Elec       q    Type
REMARK                         _______ _______ _______ _____ _____    ______ ____
ROOT
ATOM      1  C   UNL     1     -30.215  88.710  17.088  0.00  0.00    +0.000 A 
ATOM      2  C   UNL     1     -29.967  90.080  16.970  0.00  0.00    +0.000 A 
ATOM      3  C   UNL     1     -29.580  87.815  16.226  0.00  0.00    +0.000 A 
ATOM      4  C   UNL     1     -29.089  90.552  15.998  0.00  0.00    +0.000 A 
ATOM      5  C   UNL     1     -28.703  88.282  15.251  0.00  0.00    +0.000 A 
ATOM      6  C   UNL     1     -28.464  89.648  15.145  0.00  0.00    +0.000 A 
ENDROOT
BRANCH   6   7
ATOM      7  O   UNL     1     -27.599  90.083  14.184  0.00  0.00    +0.000 OA
ATOM      8  H   UNL     1     -28.092  90.179  13.351  0.00  0.00    +0.000 HD
ENDBRANCH   6   7
BRANCH   1   9
ATOM      9  O   UNL     1     -31.062  88.151  18.014  0.00  0.00    +0.000 OA
BRANCH   9  10
ATOM     10  C   UNL     1     -31.864  87.202  17.536  0.00  0.00    +0.000 C 
BRANCH  10  11
ATOM     11  C   UNL     1     -32.712  86.181  17.015  0.00  0.00    +0.000 A 
ATOM     12  C   UNL     1     -32.155  85.002  16.525  0.00  0.00    +0.000 A 
ATOM     13  C   UNL     1     -32.984  84.006  16.011  0.00  0.00    +0.000 A 
ATOM     14  C   UNL     1     -34.364  84.191  15.989  0.00  0.00    +0.000 A 
ATOM     15  C   UNL     1     -34.918  85.372  16.480  0.00  0.00    +0.000 A 
ATOM     16  C   UNL     1     -34.092  86.368  16.994  0.00  0.00    +0.000 A 
ENDBRANCH  10  11
ENDBRANCH   9  10
ENDBRANCH   1   9
TORSDOF 4
ENDMDL
MODEL 9
REMARK VINA RESULT:      -4.4     19.534     20.322
REMARK  Name = Monobenzone.pdbqt.pdb
REMARK  4 active torsions:
REMARK  status: ('A' for Active; 'I' for Inactive)
REMARK    1  A    between atoms: C_1  and  O_7
REMARK    2  A    between atoms: C_6  and  O_15
REMARK    3  A    between atoms: O_7  and  C_8
REMARK    4  A    between atoms: C_8  and  C_9
REMARK                            x       y       z     vdW  Elec       q    Type
REMARK                         _______ _______ _______ _____ _____    ______ ____
ROOT
ATOM      1  C   UNL     1     -21.786  88.215   5.640  0.00  0.00    +0.000 A 
ATOM      2  C   UNL     1     -22.882  87.444   6.033  0.00  0.00    +0.000 A 
ATOM      3  C   UNL     1     -21.550  88.441   4.282  0.00  0.00    +0.000 A 
ATOM      4  C   UNL     1     -23.738  86.903   5.077  0.00  0.00    +0.000 A 
ATOM      5  C   UNL     1     -22.402  87.900   3.323  0.00  0.00    +0.000 A 
ATOM      6  C   UNL     1     -23.491  87.135   3.728  0.00  0.00    +0.000 A 
ENDROOT
BRANCH   6   7
ATOM      7  O   UNL     1     -24.312  86.617   2.771  0.00  0.00    +0.000 OA
ATOM      8  H   UNL     1     -23.760  86.287   2.041  0.00  0.00    +0.000 HD
ENDBRANCH   6   7
BRANCH   1   9
ATOM      9  O   UNL     1     -20.889  88.790   6.506  0.00  0.00    +0.000 OA
BRANCH   9  10
ATOM     10  C   UNL     1     -20.048  89.656   5.947  0.00  0.00    +0.000 C 
BRANCH  10  11
ATOM     11  C   UNL     1     -19.135  90.580   5.357  0.00  0.00    +0.000 A 
ATOM     12  C   UNL     1     -18.698  90.382   4.049  0.00  0.00    +0.000 A 
ATOM     13  C   UNL     1     -17.801  91.281   3.475  0.00  0.00    +0.000 A 
ATOM     14  C   UNL     1     -17.345  92.374   4.209  0.00  0.00    +0.000 A 
ATOM     15  C   UNL     1     -17.784  92.569   5.517  0.00  0.00    +0.000 A 
ATOM     16  C   UNL     1     -18.680  91.672   6.092  0.00  0.00    +0.000 A 
ENDBRANCH  10  11
ENDBRANCH   9  10
ENDBRANCH   1   9
TORSDOF 4
ENDMDL
