MODEL 1
REMARK VINA RESULT:      -5.8      0.000      0.000
REMARK  Name = 
REMARK  5 active torsions:
REMARK  status: ('A' for Active; 'I' for Inactive)
REMARK    1  A    between atoms: O_4  and  C_15
REMARK    2  A    between atoms: C_6  and  C_13
REMARK    3  A    between atoms: C_7  and  C_12
REMARK    4  A    between atoms: C_8  and  C_14
REMARK    5  A    between atoms: C_12  and  C_15
REMARK                            x       y       z     vdW  Elec       q    Type
REMARK                         _______ _______ _______ _____ _____    ______ ____
ROOT
ATOM      1  C   UNL     1     -28.306  86.126  11.927  0.00  0.00    +0.000 A 
ATOM      2  C   UNL     1     -27.983  87.325  14.040  0.00  0.00    +0.000 A 
ATOM      3  C   UNL     1     -26.964  85.690  11.974  0.00  0.00    +0.000 A 
ATOM      4  C   UNL     1     -28.797  86.942  12.966  0.00  0.00    +0.000 A 
ATOM      5  C   UNL     1     -26.654  86.895  14.067  0.00  0.00    +0.000 A 
ATOM      6  C   UNL     1     -26.151  86.085  13.047  0.00  0.00    +0.000 A 
ATOM      7  C   UNL     1     -26.379  84.823  10.892  0.00  0.00    +0.000 C 
ENDROOT
BRANCH   1  11
ATOM      8  F   UNL     1     -30.369  86.479  10.760  0.00  0.00    +0.000 F 
ATOM      9  F   UNL     1     -28.662  85.895   9.555  0.00  0.00    +0.000 F 
ATOM     10  F   UNL     1     -29.622  84.437  10.845  0.00  0.00    +0.000 F 
ATOM     11  C   UNL     1     -29.225  85.739  10.788  0.00  0.00    +0.000 C 
ENDBRANCH   1  11
BRANCH   2  12
ATOM     12  C   UNL     1     -28.524  88.215  15.135  0.00  0.00    +0.000 C 
BRANCH  12  14
ATOM     13  O   UNL     1     -28.793  90.636  15.471  0.00  0.00    +0.000 OA
ATOM     14  C   UNL     1     -28.285  89.686  14.900  0.00  0.00    +0.000 C 
BRANCH  14  15
ATOM     15  O   UNL     1     -27.366  89.896  13.933  0.00  0.00    +0.000 OA
ATOM     16  H   UNL     1     -26.998  89.002  13.765  0.00  0.00    +0.000 HD
ENDBRANCH  14  15
ENDBRANCH  12  14
ENDBRANCH   2  12
TORSDOF 4
ENDMDL
MODEL 2
REMARK VINA RESULT:      -5.7     18.890     19.881
REMARK  Name = 
REMARK  5 active torsions:
REMARK  status: ('A' for Active; 'I' for Inactive)
REMARK    1  A    between atoms: O_4  and  C_15
REMARK    2  A    between atoms: C_6  and  C_13
REMARK    3  A    between atoms: C_7  and  C_12
REMARK    4  A    between atoms: C_8  and  C_14
REMARK    5  A    between atoms: C_12  and  C_15
REMARK                            x       y       z     vdW  Elec       q    Type
REMARK                         _______ _______ _______ _____ _____    ______ ____
ROOT
ATOM      1  C   UNL     1     -24.263 103.521   0.883  0.00  0.00    +0.000 A 
ATOM      2  C   UNL     1     -24.015 102.120   2.879  0.00  0.00    +0.000 A 
ATOM      3  C   UNL     1     -25.001 104.458   1.638  0.00  0.00    +0.000 A 
ATOM      4  C   UNL     1     -23.780 102.359   1.519  0.00  0.00    +0.000 A 
ATOM      5  C   UNL     1     -24.757 103.051   3.611  0.00  0.00    +0.000 A 
ATOM      6  C   UNL     1     -25.242 104.208   2.997  0.00  0.00    +0.000 A 
ATOM      7  C   UNL     1     -25.548 105.715   1.015  0.00  0.00    +0.000 C 
ENDROOT
BRANCH   1  11
ATOM      8  F   UNL     1     -25.098 104.076  -1.293  0.00  0.00    +0.000 F 
ATOM      9  F   UNL     1     -23.081 104.729  -0.834  0.00  0.00    +0.000 F 
ATOM     10  F   UNL     1     -23.478 102.626  -1.200  0.00  0.00    +0.000 F 
ATOM     11  C   UNL     1     -23.982 103.735  -0.589  0.00  0.00    +0.000 C 
ENDBRANCH   1  11
BRANCH   2  12
ATOM     12  C   UNL     1     -23.505 100.860   3.537  0.00  0.00    +0.000 C 
BRANCH  12  14
ATOM     13  O   UNL     1     -23.915 100.850   5.963  0.00  0.00    +0.000 OA
ATOM     14  C   UNL     1     -24.208 100.515   4.827  0.00  0.00    +0.000 C 
BRANCH  14  15
ATOM     15  O   UNL     1     -25.301  99.752   4.612  0.00  0.00    +0.000 OA
ATOM     16  H   UNL     1     -25.214  99.030   5.272  0.00  0.00    +0.000 HD
ENDBRANCH  14  15
ENDBRANCH  12  14
ENDBRANCH   2  12
TORSDOF 4
ENDMDL
MODEL 3
REMARK VINA RESULT:      -5.6     13.913     15.388
REMARK  Name = 
REMARK  5 active torsions:
REMARK  status: ('A' for Active; 'I' for Inactive)
REMARK    1  A    between atoms: O_4  and  C_15
REMARK    2  A    between atoms: C_6  and  C_13
REMARK    3  A    between atoms: C_7  and  C_12
REMARK    4  A    between atoms: C_8  and  C_14
REMARK    5  A    between atoms: C_12  and  C_15
REMARK                            x       y       z     vdW  Elec       q    Type
REMARK                         _______ _______ _______ _____ _____    ______ ____
ROOT
ATOM      1  C   UNL     1     -33.847  99.569  14.821  0.00  0.00    +0.000 A 
ATOM      2  C   UNL     1     -35.851 100.082  13.507  0.00  0.00    +0.000 A 
ATOM      3  C   UNL     1     -33.132 100.554  14.107  0.00  0.00    +0.000 A 
ATOM      4  C   UNL     1     -35.203  99.346  14.507  0.00  0.00    +0.000 A 
ATOM      5  C   UNL     1     -35.127 101.047  12.801  0.00  0.00    +0.000 A 
ATOM      6  C   UNL     1     -33.784 101.281  13.100  0.00  0.00    +0.000 A 
ATOM      7  C   UNL     1     -31.681 100.834  14.392  0.00  0.00    +0.000 C 
ENDROOT
BRANCH   1  11
ATOM      8  F   UNL     1     -34.083  97.977  16.597  0.00  0.00    +0.000 F 
ATOM      9  F   UNL     1     -32.245  97.881  15.448  0.00  0.00    +0.000 F 
ATOM     10  F   UNL     1     -32.561  99.512  16.846  0.00  0.00    +0.000 F 
ATOM     11  C   UNL     1     -33.192  98.748  15.911  0.00  0.00    +0.000 C 
ENDBRANCH   1  11
BRANCH   2  12
ATOM     12  C   UNL     1     -37.300  99.816  13.173  0.00  0.00    +0.000 C 
BRANCH  12  14
ATOM     13  O   UNL     1     -38.572 101.580  12.025  0.00  0.00    +0.000 OA
ATOM     14  C   UNL     1     -38.137 101.065  13.040  0.00  0.00    +0.000 C 
BRANCH  14  15
ATOM     15  O   UNL     1     -38.412 101.613  14.244  0.00  0.00    +0.000 OA
ATOM     16  H   UNL     1     -37.907 101.054  14.874  0.00  0.00    +0.000 HD
ENDBRANCH  14  15
ENDBRANCH  12  14
ENDBRANCH   2  12
TORSDOF 4
ENDMDL
MODEL 4
REMARK VINA RESULT:      -5.5     20.617     21.576
REMARK  Name = 
REMARK  5 active torsions:
REMARK  status: ('A' for Active; 'I' for Inactive)
REMARK    1  A    between atoms: O_4  and  C_15
REMARK    2  A    between atoms: C_6  and  C_13
REMARK    3  A    between atoms: C_7  and  C_12
REMARK    4  A    between atoms: C_8  and  C_14
REMARK    5  A    between atoms: C_12  and  C_15
REMARK                            x       y       z     vdW  Elec       q    Type
REMARK                         _______ _______ _______ _____ _____    ______ ____
ROOT
ATOM      1  C   UNL     1     -24.169 103.093   1.291  0.00  0.00    +0.000 A 
ATOM      2  C   UNL     1     -24.159 103.736  -1.074  0.00  0.00    +0.000 A 
ATOM      3  C   UNL     1     -24.905 104.258   1.600  0.00  0.00    +0.000 A 
ATOM      4  C   UNL     1     -23.805 102.850  -0.049  0.00  0.00    +0.000 A 
ATOM      5  C   UNL     1     -24.877 104.891  -0.751  0.00  0.00    +0.000 A 
ATOM      6  C   UNL     1     -25.248 105.147   0.570  0.00  0.00    +0.000 A 
ATOM      7  C   UNL     1     -25.319 104.576   3.012  0.00  0.00    +0.000 C 
ENDROOT
BRANCH   1  11
ATOM      8  F   UNL     1     -22.796 102.593   3.190  0.00  0.00    +0.000 F 
ATOM      9  F   UNL     1     -24.790 101.738   3.184  0.00  0.00    +0.000 F 
ATOM     10  F   UNL     1     -23.269 100.941   1.854  0.00  0.00    +0.000 F 
ATOM     11  C   UNL     1     -23.764 102.104   2.363  0.00  0.00    +0.000 C 
ENDBRANCH   1  11
BRANCH   2  12
ATOM     12  C   UNL     1     -23.743 103.467  -2.501  0.00  0.00    +0.000 C 
BRANCH  12  14
ATOM     13  O   UNL     1     -25.152 104.732  -4.071  0.00  0.00    +0.000 OA
ATOM     14  C   UNL     1     -24.840 103.695  -3.511  0.00  0.00    +0.000 C 
BRANCH  14  15
ATOM     15  O   UNL     1     -25.505 102.553  -3.794  0.00  0.00    +0.000 OA
ATOM     16  H   UNL     1     -25.754 102.657  -4.737  0.00  0.00    +0.000 HD
ENDBRANCH  14  15
ENDBRANCH  12  14
ENDBRANCH   2  12
TORSDOF 4
ENDMDL
MODEL 5
REMARK VINA RESULT:      -5.4     12.660     14.035
REMARK  Name = 
REMARK  5 active torsions:
REMARK  status: ('A' for Active; 'I' for Inactive)
REMARK    1  A    between atoms: O_4  and  C_15
REMARK    2  A    between atoms: C_6  and  C_13
REMARK    3  A    between atoms: C_7  and  C_12
REMARK    4  A    between atoms: C_8  and  C_14
REMARK    5  A    between atoms: C_12  and  C_15
REMARK                            x       y       z     vdW  Elec       q    Type
REMARK                         _______ _______ _______ _____ _____    ______ ____
ROOT
ATOM      1  C   UNL     1     -33.573  99.647  14.871  0.00  0.00    +0.000 A 
ATOM      2  C   UNL     1     -31.296  99.051  15.551  0.00  0.00    +0.000 A 
ATOM      3  C   UNL     1     -33.051 100.601  13.971  0.00  0.00    +0.000 A 
ATOM      4  C   UNL     1     -32.683  98.883  15.652  0.00  0.00    +0.000 A 
ATOM      5  C   UNL     1     -30.793 100.008  14.664  0.00  0.00    +0.000 A 
ATOM      6  C   UNL     1     -31.661 100.771  13.882  0.00  0.00    +0.000 A 
ATOM      7  C   UNL     1     -33.951 101.451  13.114  0.00  0.00    +0.000 C 
ENDROOT
BRANCH   1  11
ATOM      8  F   UNL     1     -35.371  98.514  15.980  0.00  0.00    +0.000 F 
ATOM      9  F   UNL     1     -35.752 100.556  15.354  0.00  0.00    +0.000 F 
ATOM     10  F   UNL     1     -35.648  98.975  13.871  0.00  0.00    +0.000 F 
ATOM     11  C   UNL     1     -35.064  99.428  15.015  0.00  0.00    +0.000 C 
ENDBRANCH   1  11
BRANCH   2  12
ATOM     12  C   UNL     1     -30.358  98.236  16.410  0.00  0.00    +0.000 C 
BRANCH  12  14
ATOM     13  O   UNL     1     -30.385  99.933  18.191  0.00  0.00    +0.000 OA
ATOM     14  C   UNL     1     -29.905  98.943  17.664  0.00  0.00    +0.000 C 
BRANCH  14  15
ATOM     15  O   UNL     1     -28.839  98.333  18.225  0.00  0.00    +0.000 OA
ATOM     16  H   UNL     1     -28.519  97.729  17.520  0.00  0.00    +0.000 HD
ENDBRANCH  14  15
ENDBRANCH  12  14
ENDBRANCH   2  12
TORSDOF 4
ENDMDL
MODEL 6
REMARK VINA RESULT:      -5.4     18.494     19.422
REMARK  Name = 
REMARK  5 active torsions:
REMARK  status: ('A' for Active; 'I' for Inactive)
REMARK    1  A    between atoms: O_4  and  C_15
REMARK    2  A    between atoms: C_6  and  C_13
REMARK    3  A    between atoms: C_7  and  C_12
REMARK    4  A    between atoms: C_8  and  C_14
REMARK    5  A    between atoms: C_12  and  C_15
REMARK                            x       y       z     vdW  Elec       q    Type
REMARK                         _______ _______ _______ _____ _____    ______ ____
ROOT
ATOM      1  C   UNL     1     -24.747 103.750   2.345  0.00  0.00    +0.000 A 
ATOM      2  C   UNL     1     -24.350 101.562   3.373  0.00  0.00    +0.000 A 
ATOM      3  C   UNL     1     -24.172 103.286   1.142  0.00  0.00    +0.000 A 
ATOM      4  C   UNL     1     -24.827 102.877   3.448  0.00  0.00    +0.000 A 
ATOM      5  C   UNL     1     -23.773 101.119   2.180  0.00  0.00    +0.000 A 
ATOM      6  C   UNL     1     -23.687 101.971   1.077  0.00  0.00    +0.000 A 
ATOM      7  C   UNL     1     -24.053 104.172  -0.068  0.00  0.00    +0.000 C 
ENDROOT
BRANCH   1  11
ATOM      8  F   UNL     1     -26.176 105.479   1.500  0.00  0.00    +0.000 F 
ATOM      9  F   UNL     1     -25.923 105.397   3.653  0.00  0.00    +0.000 F 
ATOM     10  F   UNL     1     -24.297 106.107   2.401  0.00  0.00    +0.000 F 
ATOM     11  C   UNL     1     -25.277 105.163   2.475  0.00  0.00    +0.000 C 
ENDBRANCH   1  11
BRANCH   2  12
ATOM     12  C   UNL     1     -24.428 100.646   4.572  0.00  0.00    +0.000 C 
BRANCH  12  14
ATOM     13  O   UNL     1     -22.415 100.954   5.952  0.00  0.00    +0.000 OA
ATOM     14  C   UNL     1     -23.085 100.303   5.168  0.00  0.00    +0.000 C 
BRANCH  14  15
ATOM     15  O   UNL     1     -22.644  99.097   4.746  0.00  0.00    +0.000 OA
ATOM     16  H   UNL     1     -22.878  98.494   5.484  0.00  0.00    +0.000 HD
ENDBRANCH  14  15
ENDBRANCH  12  14
ENDBRANCH   2  12
TORSDOF 4
ENDMDL
MODEL 7
REMARK VINA RESULT:      -5.4     12.789     14.305
REMARK  Name = 
REMARK  5 active torsions:
REMARK  status: ('A' for Active; 'I' for Inactive)
REMARK    1  A    between atoms: O_4  and  C_15
REMARK    2  A    between atoms: C_6  and  C_13
REMARK    3  A    between atoms: C_7  and  C_12
REMARK    4  A    between atoms: C_8  and  C_14
REMARK    5  A    between atoms: C_12  and  C_15
REMARK                            x       y       z     vdW  Elec       q    Type
REMARK                         _______ _______ _______ _____ _____    ______ ____
ROOT
ATOM      1  C   UNL     1     -31.053  99.611  15.559  0.00  0.00    +0.000 A 
ATOM      2  C   UNL     1     -29.168 101.115  15.121  0.00  0.00    +0.000 A 
ATOM      3  C   UNL     1     -31.886 100.429  14.764  0.00  0.00    +0.000 A 
ATOM      4  C   UNL     1     -29.701  99.969  15.727  0.00  0.00    +0.000 A 
ATOM      5  C   UNL     1     -30.007 101.922  14.347  0.00  0.00    +0.000 A 
ATOM      6  C   UNL     1     -31.349 101.581  14.169  0.00  0.00    +0.000 A 
ATOM      7  C   UNL     1     -33.339 100.103  14.552  0.00  0.00    +0.000 C 
ENDROOT
BRANCH   1  11
ATOM      8  F   UNL     1     -30.622  97.704  16.944  0.00  0.00    +0.000 F 
ATOM      9  F   UNL     1     -32.587  98.605  17.121  0.00  0.00    +0.000 F 
ATOM     10  F   UNL     1     -32.083  97.454  15.350  0.00  0.00    +0.000 F 
ATOM     11  C   UNL     1     -31.581  98.362  16.233  0.00  0.00    +0.000 C 
ENDBRANCH   1  11
BRANCH   2  12
ATOM     12  C   UNL     1     -27.720 101.492  15.328  0.00  0.00    +0.000 C 
BRANCH  12  14
ATOM     13  O   UNL     1     -27.163 101.638  17.720  0.00  0.00    +0.000 OA
ATOM     14  C   UNL     1     -27.445 102.159  16.654  0.00  0.00    +0.000 C 
BRANCH  14  15
ATOM     15  O   UNL     1     -27.523 103.505  16.562  0.00  0.00    +0.000 OA
ATOM     16  H   UNL     1     -26.777 103.818  17.119  0.00  0.00    +0.000 HD
ENDBRANCH  14  15
ENDBRANCH  12  14
ENDBRANCH   2  12
TORSDOF 4
ENDMDL
MODEL 8
REMARK VINA RESULT:      -5.3     21.597     22.824
REMARK  Name = 
REMARK  5 active torsions:
REMARK  status: ('A' for Active; 'I' for Inactive)
REMARK    1  A    between atoms: O_4  and  C_15
REMARK    2  A    between atoms: C_6  and  C_13
REMARK    3  A    between atoms: C_7  and  C_12
REMARK    4  A    between atoms: C_8  and  C_14
REMARK    5  A    between atoms: C_12  and  C_15
REMARK                            x       y       z     vdW  Elec       q    Type
REMARK                         _______ _______ _______ _____ _____    ______ ____
ROOT
ATOM      1  C   UNL     1     -39.882 102.103   2.942  0.00  0.00    +0.000 A 
ATOM      2  C   UNL     1     -41.480 101.205   1.316  0.00  0.00    +0.000 A 
ATOM      3  C   UNL     1     -40.935 102.307   3.859  0.00  0.00    +0.000 A 
ATOM      4  C   UNL     1     -40.172 101.553   1.677  0.00  0.00    +0.000 A 
ATOM      5  C   UNL     1     -42.515 101.424   2.230  0.00  0.00    +0.000 A 
ATOM      6  C   UNL     1     -42.244 101.966   3.487  0.00  0.00    +0.000 A 
ATOM      7  C   UNL     1     -40.690 102.896   5.222  0.00  0.00    +0.000 C 
ENDROOT
BRANCH   1  11
ATOM      8  F   UNL     1     -38.250 103.808   3.355  0.00  0.00    +0.000 F 
ATOM      9  F   UNL     1     -38.041 101.972   4.491  0.00  0.00    +0.000 F 
ATOM     10  F   UNL     1     -37.552 101.994   2.375  0.00  0.00    +0.000 F 
ATOM     11  C   UNL     1     -38.452 102.462   3.286  0.00  0.00    +0.000 C 
ENDBRANCH   1  11
BRANCH   2  12
ATOM     12  C   UNL     1     -41.774 100.633  -0.051  0.00  0.00    +0.000 C 
BRANCH  12  14
ATOM     13  O   UNL     1     -43.665 101.814  -1.091  0.00  0.00    +0.000 OA
ATOM     14  C   UNL     1     -42.470 101.597  -0.981  0.00  0.00    +0.000 C 
BRANCH  14  15
ATOM     15  O   UNL     1     -41.589 102.282  -1.742  0.00  0.00    +0.000 OA
ATOM     16  H   UNL     1     -40.945 101.598  -2.025  0.00  0.00    +0.000 HD
ENDBRANCH  14  15
ENDBRANCH  12  14
ENDBRANCH   2  12
TORSDOF 4
ENDMDL
MODEL 9
REMARK VINA RESULT:      -5.2     15.038     16.103
REMARK  Name = 
REMARK  5 active torsions:
REMARK  status: ('A' for Active; 'I' for Inactive)
REMARK    1  A    between atoms: O_4  and  C_15
REMARK    2  A    between atoms: C_6  and  C_13
REMARK    3  A    between atoms: C_7  and  C_12
REMARK    4  A    between atoms: C_8  and  C_14
REMARK    5  A    between atoms: C_12  and  C_15
REMARK                            x       y       z     vdW  Elec       q    Type
REMARK                         _______ _______ _______ _____ _____    ______ ____
ROOT
ATOM      1  C   UNL     1     -21.990 100.204   7.995  0.00  0.00    +0.000 A 
ATOM      2  C   UNL     1     -23.115 100.744   5.886  0.00  0.00    +0.000 A 
ATOM      3  C   UNL     1     -21.096  99.363   7.298  0.00  0.00    +0.000 A 
ATOM      4  C   UNL     1     -22.992 100.885   7.274  0.00  0.00    +0.000 A 
ATOM      5  C   UNL     1     -22.230  99.899   5.211  0.00  0.00    +0.000 A 
ATOM      6  C   UNL     1     -21.231  99.218   5.909  0.00  0.00    +0.000 A 
ATOM      7  C   UNL     1     -20.009  98.605   8.012  0.00  0.00    +0.000 C 
ENDROOT
BRANCH   1  11
ATOM      8  F   UNL     1     -22.776 101.320   9.965  0.00  0.00    +0.000 F 
ATOM      9  F   UNL     1     -22.159  99.254  10.203  0.00  0.00    +0.000 F 
ATOM     10  F   UNL     1     -20.663 100.799   9.904  0.00  0.00    +0.000 F 
ATOM     11  C   UNL     1     -21.897 100.390   9.495  0.00  0.00    +0.000 C 
ENDBRANCH   1  11
BRANCH   2  12
ATOM     12  C   UNL     1     -24.207 101.468   5.134  0.00  0.00    +0.000 C 
BRANCH  12  14
ATOM     13  O   UNL     1     -24.967 100.584   2.968  0.00  0.00    +0.000 OA
ATOM     14  C   UNL     1     -24.985 100.588   4.187  0.00  0.00    +0.000 C 
BRANCH  14  15
ATOM     15  O   UNL     1     -25.764  99.706   4.851  0.00  0.00    +0.000 OA
ATOM     16  H   UNL     1     -26.602 100.198   4.994  0.00  0.00    +0.000 HD
ENDBRANCH  14  15
ENDBRANCH  12  14
ENDBRANCH   2  12
TORSDOF 4
ENDMDL
