MODEL 1
REMARK VINA RESULT:      -6.5      0.000      0.000
REMARK  Name = OTSSP167.pdbqt.pdb
REMARK  7 active torsions:
REMARK  status: ('A' for Active; 'I' for Inactive)
REMARK    1  A    between atoms: C_5  and  N_19
REMARK    2  A    between atoms: C_7  and  C_31
REMARK    3  A    between atoms: C_11  and  C_13
REMARK    4  A    between atoms: C_18  and  O_34
REMARK    5  A    between atoms: N_19  and  C_21
REMARK    6  A    between atoms: C_24  and  C_27
REMARK    7  A    between atoms: C_27  and  N_28
REMARK                            x       y       z     vdW  Elec       q    Type
REMARK                         _______ _______ _______ _____ _____    ______ ____
ROOT
ATOM      1  N   UNL     1     -35.958  98.190  16.832  0.00  0.00    +0.000 NA
ATOM      2  N   UNL     1     -35.968  96.645  20.143  0.00  0.00    +0.000 NA
ATOM      3  C   UNL     1     -34.225  96.891  17.946  0.00  0.00    +0.000 A 
ATOM      4  C   UNL     1     -35.509  97.499  17.909  0.00  0.00    +0.000 A 
ATOM      5  C   UNL     1     -33.862  96.168  19.100  0.00  0.00    +0.000 A 
ATOM      6  C   UNL     1     -36.328  97.330  19.046  0.00  0.00    +0.000 A 
ATOM      7  C   UNL     1     -34.749  96.077  20.150  0.00  0.00    +0.000 A 
ATOM      8  C   UNL     1     -37.584  97.909  19.016  0.00  0.00    +0.000 A 
ATOM      9  C   UNL     1     -37.190  98.754  16.833  0.00  0.00    +0.000 A 
ATOM     10  C   UNL     1     -38.035  98.628  17.919  0.00  0.00    +0.000 A 
ENDROOT
BRANCH   9  13
ATOM     11 CL   UNL     1     -36.166  99.893  11.899  0.00  0.00    +0.000 Cl
ATOM     12 CL   UNL     1     -40.322 102.189  14.572  0.00  0.00    +0.000 Cl
ATOM     13  C   UNL     1     -37.556  99.510  15.633  0.00  0.00    +0.000 A 
ATOM     14  C   UNL     1     -38.637 100.399  15.621  0.00  0.00    +0.000 A 
ATOM     15  C   UNL     1     -36.818  99.377  14.449  0.00  0.00    +0.000 A 
ATOM     16  C   UNL     1     -37.140 100.101  13.303  0.00  0.00    +0.000 A 
ATOM     17  C   UNL     1     -38.972 101.125  14.478  0.00  0.00    +0.000 A 
ATOM     18  C   UNL     1     -38.222 100.979  13.311  0.00  0.00    +0.000 A 
BRANCH  18  19
ATOM     19  O   UNL     1     -38.553 101.697  12.192  0.00  0.00    +0.000 OA
ATOM     20  H   UNL     1     -38.138 101.271  11.419  0.00  0.00    +0.000 HD
ENDBRANCH  18  19
ENDBRANCH   9  13
BRANCH   5  21
ATOM     21  C   UNL     1     -32.589  95.463  19.232  0.00  0.00    +0.000 C 
ATOM     22  O   UNL     1     -31.491  95.962  19.051  0.00  0.00    +0.000 OA
ATOM     23  C   UNL     1     -32.470  94.006  19.563  0.00  0.00    +0.000 C 
ENDBRANCH   5  21
BRANCH   3  24
ATOM     24  N   UNL     1     -33.251  97.066  16.911  0.00  0.00    +0.000 N 
ATOM     25  H   UNL     1     -33.310  96.381  16.153  0.00  0.00    +0.000 HD
BRANCH  24  26
ATOM     26  C   UNL     1     -32.599  98.215  16.558  0.00  0.00    +0.000 A 
ATOM     27  C   UNL     1     -32.374  99.198  17.586  0.00  0.00    +0.000 A 
ATOM     28  C   UNL     1     -32.517 100.734  17.430  0.00  0.00    +0.000 A 
ATOM     29  C   UNL     1     -32.911 101.407  16.216  0.00  0.00    +0.000 A 
ATOM     30  C   UNL     1     -33.161 100.424  15.192  0.00  0.00    +0.000 A 
ATOM     31  C   UNL     1     -33.019  98.890  15.354  0.00  0.00    +0.000 A 
BRANCH  29  32
ATOM     32  C   UNL     1     -32.912 102.806  16.019  0.00  0.00    +0.000 C 
BRANCH  32  33
ATOM     33  N   UNL     1     -32.932 104.245  15.822  0.00  0.00    +0.000 NA
ATOM     34  C   UNL     1     -32.990 104.862  17.137  0.00  0.00    +0.000 C 
ATOM     35  C   UNL     1     -34.174 104.572  15.143  0.00  0.00    +0.000 C 
ENDBRANCH  32  33
ENDBRANCH  29  32
ENDBRANCH  24  26
ENDBRANCH   3  24
TORSDOF 7
ENDMDL
MODEL 2
REMARK VINA RESULT:      -6.4      3.058      6.421
REMARK  Name = OTSSP167.pdbqt.pdb
REMARK  7 active torsions:
REMARK  status: ('A' for Active; 'I' for Inactive)
REMARK    1  A    between atoms: C_5  and  N_19
REMARK    2  A    between atoms: C_7  and  C_31
REMARK    3  A    between atoms: C_11  and  C_13
REMARK    4  A    between atoms: C_18  and  O_34
REMARK    5  A    between atoms: N_19  and  C_21
REMARK    6  A    between atoms: C_24  and  C_27
REMARK    7  A    between atoms: C_27  and  N_28
REMARK                            x       y       z     vdW  Elec       q    Type
REMARK                         _______ _______ _______ _____ _____    ______ ____
ROOT
ATOM      1  N   UNL     1     -32.418 101.428  15.514  0.00  0.00    +0.000 NA
ATOM      2  N   UNL     1     -30.412 104.284  16.597  0.00  0.00    +0.000 NA
ATOM      3  C   UNL     1     -30.011 101.601  15.843  0.00  0.00    +0.000 A 
ATOM      4  C   UNL     1     -31.320 102.154  15.843  0.00  0.00    +0.000 A 
ATOM      5  C   UNL     1     -28.937 102.428  16.231  0.00  0.00    +0.000 A 
ATOM      6  C   UNL     1     -31.443 103.503  16.236  0.00  0.00    +0.000 A 
ATOM      7  C   UNL     1     -29.184 103.734  16.590  0.00  0.00    +0.000 A 
ATOM      8  C   UNL     1     -32.714 104.048  16.250  0.00  0.00    +0.000 A 
ATOM      9  C   UNL     1     -33.651 101.990  15.528  0.00  0.00    +0.000 A 
ATOM     10  C   UNL     1     -33.834 103.309  15.897  0.00  0.00    +0.000 A 
ENDROOT
BRANCH   9  13
ATOM     11 CL   UNL     1     -36.288  99.798  11.663  0.00  0.00    +0.000 Cl
ATOM     12 CL   UNL     1     -37.696  99.068  16.877  0.00  0.00    +0.000 Cl
ATOM     13  C   UNL     1     -34.759 101.125  15.116  0.00  0.00    +0.000 A 
ATOM     14  C   UNL     1     -35.628 100.546  16.048  0.00  0.00    +0.000 A 
ATOM     15  C   UNL     1     -34.996 100.859  13.761  0.00  0.00    +0.000 A 
ATOM     16  C   UNL     1     -36.056 100.053  13.350  0.00  0.00    +0.000 A 
ATOM     17  C   UNL     1     -36.689  99.732  15.648  0.00  0.00    +0.000 A 
ATOM     18  C   UNL     1     -36.909  99.483  14.293  0.00  0.00    +0.000 A 
BRANCH  18  19
ATOM     19  O   UNL     1     -37.955  98.687  13.906  0.00  0.00    +0.000 OA
ATOM     20  H   UNL     1     -37.780  97.779  14.217  0.00  0.00    +0.000 HD
ENDBRANCH  18  19
ENDBRANCH   9  13
BRANCH   5  21
ATOM     21  C   UNL     1     -27.557 101.957  16.313  0.00  0.00    +0.000 C 
ATOM     22  O   UNL     1     -26.897 101.898  17.338  0.00  0.00    +0.000 OA
ATOM     23  C   UNL     1     -26.748 101.525  15.128  0.00  0.00    +0.000 C 
ENDBRANCH   5  21
BRANCH   3  24
ATOM     24  N   UNL     1     -29.723 100.281  15.369  0.00  0.00    +0.000 N 
ATOM     25  H   UNL     1     -29.013 100.240  14.633  0.00  0.00    +0.000 HD
BRANCH  24  26
ATOM     26  C   UNL     1     -29.887  99.097  16.034  0.00  0.00    +0.000 A 
ATOM     27  C   UNL     1     -31.121  98.382  15.828  0.00  0.00    +0.000 A 
ATOM     28  C   UNL     1     -31.945  97.648  16.918  0.00  0.00    +0.000 A 
ATOM     29  C   UNL     1     -31.593  97.585  18.316  0.00  0.00    +0.000 A 
ATOM     30  C   UNL     1     -30.373  98.321  18.529  0.00  0.00    +0.000 A 
ATOM     31  C   UNL     1     -29.554  99.053  17.437  0.00  0.00    +0.000 A 
BRANCH  29  32
ATOM     32  C   UNL     1     -32.257  96.809  19.292  0.00  0.00    +0.000 C 
BRANCH  32  33
ATOM     33  N   UNL     1     -32.925  95.999  20.295  0.00  0.00    +0.000 NA
ATOM     34  C   UNL     1     -33.314  94.751  19.657  0.00  0.00    +0.000 C 
ATOM     35  C   UNL     1     -34.150  96.688  20.663  0.00  0.00    +0.000 C 
ENDBRANCH  32  33
ENDBRANCH  29  32
ENDBRANCH  24  26
ENDBRANCH   3  24
TORSDOF 7
ENDMDL
MODEL 3
REMARK VINA RESULT:      -6.3     13.181     15.133
REMARK  Name = OTSSP167.pdbqt.pdb
REMARK  7 active torsions:
REMARK  status: ('A' for Active; 'I' for Inactive)
REMARK    1  A    between atoms: C_5  and  N_19
REMARK    2  A    between atoms: C_7  and  C_31
REMARK    3  A    between atoms: C_11  and  C_13
REMARK    4  A    between atoms: C_18  and  O_34
REMARK    5  A    between atoms: N_19  and  C_21
REMARK    6  A    between atoms: C_24  and  C_27
REMARK    7  A    between atoms: C_27  and  N_28
REMARK                            x       y       z     vdW  Elec       q    Type
REMARK                         _______ _______ _______ _____ _____    ______ ____
ROOT
ATOM      1  N   UNL     1     -38.640 104.644   5.242  0.00  0.00    +0.000 NA
ATOM      2  N   UNL     1     -42.215 104.504   5.982  0.00  0.00    +0.000 NA
ATOM      3  C   UNL     1     -40.292 102.969   4.614  0.00  0.00    +0.000 A 
ATOM      4  C   UNL     1     -39.911 104.172   5.266  0.00  0.00    +0.000 A 
ATOM      5  C   UNL     1     -41.646 102.579   4.671  0.00  0.00    +0.000 A 
ATOM      6  C   UNL     1     -40.930 104.890   5.929  0.00  0.00    +0.000 A 
ATOM      7  C   UNL     1     -42.549 103.363   5.354  0.00  0.00    +0.000 A 
ATOM      8  C   UNL     1     -40.572 106.068   6.558  0.00  0.00    +0.000 A 
ATOM      9  C   UNL     1     -38.315 105.798   5.875  0.00  0.00    +0.000 A 
ATOM     10  C   UNL     1     -39.268 106.540   6.545  0.00  0.00    +0.000 A 
ENDROOT
BRANCH   9  13
ATOM     11 CL   UNL     1     -33.875 105.789   3.232  0.00  0.00    +0.000 Cl
ATOM     12 CL   UNL     1     -34.277 108.073   8.163  0.00  0.00    +0.000 Cl
ATOM     13  C   UNL     1     -36.905 106.191   5.816  0.00  0.00    +0.000 A 
ATOM     14  C   UNL     1     -36.285 106.873   6.870  0.00  0.00    +0.000 A 
ATOM     15  C   UNL     1     -36.119 105.881   4.699  0.00  0.00    +0.000 A 
ATOM     16  C   UNL     1     -34.772 106.230   4.634  0.00  0.00    +0.000 A 
ATOM     17  C   UNL     1     -34.939 107.234   6.813  0.00  0.00    +0.000 A 
ATOM     18  C   UNL     1     -34.174 106.912   5.692  0.00  0.00    +0.000 A 
BRANCH  18  19
ATOM     19  O   UNL     1     -32.851 107.265   5.643  0.00  0.00    +0.000 OA
ATOM     20  H   UNL     1     -32.776 108.209   5.878  0.00  0.00    +0.000 HD
ENDBRANCH  18  19
ENDBRANCH   9  13
BRANCH   5  21
ATOM     21  C   UNL     1     -42.162 101.388   4.000  0.00  0.00    +0.000 C 
ATOM     22  O   UNL     1     -41.987 100.241   4.377  0.00  0.00    +0.000 OA
ATOM     23  C   UNL     1     -42.940 101.420   2.719  0.00  0.00    +0.000 C 
ENDBRANCH   5  21
BRANCH   3  24
ATOM     24  N   UNL     1     -39.351 102.087   3.993  0.00  0.00    +0.000 N 
ATOM     25  H   UNL     1     -39.456 101.103   4.253  0.00  0.00    +0.000 HD
BRANCH  24  26
ATOM     26  C   UNL     1     -38.679 102.271   2.816  0.00  0.00    +0.000 A 
ATOM     27  C   UNL     1     -37.251 102.448   2.883  0.00  0.00    +0.000 A 
ATOM     28  C   UNL     1     -36.414 103.452   2.049  0.00  0.00    +0.000 A 
ATOM     29  C   UNL     1     -36.956 104.373   1.079  0.00  0.00    +0.000 A 
ATOM     30  C   UNL     1     -38.388 104.216   1.029  0.00  0.00    +0.000 A 
ATOM     31  C   UNL     1     -39.220 103.212   1.865  0.00  0.00    +0.000 A 
BRANCH  29  32
ATOM     32  C   UNL     1     -36.197 105.194   0.217  0.00  0.00    +0.000 C 
BRANCH  32  33
ATOM     33  N   UNL     1     -35.403 106.040  -0.657  0.00  0.00    +0.000 NA
ATOM     34  C   UNL     1     -35.653 105.611  -2.023  0.00  0.00    +0.000 C 
ATOM     35  C   UNL     1     -34.004 105.764  -0.373  0.00  0.00    +0.000 C 
ENDBRANCH  32  33
ENDBRANCH  29  32
ENDBRANCH  24  26
ENDBRANCH   3  24
TORSDOF 7
ENDMDL
MODEL 4
REMARK VINA RESULT:      -6.3     13.378     16.503
REMARK  Name = OTSSP167.pdbqt.pdb
REMARK  7 active torsions:
REMARK  status: ('A' for Active; 'I' for Inactive)
REMARK    1  A    between atoms: C_5  and  N_19
REMARK    2  A    between atoms: C_7  and  C_31
REMARK    3  A    between atoms: C_11  and  C_13
REMARK    4  A    between atoms: C_18  and  O_34
REMARK    5  A    between atoms: N_19  and  C_21
REMARK    6  A    between atoms: C_24  and  C_27
REMARK    7  A    between atoms: C_27  and  N_28
REMARK                            x       y       z     vdW  Elec       q    Type
REMARK                         _______ _______ _______ _____ _____    ______ ____
ROOT
ATOM      1  N   UNL     1     -37.792 104.386   1.033  0.00  0.00    +0.000 NA
ATOM      2  N   UNL     1     -35.679 106.998  -0.402  0.00  0.00    +0.000 NA
ATOM      3  C   UNL     1     -35.552 105.096   1.669  0.00  0.00    +0.000 A 
ATOM      4  C   UNL     1     -36.708 105.179   0.848  0.00  0.00    +0.000 A 
ATOM      5  C   UNL     1     -34.489 105.987   1.417  0.00  0.00    +0.000 A 
ATOM      6  C   UNL     1     -36.701 106.159  -0.167  0.00  0.00    +0.000 A 
ATOM      7  C   UNL     1     -34.598 106.899   0.391  0.00  0.00    +0.000 A 
ATOM      8  C   UNL     1     -37.827 106.257  -0.965  0.00  0.00    +0.000 A 
ATOM      9  C   UNL     1     -38.879 104.496   0.230  0.00  0.00    +0.000 A 
ATOM     10  C   UNL     1     -38.928 105.432  -0.785  0.00  0.00    +0.000 A 
ENDROOT
BRANCH   9  13
ATOM     11 CL   UNL     1     -41.262 101.389   3.600  0.00  0.00    +0.000 Cl
ATOM     12 CL   UNL     1     -43.004 101.930  -1.535  0.00  0.00    +0.000 Cl
ATOM     13  C   UNL     1     -39.975 103.561   0.495  0.00  0.00    +0.000 A 
ATOM     14  C   UNL     1     -40.894 103.202  -0.498  0.00  0.00    +0.000 A 
ATOM     15  C   UNL     1     -40.132 102.979   1.760  0.00  0.00    +0.000 A 
ATOM     16  C   UNL     1     -41.157 102.074   2.024  0.00  0.00    +0.000 A 
ATOM     17  C   UNL     1     -41.928 102.301  -0.243  0.00  0.00    +0.000 A 
ATOM     18  C   UNL     1     -42.064 101.731   1.023  0.00  0.00    +0.000 A 
BRANCH  18  19
ATOM     19  O   UNL     1     -43.080 100.844   1.267  0.00  0.00    +0.000 OA
ATOM     20  H   UNL     1     -43.289 100.381   0.434  0.00  0.00    +0.000 HD
ENDBRANCH  18  19
ENDBRANCH   9  13
BRANCH   5  21
ATOM     21  C   UNL     1     -33.271 106.024   2.224  0.00  0.00    +0.000 C 
ATOM     22  O   UNL     1     -32.292 105.319   2.047  0.00  0.00    +0.000 OA
ATOM     23  C   UNL     1     -33.086 106.911   3.418  0.00  0.00    +0.000 C 
ENDBRANCH   5  21
BRANCH   3  24
ATOM     24  N   UNL     1     -35.376 104.085   2.668  0.00  0.00    +0.000 N 
ATOM     25  H   UNL     1     -34.466 103.617   2.643  0.00  0.00    +0.000 HD
BRANCH  24  26
ATOM     26  C   UNL     1     -36.009 103.979   3.875  0.00  0.00    +0.000 A 
ATOM     27  C   UNL     1     -36.937 102.891   4.049  0.00  0.00    +0.000 A 
ATOM     28  C   UNL     1     -38.310 102.965   4.767  0.00  0.00    +0.000 A 
ATOM     29  C   UNL     1     -38.866 104.156   5.363  0.00  0.00    +0.000 A 
ATOM     30  C   UNL     1     -37.951 105.253   5.168  0.00  0.00    +0.000 A 
ATOM     31  C   UNL     1     -36.582 105.173   4.449  0.00  0.00    +0.000 A 
BRANCH  29  32
ATOM     32  C   UNL     1     -40.046 104.209   6.137  0.00  0.00    +0.000 C 
BRANCH  32  33
ATOM     33  N   UNL     1     -41.270 104.269   6.917  0.00  0.00    +0.000 NA
ATOM     34  C   UNL     1     -42.383 104.232   5.982  0.00  0.00    +0.000 C 
ATOM     35  C   UNL     1     -41.305 105.567   7.570  0.00  0.00    +0.000 C 
ENDBRANCH  32  33
ENDBRANCH  29  32
ENDBRANCH  24  26
ENDBRANCH   3  24
TORSDOF 7
ENDMDL
MODEL 5
REMARK VINA RESULT:      -6.3      4.259      7.483
REMARK  Name = OTSSP167.pdbqt.pdb
REMARK  7 active torsions:
REMARK  status: ('A' for Active; 'I' for Inactive)
REMARK    1  A    between atoms: C_5  and  N_19
REMARK    2  A    between atoms: C_7  and  C_31
REMARK    3  A    between atoms: C_11  and  C_13
REMARK    4  A    between atoms: C_18  and  O_34
REMARK    5  A    between atoms: N_19  and  C_21
REMARK    6  A    between atoms: C_24  and  C_27
REMARK    7  A    between atoms: C_27  and  N_28
REMARK                            x       y       z     vdW  Elec       q    Type
REMARK                         _______ _______ _______ _____ _____    ______ ____
ROOT
ATOM      1  N   UNL     1     -30.899  98.876  18.326  0.00  0.00    +0.000 NA
ATOM      2  N   UNL     1     -29.248 102.110  18.738  0.00  0.00    +0.000 NA
ATOM      3  C   UNL     1     -29.650 100.200  16.709  0.00  0.00    +0.000 A 
ATOM      4  C   UNL     1     -30.197  99.991  18.003  0.00  0.00    +0.000 A 
ATOM      5  C   UNL     1     -28.908 101.377  16.480  0.00  0.00    +0.000 A 
ATOM      6  C   UNL     1     -29.951 100.989  18.969  0.00  0.00    +0.000 A 
ATOM      7  C   UNL     1     -28.740 102.282  17.505  0.00  0.00    +0.000 A 
ATOM      8  C   UNL     1     -30.469 100.789  20.236  0.00  0.00    +0.000 A 
ATOM      9  C   UNL     1     -31.404  98.711  19.573  0.00  0.00    +0.000 A 
ATOM     10  C   UNL     1     -31.202  99.656  20.559  0.00  0.00    +0.000 A 
ENDROOT
BRANCH   9  13
ATOM     11 CL   UNL     1     -35.672  96.530  21.502  0.00  0.00    +0.000 Cl
ATOM     12 CL   UNL     1     -31.781  93.578  19.086  0.00  0.00    +0.000 Cl
ATOM     13  C   UNL     1     -32.180  97.489  19.798  0.00  0.00    +0.000 A 
ATOM     14  C   UNL     1     -31.711  96.233  19.396  0.00  0.00    +0.000 A 
ATOM     15  C   UNL     1     -33.423  97.536  20.443  0.00  0.00    +0.000 A 
ATOM     16  C   UNL     1     -34.166  96.382  20.682  0.00  0.00    +0.000 A 
ATOM     17  C   UNL     1     -32.449  95.071  19.624  0.00  0.00    +0.000 A 
ATOM     18  C   UNL     1     -33.683  95.141  20.271  0.00  0.00    +0.000 A 
BRANCH  18  19
ATOM     19  O   UNL     1     -34.402  93.997  20.496  0.00  0.00    +0.000 OA
ATOM     20  H   UNL     1     -35.082  93.920  19.801  0.00  0.00    +0.000 HD
ENDBRANCH  18  19
ENDBRANCH   9  13
BRANCH   5  21
ATOM     21  C   UNL     1     -28.261 101.677  15.205  0.00  0.00    +0.000 C 
ATOM     22  O   UNL     1     -27.198 101.209  14.832  0.00  0.00    +0.000 OA
ATOM     23  C   UNL     1     -28.803 102.648  14.201  0.00  0.00    +0.000 C 
ENDBRANCH   5  21
BRANCH   3  24
ATOM     24  N   UNL     1     -29.905  99.326  15.604  0.00  0.00    +0.000 N 
ATOM     25  H   UNL     1     -29.315  98.489  15.580  0.00  0.00    +0.000 HD
BRANCH  24  26
ATOM     26  C   UNL     1     -31.061  99.197  14.885  0.00  0.00    +0.000 A 
ATOM     27  C   UNL     1     -31.604 100.385  14.277  0.00  0.00    +0.000 A 
ATOM     28  C   UNL     1     -33.103 100.777  14.214  0.00  0.00    +0.000 A 
ATOM     29  C   UNL     1     -34.183 100.001  14.774  0.00  0.00    +0.000 A 
ATOM     30  C   UNL     1     -33.641  98.825  15.406  0.00  0.00    +0.000 A 
ATOM     31  C   UNL     1     -32.142  98.439  15.467  0.00  0.00    +0.000 A 
BRANCH  29  32
ATOM     32  C   UNL     1     -35.559 100.274  14.607  0.00  0.00    +0.000 C 
BRANCH  32  33
ATOM     33  N   UNL     1     -36.977 100.543  14.450  0.00  0.00    +0.000 NA
ATOM     34  C   UNL     1     -37.580  99.364  13.849  0.00  0.00    +0.000 C 
ATOM     35  C   UNL     1     -37.110 101.626  13.488  0.00  0.00    +0.000 C 
ENDBRANCH  32  33
ENDBRANCH  29  32
ENDBRANCH  24  26
ENDBRANCH   3  24
TORSDOF 7
ENDMDL
MODEL 6
REMARK VINA RESULT:      -6.1     13.713     15.994
REMARK  Name = OTSSP167.pdbqt.pdb
REMARK  7 active torsions:
REMARK  status: ('A' for Active; 'I' for Inactive)
REMARK    1  A    between atoms: C_5  and  N_19
REMARK    2  A    between atoms: C_7  and  C_31
REMARK    3  A    between atoms: C_11  and  C_13
REMARK    4  A    between atoms: C_18  and  O_34
REMARK    5  A    between atoms: N_19  and  C_21
REMARK    6  A    between atoms: C_24  and  C_27
REMARK    7  A    between atoms: C_27  and  N_28
REMARK                            x       y       z     vdW  Elec       q    Type
REMARK                         _______ _______ _______ _____ _____    ______ ____
ROOT
ATOM      1  N   UNL     1     -41.201 103.277   4.818  0.00  0.00    +0.000 NA
ATOM      2  N   UNL     1     -39.124 106.017   6.055  0.00  0.00    +0.000 NA
ATOM      3  C   UNL     1     -38.830 103.709   4.470  0.00  0.00    +0.000 A 
ATOM      4  C   UNL     1     -40.099 104.045   5.011  0.00  0.00    +0.000 A 
ATOM      5  C   UNL     1     -37.738 104.555   4.753  0.00  0.00    +0.000 A 
ATOM      6  C   UNL     1     -40.169 105.214   5.798  0.00  0.00    +0.000 A 
ATOM      7  C   UNL     1     -37.932 105.674   5.533  0.00  0.00    +0.000 A 
ATOM      8  C   UNL     1     -41.399 105.545   6.338  0.00  0.00    +0.000 A 
ATOM      9  C   UNL     1     -42.395 103.629   5.352  0.00  0.00    +0.000 A 
ATOM     10  C   UNL     1     -42.527 104.766   6.126  0.00  0.00    +0.000 A 
ENDROOT
BRANCH   9  13
ATOM     11 CL   UNL     1     -44.595 100.322   2.048  0.00  0.00    +0.000 Cl
ATOM     12 CL   UNL     1     -46.985 101.703   6.746  0.00  0.00    +0.000 Cl
ATOM     13  C   UNL     1     -43.525 102.748   5.046  0.00  0.00    +0.000 A 
ATOM     14  C   UNL     1     -44.616 102.620   5.913  0.00  0.00    +0.000 A 
ATOM     15  C   UNL     1     -43.555 102.007   3.857  0.00  0.00    +0.000 A 
ATOM     16  C   UNL     1     -44.629 101.178   3.541  0.00  0.00    +0.000 A 
ATOM     17  C   UNL     1     -45.695 101.788   5.609  0.00  0.00    +0.000 A 
ATOM     18  C   UNL     1     -45.706 101.062   4.418  0.00  0.00    +0.000 A 
BRANCH  18  19
ATOM     19  O   UNL     1     -46.769 100.249   4.124  0.00  0.00    +0.000 OA
ATOM     20  H   UNL     1     -46.424  99.378   3.855  0.00  0.00    +0.000 HD
ENDBRANCH  18  19
ENDBRANCH   9  13
BRANCH   5  21
ATOM     21  C   UNL     1     -36.379 104.286   4.291  0.00  0.00    +0.000 C 
ATOM     22  O   UNL     1     -35.934 103.180   4.031  0.00  0.00    +0.000 OA
ATOM     23  C   UNL     1     -35.329 105.341   4.120  0.00  0.00    +0.000 C 
ENDBRANCH   5  21
BRANCH   3  24
ATOM     24  N   UNL     1     -38.631 102.612   3.571  0.00  0.00    +0.000 N 
ATOM     25  H   UNL     1     -38.563 101.697   4.025  0.00  0.00    +0.000 HD
BRANCH  24  26
ATOM     26  C   UNL     1     -38.973 102.539   2.249  0.00  0.00    +0.000 A 
ATOM     27  C   UNL     1     -39.005 103.769   1.499  0.00  0.00    +0.000 A 
ATOM     28  C   UNL     1     -40.069 104.170   0.445  0.00  0.00    +0.000 A 
ATOM     29  C   UNL     1     -41.202 103.360   0.067  0.00  0.00    +0.000 A 
ATOM     30  C   UNL     1     -41.187 102.140   0.834  0.00  0.00    +0.000 A 
ATOM     31  C   UNL     1     -40.122 101.745   1.887  0.00  0.00    +0.000 A 
BRANCH  29  32
ATOM     32  C   UNL     1     -42.100 103.649  -0.985  0.00  0.00    +0.000 C 
BRANCH  32  33
ATOM     33  N   UNL     1     -43.037 103.937  -2.057  0.00  0.00    +0.000 NA
ATOM     34  C   UNL     1     -43.321 102.682  -2.734  0.00  0.00    +0.000 C 
ATOM     35  C   UNL     1     -42.352 104.792  -3.013  0.00  0.00    +0.000 C 
ENDBRANCH  32  33
ENDBRANCH  29  32
ENDBRANCH  24  26
ENDBRANCH   3  24
TORSDOF 7
ENDMDL
MODEL 7
REMARK VINA RESULT:      -6.1     13.726     16.516
REMARK  Name = OTSSP167.pdbqt.pdb
REMARK  7 active torsions:
REMARK  status: ('A' for Active; 'I' for Inactive)
REMARK    1  A    between atoms: C_5  and  N_19
REMARK    2  A    between atoms: C_7  and  C_31
REMARK    3  A    between atoms: C_11  and  C_13
REMARK    4  A    between atoms: C_18  and  O_34
REMARK    5  A    between atoms: N_19  and  C_21
REMARK    6  A    between atoms: C_24  and  C_27
REMARK    7  A    between atoms: C_27  and  N_28
REMARK                            x       y       z     vdW  Elec       q    Type
REMARK                         _______ _______ _______ _____ _____    ______ ____
ROOT
ATOM      1  N   UNL     1     -37.710 104.138   1.041  0.00  0.00    +0.000 NA
ATOM      2  N   UNL     1     -41.332 104.533   1.324  0.00  0.00    +0.000 NA
ATOM      3  C   UNL     1     -39.248 103.228   2.695  0.00  0.00    +0.000 A 
ATOM      4  C   UNL     1     -38.964 104.007   1.543  0.00  0.00    +0.000 A 
ATOM      5  C   UNL     1     -40.589 103.128   3.120  0.00  0.00    +0.000 A 
ATOM      6  C   UNL     1     -40.059 104.629   0.906  0.00  0.00    +0.000 A 
ATOM      7  C   UNL     1     -41.573 103.786   2.417  0.00  0.00    +0.000 A 
ATOM      8  C   UNL     1     -39.795 105.381  -0.224  0.00  0.00    +0.000 A 
ATOM      9  C   UNL     1     -37.479 104.889  -0.063  0.00  0.00    +0.000 A 
ATOM     10  C   UNL     1     -38.510 105.526  -0.725  0.00  0.00    +0.000 A 
ENDROOT
BRANCH   9  13
ATOM     11 CL   UNL     1     -32.712 106.617   0.930  0.00  0.00    +0.000 Cl
ATOM     12 CL   UNL     1     -33.879 103.873  -3.631  0.00  0.00    +0.000 Cl
ATOM     13  C   UNL     1     -36.082 104.992  -0.492  0.00  0.00    +0.000 A 
ATOM     14  C   UNL     1     -35.643 104.457  -1.709  0.00  0.00    +0.000 A 
ATOM     15  C   UNL     1     -35.134 105.649   0.303  0.00  0.00    +0.000 A 
ATOM     16  C   UNL     1     -33.805 105.773  -0.098  0.00  0.00    +0.000 A 
ATOM     17  C   UNL     1     -34.313 104.569  -2.117  0.00  0.00    +0.000 A 
ATOM     18  C   UNL     1     -33.386 105.231  -1.311  0.00  0.00    +0.000 A 
BRANCH  18  19
ATOM     19  O   UNL     1     -32.083 105.342  -1.719  0.00  0.00    +0.000 OA
ATOM     20  H   UNL     1     -31.642 104.484  -1.575  0.00  0.00    +0.000 HD
ENDBRANCH  18  19
ENDBRANCH   9  13
BRANCH   5  21
ATOM     21  C   UNL     1     -41.005 102.318   4.263  0.00  0.00    +0.000 C 
ATOM     22  O   UNL     1     -40.756 102.574   5.429  0.00  0.00    +0.000 OA
ATOM     23  C   UNL     1     -41.760 101.029   4.144  0.00  0.00    +0.000 C 
ENDBRANCH   5  21
BRANCH   3  24
ATOM     24  N   UNL     1     -38.228 102.627   3.501  0.00  0.00    +0.000 N 
ATOM     25  H   UNL     1     -37.947 101.689   3.200  0.00  0.00    +0.000 HD
BRANCH  24  26
ATOM     26  C   UNL     1     -37.289 103.255   4.272  0.00  0.00    +0.000 A 
ATOM     27  C   UNL     1     -37.712 104.400   5.037  0.00  0.00    +0.000 A 
ATOM     28  C   UNL     1     -36.913 105.714   5.235  0.00  0.00    +0.000 A 
ATOM     29  C   UNL     1     -35.616 105.984   4.663  0.00  0.00    +0.000 A 
ATOM     30  C   UNL     1     -35.201 104.851   3.875  0.00  0.00    +0.000 A 
ATOM     31  C   UNL     1     -36.005 103.541   3.680  0.00  0.00    +0.000 A 
BRANCH  29  32
ATOM     32  C   UNL     1     -34.818 107.115   4.944  0.00  0.00    +0.000 C 
BRANCH  32  33
ATOM     33  N   UNL     1     -34.013 108.289   5.236  0.00  0.00    +0.000 NA
ATOM     34  C   UNL     1     -32.810 108.204   4.423  0.00  0.00    +0.000 C 
ATOM     35  C   UNL     1     -33.596 108.194   6.625  0.00  0.00    +0.000 C 
ENDBRANCH  32  33
ENDBRANCH  29  32
ENDBRANCH  24  26
ENDBRANCH   3  24
TORSDOF 7
ENDMDL
MODEL 8
REMARK VINA RESULT:      -6.0     11.399     15.580
REMARK  Name = OTSSP167.pdbqt.pdb
REMARK  7 active torsions:
REMARK  status: ('A' for Active; 'I' for Inactive)
REMARK    1  A    between atoms: C_5  and  N_19
REMARK    2  A    between atoms: C_7  and  C_31
REMARK    3  A    between atoms: C_11  and  C_13
REMARK    4  A    between atoms: C_18  and  O_34
REMARK    5  A    between atoms: N_19  and  C_21
REMARK    6  A    between atoms: C_24  and  C_27
REMARK    7  A    between atoms: C_27  and  N_28
REMARK                            x       y       z     vdW  Elec       q    Type
REMARK                         _______ _______ _______ _____ _____    ______ ____
ROOT
ATOM      1  N   UNL     1     -30.030  87.736  16.280  0.00  0.00    +0.000 NA
ATOM      2  N   UNL     1     -27.139  89.309  14.694  0.00  0.00    +0.000 NA
ATOM      3  C   UNL     1     -28.193  86.722  15.045  0.00  0.00    +0.000 A 
ATOM      4  C   UNL     1     -28.877  87.848  15.574  0.00  0.00    +0.000 A 
ATOM      5  C   UNL     1     -26.984  86.940  14.352  0.00  0.00    +0.000 A 
ATOM      6  C   UNL     1     -28.287  89.112  15.362  0.00  0.00    +0.000 A 
ATOM      7  C   UNL     1     -26.510  88.224  14.205  0.00  0.00    +0.000 A 
ATOM      8  C   UNL     1     -28.939  90.215  15.883  0.00  0.00    +0.000 A 
ATOM      9  C   UNL     1     -30.653  88.835  16.772  0.00  0.00    +0.000 A 
ATOM     10  C   UNL     1     -30.127  90.099  16.590  0.00  0.00    +0.000 A 
ENDROOT
BRANCH   9  13
ATOM     11 CL   UNL     1     -33.813  90.168  20.636  0.00  0.00    +0.000 Cl
ATOM     12 CL   UNL     1     -34.990  86.063  17.251  0.00  0.00    +0.000 Cl
ATOM     13  C   UNL     1     -31.912  88.598  17.483  0.00  0.00    +0.000 A 
ATOM     14  C   UNL     1     -32.790  87.575  17.108  0.00  0.00    +0.000 A 
ATOM     15  C   UNL     1     -32.274  89.387  18.583  0.00  0.00    +0.000 A 
ATOM     16  C   UNL     1     -33.458  89.165  19.283  0.00  0.00    +0.000 A 
ATOM     17  C   UNL     1     -33.982  87.347  17.798  0.00  0.00    +0.000 A 
ATOM     18  C   UNL     1     -34.321  88.143  18.892  0.00  0.00    +0.000 A 
BRANCH  18  19
ATOM     19  O   UNL     1     -35.490  87.912  19.568  0.00  0.00    +0.000 OA
ATOM     20  H   UNL     1     -36.202  88.417  19.132  0.00  0.00    +0.000 HD
ENDBRANCH  18  19
ENDBRANCH   9  13
BRANCH   5  21
ATOM     21  C   UNL     1     -26.171  85.856  13.806  0.00  0.00    +0.000 C 
ATOM     22  O   UNL     1     -25.716  84.928  14.453  0.00  0.00    +0.000 OA
ATOM     23  C   UNL     1     -25.748  85.770  12.371  0.00  0.00    +0.000 C 
ENDBRANCH   5  21
BRANCH   3  24
ATOM     24  N   UNL     1     -28.725  85.393  15.093  0.00  0.00    +0.000 N 
ATOM     25  H   UNL     1     -28.969  85.068  16.033  0.00  0.00    +0.000 HD
BRANCH  24  26
ATOM     26  C   UNL     1     -29.364  84.709  14.098  0.00  0.00    +0.000 A 
ATOM     27  C   UNL     1     -29.072  83.305  13.959  0.00  0.00    +0.000 A 
ATOM     28  C   UNL     1     -28.876  82.540  12.624  0.00  0.00    +0.000 A 
ATOM     29  C   UNL     1     -28.950  83.136  11.312  0.00  0.00    +0.000 A 
ATOM     30  C   UNL     1     -29.217  84.546  11.449  0.00  0.00    +0.000 A 
ATOM     31  C   UNL     1     -29.410  85.306  12.784  0.00  0.00    +0.000 A 
BRANCH  29  32
ATOM     32  C   UNL     1     -28.910  82.430  10.090  0.00  0.00    +0.000 C 
BRANCH  32  33
ATOM     33  N   UNL     1     -28.889  81.702   8.833  0.00  0.00    +0.000 NA
ATOM     34  C   UNL     1     -30.205  81.114   8.648  0.00  0.00    +0.000 C 
ATOM     35  C   UNL     1     -27.949  80.604   8.983  0.00  0.00    +0.000 C 
ENDBRANCH  32  33
ENDBRANCH  29  32
ENDBRANCH  24  26
ENDBRANCH   3  24
TORSDOF 7
ENDMDL
MODEL 9
REMARK VINA RESULT:      -6.0     14.186     17.965
REMARK  Name = OTSSP167.pdbqt.pdb
REMARK  7 active torsions:
REMARK  status: ('A' for Active; 'I' for Inactive)
REMARK    1  A    between atoms: C_5  and  N_19
REMARK    2  A    between atoms: C_7  and  C_31
REMARK    3  A    between atoms: C_11  and  C_13
REMARK    4  A    between atoms: C_18  and  O_34
REMARK    5  A    between atoms: N_19  and  C_21
REMARK    6  A    between atoms: C_24  and  C_27
REMARK    7  A    between atoms: C_27  and  N_28
REMARK                            x       y       z     vdW  Elec       q    Type
REMARK                         _______ _______ _______ _____ _____    ______ ____
ROOT
ATOM      1  N   UNL     1     -38.302 103.299   2.078  0.00  0.00    +0.000 NA
ATOM      2  N   UNL     1     -35.436 104.576   3.950  0.00  0.00    +0.000 NA
ATOM      3  C   UNL     1     -36.420 104.640   1.313  0.00  0.00    +0.000 A 
ATOM      4  C   UNL     1     -37.144 103.959   2.327  0.00  0.00    +0.000 A 
ATOM      5  C   UNL     1     -35.208 105.270   1.666  0.00  0.00    +0.000 A 
ATOM      6  C   UNL     1     -36.587 103.967   3.624  0.00  0.00    +0.000 A 
ATOM      7  C   UNL     1     -34.769 105.211   2.970  0.00  0.00    +0.000 A 
ATOM      8  C   UNL     1     -37.279 103.296   4.617  0.00  0.00    +0.000 A 
ATOM      9  C   UNL     1     -38.964 102.658   3.073  0.00  0.00    +0.000 A 
ATOM     10  C   UNL     1     -38.472 102.636   4.363  0.00  0.00    +0.000 A 
ENDROOT
BRANCH   9  13
ATOM     11 CL   UNL     1     -41.917 100.666  -0.670  0.00  0.00    +0.000 Cl
ATOM     12 CL   UNL     1     -43.592 100.861   4.511  0.00  0.00    +0.000 Cl
ATOM     13  C   UNL     1     -40.225 102.014   2.697  0.00  0.00    +0.000 A 
ATOM     14  C   UNL     1     -41.226 101.748   3.639  0.00  0.00    +0.000 A 
ATOM     15  C   UNL     1     -40.479 101.652   1.368  0.00  0.00    +0.000 A 
ATOM     16  C   UNL     1     -41.679 101.056   0.990  0.00  0.00    +0.000 A 
ATOM     17  C   UNL     1     -42.430 101.145   3.273  0.00  0.00    +0.000 A 
ATOM     18  C   UNL     1     -42.663 100.796   1.943  0.00  0.00    +0.000 A 
BRANCH  18  19
ATOM     19  O   UNL     1     -43.849 100.209   1.588  0.00  0.00    +0.000 OA
ATOM     20  H   UNL     1     -44.140  99.637   2.324  0.00  0.00    +0.000 HD
ENDBRANCH  18  19
ENDBRANCH   9  13
BRANCH   5  21
ATOM     21  C   UNL     1     -34.357 105.959   0.700  0.00  0.00    +0.000 C 
ATOM     22  O   UNL     1     -33.962 105.483  -0.351  0.00  0.00    +0.000 OA
ATOM     23  C   UNL     1     -33.812 107.341   0.901  0.00  0.00    +0.000 C 
ENDBRANCH   5  21
BRANCH   3  24
ATOM     24  N   UNL     1     -36.913 104.804  -0.021  0.00  0.00    +0.000 N 
ATOM     25  H   UNL     1     -37.034 103.929  -0.539  0.00  0.00    +0.000 HD
BRANCH  24  26
ATOM     26  C   UNL     1     -37.654 105.839  -0.520  0.00  0.00    +0.000 A 
ATOM     27  C   UNL     1     -39.089 105.721  -0.463  0.00  0.00    +0.000 A 
ATOM     28  C   UNL     1     -40.086 106.140  -1.574  0.00  0.00    +0.000 A 
ATOM     29  C   UNL     1     -39.712 106.707  -2.848  0.00  0.00    +0.000 A 
ATOM     30  C   UNL     1     -38.275 106.802  -2.918  0.00  0.00    +0.000 A 
ATOM     31  C   UNL     1     -37.284 106.381  -1.806  0.00  0.00    +0.000 A 
BRANCH  29  32
ATOM     32  C   UNL     1     -40.609 107.219  -3.811  0.00  0.00    +0.000 C 
BRANCH  32  33
ATOM     33  N   UNL     1     -41.533 107.728  -4.809  0.00  0.00    +0.000 NA
ATOM     34  C   UNL     1     -42.714 106.880  -4.781  0.00  0.00    +0.000 C 
ATOM     35  C   UNL     1     -40.910 107.546  -6.110  0.00  0.00    +0.000 C 
ENDBRANCH  32  33
ENDBRANCH  29  32
ENDBRANCH  24  26
ENDBRANCH   3  24
TORSDOF 7
ENDMDL
