MODEL 1
REMARK VINA RESULT:      -6.1      0.000      0.000
REMARK  Name = 
REMARK  0 active torsions:
REMARK  status: ('A' for Active; 'I' for Inactive)
REMARK                            x       y       z     vdW  Elec       q    Type
REMARK                         _______ _______ _______ _____ _____    ______ ____
ROOT
ATOM      1  O   UNL     1     -32.208 101.198  17.227  0.00  0.00    +0.000 OA
ATOM      2  O   UNL     1     -36.217  98.623  15.118  0.00  0.00    +0.000 OA
ATOM      3  N   UNL     1     -31.062 100.576  16.817  0.00  0.00    +0.000 N 
ATOM      4  N   UNL     1     -34.096  99.502  14.832  0.00  0.00    +0.000 N 
ATOM      5  C   UNL     1     -31.292  99.611  15.638  0.00  0.00    +0.000 C 
ATOM      6  C   UNL     1     -31.790 100.321  14.364  0.00  0.00    +0.000 C 
ATOM      7  C   UNL     1     -32.190  98.421  15.999  0.00  0.00    +0.000 C 
ATOM      8  C   UNL     1     -33.299 100.689  14.447  0.00  0.00    +0.000 C 
ATOM      9  C   UNL     1     -30.838 101.478  14.010  0.00  0.00    +0.000 C 
ATOM     10  C   UNL     1     -33.665  98.817  16.054  0.00  0.00    +0.000 C 
ATOM     11  C   UNL     1     -30.074 101.643  16.395  0.00  0.00    +0.000 C 
ATOM     12  C   UNL     1     -31.715  97.719  17.278  0.00  0.00    +0.000 C 
ATOM     13  C   UNL     1     -30.493  99.799  17.986  0.00  0.00    +0.000 C 
ATOM     14  C   UNL     1     -30.577 102.416  15.182  0.00  0.00    +0.000 C 
ATOM     15  C   UNL     1     -31.433  98.683  18.424  0.00  0.00    +0.000 C 
ATOM     16  C   UNL     1     -33.783 101.305  13.124  0.00  0.00    +0.000 C 
ATOM     17  C   UNL     1     -35.287 101.498  13.154  0.00  0.00    +0.000 C 
ATOM     18  C   UNL     1     -35.455  99.393  14.531  0.00  0.00    +0.000 C 
ATOM     19  C   UNL     1     -35.953 100.151  13.321  0.00  0.00    +0.000 C 
ENDROOT
TORSDOF 0
ENDMDL
MODEL 2
REMARK VINA RESULT:      -5.8      2.071      4.843
REMARK  Name = 
REMARK  0 active torsions:
REMARK  status: ('A' for Active; 'I' for Inactive)
REMARK                            x       y       z     vdW  Elec       q    Type
REMARK                         _______ _______ _______ _____ _____    ______ ____
ROOT
ATOM      1  O   UNL     1     -31.683 101.565  16.844  0.00  0.00    +0.000 OA
ATOM      2  O   UNL     1     -29.247  97.656  19.280  0.00  0.00    +0.000 OA
ATOM      3  N   UNL     1     -31.564 101.347  15.500  0.00  0.00    +0.000 N 
ATOM      4  N   UNL     1     -30.650  98.310  17.559  0.00  0.00    +0.000 N 
ATOM      5  C   UNL     1     -31.107  99.914  15.164  0.00  0.00    +0.000 C 
ATOM      6  C   UNL     1     -32.113  98.837  15.615  0.00  0.00    +0.000 C 
ATOM      7  C   UNL     1     -29.693  99.598  15.666  0.00  0.00    +0.000 C 
ATOM      8  C   UNL     1     -32.047  98.572  17.146  0.00  0.00    +0.000 C 
ATOM      9  C   UNL     1     -33.509  99.165  15.053  0.00  0.00    +0.000 C 
ATOM     10  C   UNL     1     -29.669  99.327  17.169  0.00  0.00    +0.000 C 
ATOM     11  C   UNL     1     -32.914 101.596  14.862  0.00  0.00    +0.000 C 
ATOM     12  C   UNL     1     -28.685 100.675  15.241  0.00  0.00    +0.000 C 
ATOM     13  C   UNL     1     -30.555 102.329  14.942  0.00  0.00    +0.000 C 
ATOM     14  C   UNL     1     -33.951 100.592  15.350  0.00  0.00    +0.000 C 
ATOM     15  C   UNL     1     -29.167 102.093  15.522  0.00  0.00    +0.000 C 
ATOM     16  C   UNL     1     -32.992  97.427  17.542  0.00  0.00    +0.000 C 
ATOM     17  C   UNL     1     -32.791  97.061  19.000  0.00  0.00    +0.000 C 
ATOM     18  C   UNL     1     -30.343  97.596  18.720  0.00  0.00    +0.000 C 
ATOM     19  C   UNL     1     -31.368  96.592  19.198  0.00  0.00    +0.000 C 
ENDROOT
TORSDOF 0
ENDMDL
MODEL 3
REMARK VINA RESULT:      -5.8      2.180      3.711
REMARK  Name = 
REMARK  0 active torsions:
REMARK  status: ('A' for Active; 'I' for Inactive)
REMARK                            x       y       z     vdW  Elec       q    Type
REMARK                         _______ _______ _______ _____ _____    ______ ____
ROOT
ATOM      1  O   UNL     1     -32.451 101.045  17.010  0.00  0.00    +0.000 OA
ATOM      2  O   UNL     1     -32.867  96.065  18.486  0.00  0.00    +0.000 OA
ATOM      3  N   UNL     1     -32.249 101.055  15.658  0.00  0.00    +0.000 N 
ATOM      4  N   UNL     1     -33.416  97.692  16.934  0.00  0.00    +0.000 N 
ATOM      5  C   UNL     1     -32.565  99.701  14.994  0.00  0.00    +0.000 C 
ATOM      6  C   UNL     1     -34.045  99.292  15.132  0.00  0.00    +0.000 C 
ATOM      7  C   UNL     1     -31.632  98.573  15.449  0.00  0.00    +0.000 C 
ATOM      8  C   UNL     1     -34.377  98.751  16.552  0.00  0.00    +0.000 C 
ATOM      9  C   UNL     1     -34.947 100.431  14.622  0.00  0.00    +0.000 C 
ATOM     10  C   UNL     1     -31.999  98.056  16.840  0.00  0.00    +0.000 C 
ATOM     11  C   UNL     1     -33.142 102.120  15.056  0.00  0.00    +0.000 C 
ATOM     12  C   UNL     1     -30.156  98.976  15.336  0.00  0.00    +0.000 C 
ATOM     13  C   UNL     1     -30.799 101.407  15.392  0.00  0.00    +0.000 C 
ATOM     14  C   UNL     1     -34.615 101.780  15.247  0.00  0.00    +0.000 C 
ATOM     15  C   UNL     1     -29.858 100.343  15.942  0.00  0.00    +0.000 C 
ATOM     16  C   UNL     1     -35.833  98.263  16.622  0.00  0.00    +0.000 C 
ATOM     17  C   UNL     1     -36.094  97.580  17.951  0.00  0.00    +0.000 C 
ATOM     18  C   UNL     1     -33.723  96.724  17.892  0.00  0.00    +0.000 C 
ATOM     19  C   UNL     1     -35.184  96.379  18.074  0.00  0.00    +0.000 C 
ENDROOT
TORSDOF 0
ENDMDL
MODEL 4
REMARK VINA RESULT:      -5.7     13.147     16.546
REMARK  Name = 
REMARK  0 active torsions:
REMARK  status: ('A' for Active; 'I' for Inactive)
REMARK                            x       y       z     vdW  Elec       q    Type
REMARK                         _______ _______ _______ _____ _____    ______ ____
ROOT
ATOM      1  O   UNL     1     -42.627 103.663   1.532  0.00  0.00    +0.000 OA
ATOM      2  O   UNL     1     -37.675 102.272   2.365  0.00  0.00    +0.000 OA
ATOM      3  N   UNL     1     -43.384 102.526   1.575  0.00  0.00    +0.000 N 
ATOM      4  N   UNL     1     -39.899 102.014   2.951  0.00  0.00    +0.000 N 
ATOM      5  C   UNL     1     -42.634 101.329   2.191  0.00  0.00    +0.000 C 
ATOM      6  C   UNL     1     -42.241 101.556   3.664  0.00  0.00    +0.000 C 
ATOM      7  C   UNL     1     -41.428 100.880   1.357  0.00  0.00    +0.000 C 
ATOM      8  C   UNL     1     -41.007 102.492   3.808  0.00  0.00    +0.000 C 
ATOM      9  C   UNL     1     -43.486 101.960   4.476  0.00  0.00    +0.000 C 
ATOM     10  C   UNL     1     -40.231 101.813   1.537  0.00  0.00    +0.000 C 
ATOM     11  C   UNL     1     -44.618 102.814   2.405  0.00  0.00    +0.000 C 
ATOM     12  C   UNL     1     -41.802 100.672  -0.117  0.00  0.00    +0.000 C 
ATOM     13  C   UNL     1     -43.800 102.172   0.162  0.00  0.00    +0.000 C 
ATOM     14  C   UNL     1     -44.253 103.119   3.853  0.00  0.00    +0.000 C 
ATOM     15  C   UNL     1     -42.595 101.832  -0.705  0.00  0.00    +0.000 C 
ATOM     16  C   UNL     1     -40.586 102.615   5.281  0.00  0.00    +0.000 C 
ATOM     17  C   UNL     1     -39.284 103.384   5.393  0.00  0.00    +0.000 C 
ATOM     18  C   UNL     1     -38.567 102.339   3.213  0.00  0.00    +0.000 C 
ATOM     19  C   UNL     1     -38.203 102.631   4.651  0.00  0.00    +0.000 C 
ENDROOT
TORSDOF 0
ENDMDL
MODEL 5
REMARK VINA RESULT:      -5.6      1.810      2.352
REMARK  Name = 
REMARK  0 active torsions:
REMARK  status: ('A' for Active; 'I' for Inactive)
REMARK                            x       y       z     vdW  Elec       q    Type
REMARK                         _______ _______ _______ _____ _____    ______ ____
ROOT
ATOM      1  O   UNL     1     -31.008 100.489  18.081  0.00  0.00    +0.000 OA
ATOM      2  O   UNL     1     -35.506  97.874  18.350  0.00  0.00    +0.000 OA
ATOM      3  N   UNL     1     -30.063  99.629  17.595  0.00  0.00    +0.000 N 
ATOM      4  N   UNL     1     -33.587  98.335  17.141  0.00  0.00    +0.000 N 
ATOM      5  C   UNL     1     -30.673  98.360  16.969  0.00  0.00    +0.000 C 
ATOM      6  C   UNL     1     -31.554  98.657  15.739  0.00  0.00    +0.000 C 
ATOM      7  C   UNL     1     -31.414  97.482  17.985  0.00  0.00    +0.000 C 
ATOM      8  C   UNL     1     -32.951  99.215  16.135  0.00  0.00    +0.000 C 
ATOM      9  C   UNL     1     -30.760  99.500  14.724  0.00  0.00    +0.000 C 
ATOM     10  C   UNL     1     -32.787  98.053  18.337  0.00  0.00    +0.000 C 
ATOM     11  C   UNL     1     -29.258 100.360  16.541  0.00  0.00    +0.000 C 
ATOM     12  C   UNL     1     -30.554  97.197  19.223  0.00  0.00    +0.000 C 
ATOM     13  C   UNL     1     -29.150  99.226  18.734  0.00  0.00    +0.000 C 
ATOM     14  C   UNL     1     -30.124 100.736  15.345  0.00  0.00    +0.000 C 
ATOM     15  C   UNL     1     -29.905  98.448  19.805  0.00  0.00    +0.000 C 
ATOM     16  C   UNL     1     -33.834  99.406  14.892  0.00  0.00    +0.000 C 
ATOM     17  C   UNL     1     -35.245  99.783  15.304  0.00  0.00    +0.000 C 
ATOM     18  C   UNL     1     -34.972  98.301  17.325  0.00  0.00    +0.000 C 
ATOM     19  C   UNL     1     -35.830  98.664  16.135  0.00  0.00    +0.000 C 
ENDROOT
TORSDOF 0
ENDMDL
MODEL 6
REMARK VINA RESULT:      -5.5      1.883      5.406
REMARK  Name = 
REMARK  0 active torsions:
REMARK  status: ('A' for Active; 'I' for Inactive)
REMARK                            x       y       z     vdW  Elec       q    Type
REMARK                         _______ _______ _______ _____ _____    ______ ____
ROOT
ATOM      1  O   UNL     1     -34.981 101.979  16.205  0.00  0.00    +0.000 OA
ATOM      2  O   UNL     1     -30.192 100.982  14.412  0.00  0.00    +0.000 OA
ATOM      3  N   UNL     1     -35.865 101.656  15.213  0.00  0.00    +0.000 N 
ATOM      4  N   UNL     1     -32.395 100.293  14.578  0.00  0.00    +0.000 N 
ATOM      5  C   UNL     1     -35.229 100.804  14.098  0.00  0.00    +0.000 C 
ATOM      6  C   UNL     1     -34.732  99.432  14.596  0.00  0.00    +0.000 C 
ATOM      7  C   UNL     1     -34.133 101.545  13.323  0.00  0.00    +0.000 C 
ATOM      8  C   UNL     1     -33.389  99.538  15.374  0.00  0.00    +0.000 C 
ATOM      9  C   UNL     1     -35.873  98.701  15.327  0.00  0.00    +0.000 C 
ATOM     10  C   UNL     1     -32.826 101.614  14.111  0.00  0.00    +0.000 C 
ATOM     11  C   UNL     1     -37.008 100.882  15.835  0.00  0.00    +0.000 C 
ATOM     12  C   UNL     1     -34.610 102.921  12.840  0.00  0.00    +0.000 C 
ATOM     13  C   UNL     1     -36.397 102.939  14.610  0.00  0.00    +0.000 C 
ATOM     14  C   UNL     1     -36.530  99.552  16.406  0.00  0.00    +0.000 C 
ATOM     15  C   UNL     1     -35.290 103.738  13.932  0.00  0.00    +0.000 C 
ATOM     16  C   UNL     1     -32.876  98.144  15.768  0.00  0.00    +0.000 C 
ATOM     17  C   UNL     1     -31.487  98.246  16.369  0.00  0.00    +0.000 C 
ATOM     18  C   UNL     1     -31.021 100.147  14.780  0.00  0.00    +0.000 C 
ATOM     19  C   UNL     1     -30.546  98.824  15.337  0.00  0.00    +0.000 C 
ENDROOT
TORSDOF 0
ENDMDL
MODEL 7
REMARK VINA RESULT:      -5.5     13.054     14.982
REMARK  Name = 
REMARK  0 active torsions:
REMARK  status: ('A' for Active; 'I' for Inactive)
REMARK                            x       y       z     vdW  Elec       q    Type
REMARK                         _______ _______ _______ _____ _____    ______ ____
ROOT
ATOM      1  O   UNL     1     -21.707 102.706   5.406  0.00  0.00    +0.000 OA
ATOM      2  O   UNL     1     -20.585  97.852   3.877  0.00  0.00    +0.000 OA
ATOM      3  N   UNL     1     -23.011 102.714   5.817  0.00  0.00    +0.000 N 
ATOM      4  N   UNL     1     -21.623  99.217   5.432  0.00  0.00    +0.000 N 
ATOM      5  C   UNL     1     -23.579 101.298   6.038  0.00  0.00    +0.000 C 
ATOM      6  C   UNL     1     -22.854 100.525   7.157  0.00  0.00    +0.000 C 
ATOM      7  C   UNL     1     -23.654 100.471   4.749  0.00  0.00    +0.000 C 
ATOM      8  C   UNL     1     -21.475  99.974   6.696  0.00  0.00    +0.000 C 
ATOM      9  C   UNL     1     -22.840 101.369   8.445  0.00  0.00    +0.000 C 
ATOM     10  C   UNL     1     -22.285  99.933   4.337  0.00  0.00    +0.000 C 
ATOM     11  C   UNL     1     -23.089 103.485   7.118  0.00  0.00    +0.000 C 
ATOM     12  C   UNL     1     -24.355 101.239   3.621  0.00  0.00    +0.000 C 
ATOM     13  C   UNL     1     -23.841 103.419   4.765  0.00  0.00    +0.000 C 
ATOM     14  C   UNL     1     -22.314 102.781   8.226  0.00  0.00    +0.000 C 
ATOM     15  C   UNL     1     -23.830 102.659   3.445  0.00  0.00    +0.000 C 
ATOM     16  C   UNL     1     -20.828  99.127   7.803  0.00  0.00    +0.000 C 
ATOM     17  C   UNL     1     -19.572  98.453   7.284  0.00  0.00    +0.000 C 
ATOM     18  C   UNL     1     -20.703  98.241   5.041  0.00  0.00    +0.000 C 
ATOM     19  C   UNL     1     -19.943  97.536   6.141  0.00  0.00    +0.000 C 
ENDROOT
TORSDOF 0
ENDMDL
MODEL 8
REMARK VINA RESULT:      -5.5     13.771     15.938
REMARK  Name = 
REMARK  0 active torsions:
REMARK  status: ('A' for Active; 'I' for Inactive)
REMARK                            x       y       z     vdW  Elec       q    Type
REMARK                         _______ _______ _______ _____ _____    ______ ____
ROOT
ATOM      1  O   UNL     1     -41.785 103.492   1.939  0.00  0.00    +0.000 OA
ATOM      2  O   UNL     1     -43.634 103.746   6.804  0.00  0.00    +0.000 OA
ATOM      3  N   UNL     1     -41.003 102.375   1.857  0.00  0.00    +0.000 N 
ATOM      4  N   UNL     1     -43.155 102.424   4.965  0.00  0.00    +0.000 N 
ATOM      5  C   UNL     1     -41.209 101.410   3.040  0.00  0.00    +0.000 C 
ATOM      6  C   UNL     1     -42.640 100.841   3.113  0.00  0.00    +0.000 C 
ATOM      7  C   UNL     1     -40.778 102.005   4.386  0.00  0.00    +0.000 C 
ATOM      8  C   UNL     1     -43.655 101.871   3.686  0.00  0.00    +0.000 C 
ATOM      9  C   UNL     1     -43.018 100.213   1.759  0.00  0.00    +0.000 C 
ATOM     10  C   UNL     1     -41.807 102.998   4.926  0.00  0.00    +0.000 C 
ATOM     11  C   UNL     1     -41.343 101.655   0.569  0.00  0.00    +0.000 C 
ATOM     12  C   UNL     1     -39.363 102.593   4.320  0.00  0.00    +0.000 C 
ATOM     13  C   UNL     1     -39.551 102.807   1.822  0.00  0.00    +0.000 C 
ATOM     14  C   UNL     1     -42.781 101.149   0.581  0.00  0.00    +0.000 C 
ATOM     15  C   UNL     1     -39.145 103.501   3.116  0.00  0.00    +0.000 C 
ATOM     16  C   UNL     1     -45.048 101.238   3.836  0.00  0.00    +0.000 C 
ATOM     17  C   UNL     1     -45.983 102.191   4.555  0.00  0.00    +0.000 C 
ATOM     18  C   UNL     1     -44.014 102.977   5.919  0.00  0.00    +0.000 C 
ATOM     19  C   UNL     1     -45.437 102.467   5.937  0.00  0.00    +0.000 C 
ENDROOT
TORSDOF 0
ENDMDL
MODEL 9
REMARK VINA RESULT:      -5.2     12.595     14.005
REMARK  Name = 
REMARK  0 active torsions:
REMARK  status: ('A' for Active; 'I' for Inactive)
REMARK                            x       y       z     vdW  Elec       q    Type
REMARK                         _______ _______ _______ _____ _____    ______ ____
ROOT
ATOM      1  O   UNL     1     -20.693 101.134   6.193  0.00  0.00    +0.000 OA
ATOM      2  O   UNL     1     -22.945 105.287   8.390  0.00  0.00    +0.000 OA
ATOM      3  N   UNL     1     -21.556 100.082   6.326  0.00  0.00    +0.000 N 
ATOM      4  N   UNL     1     -23.190 103.414   7.053  0.00  0.00    +0.000 N 
ATOM      5  C   UNL     1     -22.980 100.521   6.719  0.00  0.00    +0.000 C 
ATOM      6  C   UNL     1     -23.655 101.407   5.653  0.00  0.00    +0.000 C 
ATOM      7  C   UNL     1     -23.050 101.171   8.106  0.00  0.00    +0.000 C 
ATOM      8  C   UNL     1     -23.123 102.869   5.678  0.00  0.00    +0.000 C 
ATOM      9  C   UNL     1     -23.605 100.701   4.285  0.00  0.00    +0.000 C 
ATOM     10  C   UNL     1     -22.535 102.609   8.089  0.00  0.00    +0.000 C 
ATOM     11  C   UNL     1     -21.615  99.351   5.001  0.00  0.00    +0.000 C 
ATOM     12  C   UNL     1     -22.362 100.307   9.173  0.00  0.00    +0.000 C 
ATOM     13  C   UNL     1     -21.017  99.150   7.391  0.00  0.00    +0.000 C 
ATOM     14  C   UNL     1     -22.207 100.231   3.907  0.00  0.00    +0.000 C 
ATOM     15  C   UNL     1     -20.978  99.826   8.755  0.00  0.00    +0.000 C 
ATOM     16  C   UNL     1     -23.886 103.744   4.671  0.00  0.00    +0.000 C 
ATOM     17  C   UNL     1     -23.483 105.198   4.827  0.00  0.00    +0.000 C 
ATOM     18  C   UNL     1     -23.240 104.787   7.303  0.00  0.00    +0.000 C 
ATOM     19  C   UNL     1     -23.837 105.660   6.222  0.00  0.00    +0.000 C 
ENDROOT
TORSDOF 0
ENDMDL
