REMARK  Name = 
REMARK  0 active torsions:
REMARK  status: ('A' for Active; 'I' for Inactive)
REMARK                            x       y       z     vdW  Elec       q    Type
REMARK                         _______ _______ _______ _____ _____    ______ ____
ROOT
ATOM      1  O   UNL     1       1.425   0.126   1.579  0.00  0.00    +0.000 OA
ATOM      2  O   UNL     1      -3.075  -2.230   0.418  0.00  0.00    +0.000 OA
ATOM      3  N   UNL     1       2.124   0.270   0.413  0.00  0.00    +0.000 N 
ATOM      4  N   UNL     1      -1.503  -0.633  -0.161  0.00  0.00    +0.000 N 
ATOM      5  C   UNL     1       1.254   0.047  -0.839  0.00  0.00    +0.000 C 
ATOM      6  C   UNL     1       0.115   1.077  -0.974  0.00  0.00    +0.000 C 
ATOM      7  C   UNL     1       0.724  -1.387  -0.958  0.00  0.00    +0.000 C 
ATOM      8  C   UNL     1      -1.070   0.775  -0.013  0.00  0.00    +0.000 C 
ATOM      9  C   UNL     1       0.693   2.502  -0.896  0.00  0.00    +0.000 C 
ATOM     10  C   UNL     1      -0.449  -1.641  -0.012  0.00  0.00    +0.000 C 
ATOM     11  C   UNL     1       2.692   1.673   0.375  0.00  0.00    +0.000 C 
ATOM     12  C   UNL     1       1.846  -2.422  -0.804  0.00  0.00    +0.000 C 
ATOM     13  C   UNL     1       3.260  -0.732   0.408  0.00  0.00    +0.000 C 
ATOM     14  C   UNL     1       1.584   2.718   0.320  0.00  0.00    +0.000 C 
ATOM     15  C   UNL     1       2.740  -2.164   0.403  0.00  0.00    +0.000 C 
ATOM     16  C   UNL     1      -2.225   1.762  -0.245  0.00  0.00    +0.000 C 
ATOM     17  C   UNL     1      -3.437   1.353   0.570  0.00  0.00    +0.000 C 
ATOM     18  C   UNL     1      -2.788  -1.053   0.190  0.00  0.00    +0.000 C 
ATOM     19  C   UNL     1      -3.889  -0.019   0.125  0.00  0.00    +0.000 C 
ENDROOT
TORSDOF 0
