MODEL 1
REMARK VINA RESULT:      -6.2      0.000      0.000
REMARK  Name = 
REMARK  23 active torsions:
REMARK  status: ('A' for Active; 'I' for Inactive)
REMARK    1  A    between atoms: O_2  and  C_17
REMARK    2  A    between atoms: O_2  and  C_36
REMARK    3  A    between atoms: O_3  and  C_20
REMARK    4  A    between atoms: O_3  and  C_37
REMARK    5  A    between atoms: O_4  and  C_21
REMARK    6  A    between atoms: O_5  and  C_22
REMARK    7  A    between atoms: O_6  and  C_30
REMARK    8  A    between atoms: O_6  and  C_39
REMARK    9  A    between atoms: O_8  and  C_31
REMARK   10  A    between atoms: O_8  and  C_40
REMARK   11  A    between atoms: O_13  and  C_42
REMARK   12  A    between atoms: N_15  and  C_46
REMARK   13  A    between atoms: C_18  and  C_29
REMARK   14  A    between atoms: C_24  and  C_33
REMARK   15  A    between atoms: C_24  and  C_34
REMARK   16  A    between atoms: C_32  and  C_35
REMARK   17  A    between atoms: C_36  and  C_38
REMARK   18  A    between atoms: C_37  and  C_41
REMARK   19  A    between atoms: C_39  and  C_43
REMARK   20  A    between atoms: C_40  and  C_42
REMARK   21  A    between atoms: C_42  and  C_46
REMARK   22  A    between atoms: C_46  and  C_50
REMARK   23  A    between atoms: C_53  and  C_56
REMARK                            x       y       z     vdW  Elec       q    Type
REMARK                         _______ _______ _______ _____ _____    ______ ____
ROOT
ATOM      1  O   UNL     1     -28.517  99.188  18.825  0.00  0.00    +0.000 OA
ATOM      2  O   UNL     1     -33.663 101.280  22.513  0.00  0.00    +0.000 OA
ATOM      3  C   UNL     1     -31.825  98.628  19.586  0.00  0.00    +0.000 C 
ATOM      4  C   UNL     1     -30.640  98.992  18.644  0.00  0.00    +0.000 C 
ATOM      5  C   UNL     1     -32.397 100.240  20.406  0.00  0.00    +0.000 C 
ATOM      6  C   UNL     1     -29.602  99.390  19.771  0.00  0.00    +0.000 C 
ATOM      7  C   UNL     1     -33.024  97.451  18.776  0.00  0.00    +0.000 C 
ATOM      8  C   UNL     1     -34.668  96.563  19.086  0.00  0.00    +0.000 C 
ATOM      9  C   UNL     1     -31.119 100.749  21.194  0.00  0.00    +0.000 C 
ATOM     10  C   UNL     1     -29.787 100.760  20.384  0.00  0.00    +0.000 C 
ATOM     11  C   UNL     1     -35.842  96.832  20.388  0.00  0.00    +0.000 C 
ATOM     12  C   UNL     1     -29.375  98.146  18.219  0.00  0.00    +0.000 C 
ATOM     13  C   UNL     1     -33.851 100.473  21.577  0.00  0.00    +0.000 C 
ATOM     14  C   UNL     1     -35.586  96.891  17.821  0.00  0.00    +0.000 C 
ATOM     15  C   UNL     1     -36.292  98.371  20.477  0.00  0.00    +0.000 C 
ATOM     16  C   UNL     1     -32.649 101.400  19.355  0.00  0.00    +0.000 C 
ATOM     17  C   UNL     1     -35.574  99.624  21.547  0.00  0.00    +0.000 C 
ATOM     18  C   UNL     1     -36.626  98.096  17.929  0.00  0.00    +0.000 C 
ATOM     19  C   UNL     1     -36.897  98.789  19.315  0.00  0.00    +0.000 C 
ATOM     20  C   UNL     1     -37.151  95.976  20.002  0.00  0.00    +0.000 C 
ATOM     21  C   UNL     1     -35.625  96.133  21.768  0.00  0.00    +0.000 C 
ATOM     22  C   UNL     1     -37.645 100.096  19.216  0.00  0.00    +0.000 C 
ENDROOT
BRANCH   9  23
ATOM     23  O   UNL     1     -30.907  99.910  22.329  0.00  0.00    +0.000 OA
ATOM     24  H   UNL     1     -29.979 100.048  22.605  0.00  0.00    +0.000 HD
ENDBRANCH   9  23
BRANCH   8  25
ATOM     25  O   UNL     1     -34.366  95.156  19.022  0.00  0.00    +0.000 OA
ATOM     26  H   UNL     1     -33.617  94.969  19.614  0.00  0.00    +0.000 HD
ENDBRANCH   8  25
BRANCH  18  27
ATOM     27  O   UNL     1     -36.191  99.149  17.020  0.00  0.00    +0.000 OA
BRANCH  27  29
ATOM     28  O   UNL     1     -36.208  98.705  14.801  0.00  0.00    +0.000 OA
ATOM     29  C   UNL     1     -36.764  99.173  15.789  0.00  0.00    +0.000 C 
BRANCH  29  30
ATOM     30  C   UNL     1     -38.072  99.967  15.713  0.00  0.00    +0.000 C 
BRANCH  30  31
ATOM     31  O   UNL     1     -39.088  99.395  14.882  0.00  0.00    +0.000 OA
ATOM     32  H   UNL     1     -39.897  99.915  15.047  0.00  0.00    +0.000 HD
ENDBRANCH  30  31
BRANCH  30  33
ATOM     33  C   UNL     1     -37.734 101.410  15.247  0.00  0.00    +0.000 C 
BRANCH  33  34
ATOM     34  C   UNL     1     -37.918 102.400  16.388  0.00  0.00    +0.000 A 
ATOM     35  C   UNL     1     -36.789 103.001  16.970  0.00  0.00    +0.000 A 
ATOM     36  C   UNL     1     -39.186 102.712  16.906  0.00  0.00    +0.000 A 
ATOM     37  C   UNL     1     -36.925 103.903  18.027  0.00  0.00    +0.000 A 
ATOM     38  C   UNL     1     -39.320 103.616  17.961  0.00  0.00    +0.000 A 
ATOM     39  C   UNL     1     -38.191 104.212  18.520  0.00  0.00    +0.000 A 
ENDBRANCH  33  34
BRANCH  33  41
ATOM     40  O   UNL     1     -38.866 102.728  12.075  0.00  0.00    +0.000 OA
ATOM     41  N   UNL     1     -38.559 101.781  14.090  0.00  0.00    +0.000 N 
ATOM     42  C   UNL     1     -38.384 102.806  13.201  0.00  0.00    +0.000 C 
ATOM     43  H   UNL     1     -39.164 101.042  13.745  0.00  0.00    +0.000 HD
BRANCH  42  44
ATOM     44  C   UNL     1     -37.578 103.991  13.571  0.00  0.00    +0.000 A 
ATOM     45  C   UNL     1     -36.197 104.029  13.357  0.00  0.00    +0.000 A 
ATOM     46  C   UNL     1     -38.215 105.060  14.212  0.00  0.00    +0.000 A 
ATOM     47  C   UNL     1     -35.467 105.160  13.729  0.00  0.00    +0.000 A 
ATOM     48  C   UNL     1     -37.483 106.187  14.585  0.00  0.00    +0.000 A 
ATOM     49  C   UNL     1     -36.112 106.239  14.334  0.00  0.00    +0.000 A 
ENDBRANCH  42  44
ENDBRANCH  33  41
ENDBRANCH  30  33
ENDBRANCH  29  30
ENDBRANCH  27  29
ENDBRANCH  18  27
BRANCH  17  50
ATOM     50  O   UNL     1     -36.025  99.242  22.865  0.00  0.00    +0.000 OA
BRANCH  50  52
ATOM     51  O   UNL     1     -36.549 100.653  24.521  0.00  0.00    +0.000 OA
ATOM     52  C   UNL     1     -36.921  99.963  23.576  0.00  0.00    +0.000 C 
ATOM     53  C   UNL     1     -38.372  99.818  23.229  0.00  0.00    +0.000 C 
ENDBRANCH  50  52
ENDBRANCH  17  50
BRANCH   7  54
ATOM     54  O   UNL     1     -33.705  98.526  18.437  0.00  0.00    +0.000 OA
BRANCH  54  56
ATOM     55  O   UNL     1     -32.788  97.280  17.155  0.00  0.00    +0.000 OA
ATOM     56  C   UNL     1     -33.307  98.391  17.128  0.00  0.00    +0.000 C 
BRANCH  56  57
ATOM     57  C   UNL     1     -33.333  99.811  15.845  0.00  0.00    +0.000 A 
ATOM     58  C   UNL     1     -33.668 101.203  16.133  0.00  0.00    +0.000 A 
ATOM     59  C   UNL     1     -32.911  99.757  14.481  0.00  0.00    +0.000 A 
ATOM     60  C   UNL     1     -33.593 102.305  15.245  0.00  0.00    +0.000 A 
ATOM     61  C   UNL     1     -32.830 100.851  13.574  0.00  0.00    +0.000 A 
ATOM     62  C   UNL     1     -33.167 102.127  13.954  0.00  0.00    +0.000 A 
ENDBRANCH  56  57
ENDBRANCH  54  56
ENDBRANCH   7  54
BRANCH   4  63
ATOM     63  O   UNL     1     -30.973 100.065  17.733  0.00  0.00    +0.000 OA
BRANCH  63  65
ATOM     64  O   UNL     1     -29.675 101.754  17.054  0.00  0.00    +0.000 OA
ATOM     65  C   UNL     1     -30.109 100.621  16.854  0.00  0.00    +0.000 C 
ATOM     66  C   UNL     1     -29.782  99.896  15.587  0.00  0.00    +0.000 C 
ENDBRANCH  63  65
ENDBRANCH   4  63
TORSDOF 17
ENDMDL
MODEL 2
REMARK VINA RESULT:      -6.0      2.513      8.568
REMARK  Name = 
REMARK  23 active torsions:
REMARK  status: ('A' for Active; 'I' for Inactive)
REMARK    1  A    between atoms: O_2  and  C_17
REMARK    2  A    between atoms: O_2  and  C_36
REMARK    3  A    between atoms: O_3  and  C_20
REMARK    4  A    between atoms: O_3  and  C_37
REMARK    5  A    between atoms: O_4  and  C_21
REMARK    6  A    between atoms: O_5  and  C_22
REMARK    7  A    between atoms: O_6  and  C_30
REMARK    8  A    between atoms: O_6  and  C_39
REMARK    9  A    between atoms: O_8  and  C_31
REMARK   10  A    between atoms: O_8  and  C_40
REMARK   11  A    between atoms: O_13  and  C_42
REMARK   12  A    between atoms: N_15  and  C_46
REMARK   13  A    between atoms: C_18  and  C_29
REMARK   14  A    between atoms: C_24  and  C_33
REMARK   15  A    between atoms: C_24  and  C_34
REMARK   16  A    between atoms: C_32  and  C_35
REMARK   17  A    between atoms: C_36  and  C_38
REMARK   18  A    between atoms: C_37  and  C_41
REMARK   19  A    between atoms: C_39  and  C_43
REMARK   20  A    between atoms: C_40  and  C_42
REMARK   21  A    between atoms: C_42  and  C_46
REMARK   22  A    between atoms: C_46  and  C_50
REMARK   23  A    between atoms: C_53  and  C_56
REMARK                            x       y       z     vdW  Elec       q    Type
REMARK                         _______ _______ _______ _____ _____    ______ ____
ROOT
ATOM      1  O   UNL     1     -40.863 101.704  20.515  0.00  0.00    +0.000 OA
ATOM      2  O   UNL     1     -37.138 105.457  16.453  0.00  0.00    +0.000 OA
ATOM      3  C   UNL     1     -39.010 101.699  17.616  0.00  0.00    +0.000 C 
ATOM      4  C   UNL     1     -39.346 101.260  19.071  0.00  0.00    +0.000 C 
ATOM      5  C   UNL     1     -37.941 103.261  17.740  0.00  0.00    +0.000 C 
ATOM      6  C   UNL     1     -40.274 102.489  19.442  0.00  0.00    +0.000 C 
ATOM      7  C   UNL     1     -38.524 100.250  16.546  0.00  0.00    +0.000 C 
ATOM      8  C   UNL     1     -37.932  99.833  14.796  0.00  0.00    +0.000 C 
ATOM      9  C   UNL     1     -38.864 104.303  18.499  0.00  0.00    +0.000 C 
ATOM     10  C   UNL     1     -39.559 103.774  19.790  0.00  0.00    +0.000 C 
ATOM     11  C   UNL     1     -37.363 100.936  13.528  0.00  0.00    +0.000 C 
ATOM     12  C   UNL     1     -40.621 100.528  19.650  0.00  0.00    +0.000 C 
ATOM     13  C   UNL     1     -37.141 104.213  16.329  0.00  0.00    +0.000 C 
ATOM     14  C   UNL     1     -36.625  98.934  14.981  0.00  0.00    +0.000 C 
ATOM     15  C   UNL     1     -36.172 101.879  14.048  0.00  0.00    +0.000 C 
ATOM     16  C   UNL     1     -36.718 103.083  18.734  0.00  0.00    +0.000 C 
ATOM     17  C   UNL     1     -36.350 103.539  14.712  0.00  0.00    +0.000 C 
ATOM     18  C   UNL     1     -35.199  99.645  14.908  0.00  0.00    +0.000 C 
ATOM     19  C   UNL     1     -35.079 101.142  14.443  0.00  0.00    +0.000 C 
ATOM     20  C   UNL     1     -36.758 100.007  12.359  0.00  0.00    +0.000 C 
ATOM     21  C   UNL     1     -38.408 101.647  12.609  0.00  0.00    +0.000 C 
ATOM     22  C   UNL     1     -33.738 101.772  14.724  0.00  0.00    +0.000 C 
ENDROOT
BRANCH   9  23
ATOM     23  O   UNL     1     -39.900 104.735  17.617  0.00  0.00    +0.000 OA
ATOM     24  H   UNL     1     -40.462 105.349  18.132  0.00  0.00    +0.000 HD
ENDBRANCH   9  23
BRANCH   8  25
ATOM     25  O   UNL     1     -38.946  98.975  14.239  0.00  0.00    +0.000 OA
ATOM     26  H   UNL     1     -39.138  99.266  13.330  0.00  0.00    +0.000 HD
ENDBRANCH   8  25
BRANCH  18  27
ATOM     27  O   UNL     1     -34.594  99.576  16.233  0.00  0.00    +0.000 OA
BRANCH  27  29
ATOM     28  O   UNL     1     -34.154  97.567  17.178  0.00  0.00    +0.000 OA
ATOM     29  C   UNL     1     -33.789  98.512  16.486  0.00  0.00    +0.000 C 
BRANCH  29  30
ATOM     30  C   UNL     1     -32.353  98.668  15.977  0.00  0.00    +0.000 C 
BRANCH  30  31
ATOM     31  O   UNL     1     -31.758  97.477  15.448  0.00  0.00    +0.000 OA
ATOM     32  H   UNL     1     -32.065  97.408  14.525  0.00  0.00    +0.000 HD
ENDBRANCH  30  31
BRANCH  30  33
ATOM     33  C   UNL     1     -31.490  99.240  17.135  0.00  0.00    +0.000 C 
BRANCH  33  34
ATOM     34  C   UNL     1     -31.119 100.691  16.862  0.00  0.00    +0.000 A 
ATOM     35  C   UNL     1     -31.656 101.706  17.673  0.00  0.00    +0.000 A 
ATOM     36  C   UNL     1     -30.277 101.057  15.799  0.00  0.00    +0.000 A 
ATOM     37  C   UNL     1     -31.345 103.046  17.439  0.00  0.00    +0.000 A 
ATOM     38  C   UNL     1     -29.966 102.397  15.568  0.00  0.00    +0.000 A 
ATOM     39  C   UNL     1     -30.497 103.391  16.389  0.00  0.00    +0.000 A 
ENDBRANCH  33  34
BRANCH  33  41
ATOM     40  O   UNL     1     -28.795  97.340  18.621  0.00  0.00    +0.000 OA
ATOM     41  N   UNL     1     -30.289  98.418  17.334  0.00  0.00    +0.000 N 
ATOM     42  C   UNL     1     -29.462  98.351  18.422  0.00  0.00    +0.000 C 
ATOM     43  H   UNL     1     -30.218  97.614  16.718  0.00  0.00    +0.000 HD
BRANCH  42  44
ATOM     44  C   UNL     1     -29.400  99.471  19.388  0.00  0.00    +0.000 A 
ATOM     45  C   UNL     1     -30.260  99.534  20.488  0.00  0.00    +0.000 A 
ATOM     46  C   UNL     1     -28.503 100.518  19.141  0.00  0.00    +0.000 A 
ATOM     47  C   UNL     1     -30.180 100.610  21.373  0.00  0.00    +0.000 A 
ATOM     48  C   UNL     1     -28.427 101.594  20.025  0.00  0.00    +0.000 A 
ATOM     49  C   UNL     1     -29.259 101.634  21.145  0.00  0.00    +0.000 A 
ENDBRANCH  42  44
ENDBRANCH  33  41
ENDBRANCH  30  33
ENDBRANCH  29  30
ENDBRANCH  27  29
ENDBRANCH  18  27
BRANCH  17  50
ATOM     50  O   UNL     1     -36.696 104.331  13.555  0.00  0.00    +0.000 OA
BRANCH  50  52
ATOM     51  O   UNL     1     -35.840 105.241  11.699  0.00  0.00    +0.000 OA
ATOM     52  C   UNL     1     -35.815 105.137  12.922  0.00  0.00    +0.000 C 
ATOM     53  C   UNL     1     -34.767 105.818  13.750  0.00  0.00    +0.000 C 
ENDBRANCH  50  52
ENDBRANCH  17  50
BRANCH   7  54
ATOM     54  O   UNL     1     -37.282 100.556  16.858  0.00  0.00    +0.000 OA
BRANCH  54  56
ATOM     55  O   UNL     1     -38.239  98.879  17.412  0.00  0.00    +0.000 OA
ATOM     56  C   UNL     1     -37.205  99.473  17.701  0.00  0.00    +0.000 C 
BRANCH  56  57
ATOM     57  C   UNL     1     -35.929  99.300  19.117  0.00  0.00    +0.000 A 
ATOM     58  C   UNL     1     -35.763  98.122  19.965  0.00  0.00    +0.000 A 
ATOM     59  C   UNL     1     -34.887 100.213  19.463  0.00  0.00    +0.000 A 
ATOM     60  C   UNL     1     -34.763  97.905  20.946  0.00  0.00    +0.000 A 
ATOM     61  C   UNL     1     -33.876 100.015  20.446  0.00  0.00    +0.000 A 
ATOM     62  C   UNL     1     -33.810  98.860  21.187  0.00  0.00    +0.000 A 
ENDBRANCH  56  57
ENDBRANCH  54  56
ENDBRANCH   7  54
BRANCH   4  63
ATOM     63  O   UNL     1     -38.163 101.136  19.894  0.00  0.00    +0.000 OA
BRANCH  63  65
ATOM     64  O   UNL     1     -38.529  99.521  21.397  0.00  0.00    +0.000 OA
ATOM     65  C   UNL     1     -38.157 100.670  21.163  0.00  0.00    +0.000 C 
ATOM     66  C   UNL     1     -37.809 101.596  22.284  0.00  0.00    +0.000 C 
ENDBRANCH  63  65
ENDBRANCH   4  63
TORSDOF 17
ENDMDL
MODEL 3
REMARK VINA RESULT:      -5.8     24.334     28.411
REMARK  Name = 
REMARK  23 active torsions:
REMARK  status: ('A' for Active; 'I' for Inactive)
REMARK    1  A    between atoms: O_2  and  C_17
REMARK    2  A    between atoms: O_2  and  C_36
REMARK    3  A    between atoms: O_3  and  C_20
REMARK    4  A    between atoms: O_3  and  C_37
REMARK    5  A    between atoms: O_4  and  C_21
REMARK    6  A    between atoms: O_5  and  C_22
REMARK    7  A    between atoms: O_6  and  C_30
REMARK    8  A    between atoms: O_6  and  C_39
REMARK    9  A    between atoms: O_8  and  C_31
REMARK   10  A    between atoms: O_8  and  C_40
REMARK   11  A    between atoms: O_13  and  C_42
REMARK   12  A    between atoms: N_15  and  C_46
REMARK   13  A    between atoms: C_18  and  C_29
REMARK   14  A    between atoms: C_24  and  C_33
REMARK   15  A    between atoms: C_24  and  C_34
REMARK   16  A    between atoms: C_32  and  C_35
REMARK   17  A    between atoms: C_36  and  C_38
REMARK   18  A    between atoms: C_37  and  C_41
REMARK   19  A    between atoms: C_39  and  C_43
REMARK   20  A    between atoms: C_40  and  C_42
REMARK   21  A    between atoms: C_42  and  C_46
REMARK   22  A    between atoms: C_46  and  C_50
REMARK   23  A    between atoms: C_53  and  C_56
REMARK                            x       y       z     vdW  Elec       q    Type
REMARK                         _______ _______ _______ _____ _____    ______ ____
ROOT
ATOM      1  O   UNL     1     -40.746  91.337  -8.291  0.00  0.00    +0.000 OA
ATOM      2  O   UNL     1     -34.335  89.968  -9.507  0.00  0.00    +0.000 OA
ATOM      3  C   UNL     1     -38.313  88.914  -8.076  0.00  0.00    +0.000 C 
ATOM      4  C   UNL     1     -39.366  89.905  -7.500  0.00  0.00    +0.000 C 
ATOM      5  C   UNL     1     -36.683  89.871  -8.241  0.00  0.00    +0.000 C 
ATOM      6  C   UNL     1     -39.456  90.859  -8.761  0.00  0.00    +0.000 C 
ATOM      7  C   UNL     1     -38.400  87.245  -7.248  0.00  0.00    +0.000 C 
ATOM      8  C   UNL     1     -37.549  85.553  -7.232  0.00  0.00    +0.000 C 
ATOM      9  C   UNL     1     -37.027  91.053  -9.241  0.00  0.00    +0.000 C 
ATOM     10  C   UNL     1     -38.327  91.851  -8.920  0.00  0.00    +0.000 C 
ATOM     11  C   UNL     1     -36.014  85.079  -7.983  0.00  0.00    +0.000 C 
ATOM     12  C   UNL     1     -40.928  89.982  -7.724  0.00  0.00    +0.000 C 
ATOM     13  C   UNL     1     -35.014  89.199  -8.793  0.00  0.00    +0.000 C 
ATOM     14  C   UNL     1     -37.208  85.252  -5.701  0.00  0.00    +0.000 C 
ATOM     15  C   UNL     1     -34.809  86.042  -7.537  0.00  0.00    +0.000 C 
ATOM     16  C   UNL     1     -36.290  90.638  -6.911  0.00  0.00    +0.000 C 
ATOM     17  C   UNL     1     -34.223  87.487  -8.431  0.00  0.00    +0.000 C 
ATOM     18  C   UNL     1     -35.743  85.594  -5.169  0.00  0.00    +0.000 C 
ATOM     19  C   UNL     1     -34.606  86.001  -6.177  0.00  0.00    +0.000 C 
ATOM     20  C   UNL     1     -35.674  83.605  -7.428  0.00  0.00    +0.000 C 
ATOM     21  C   UNL     1     -35.997  84.663  -9.489  0.00  0.00    +0.000 C 
ATOM     22  C   UNL     1     -33.385  86.599  -5.522  0.00  0.00    +0.000 C 
ENDROOT
BRANCH   9  23
ATOM     23  O   UNL     1     -37.181  90.520 -10.556  0.00  0.00    +0.000 OA
ATOM     24  H   UNL     1     -38.131  90.604 -10.778  0.00  0.00    +0.000 HD
ENDBRANCH   9  23
BRANCH   8  25
ATOM     25  O   UNL     1     -38.564  84.607  -7.621  0.00  0.00    +0.000 OA
ATOM     26  H   UNL     1     -39.241  84.570  -6.923  0.00  0.00    +0.000 HD
ENDBRANCH   8  25
BRANCH  18  27
ATOM     27  O   UNL     1     -35.857  86.688  -4.212  0.00  0.00    +0.000 OA
BRANCH  27  29
ATOM     28  O   UNL     1     -34.654  85.828  -2.499  0.00  0.00    +0.000 OA
ATOM     29  C   UNL     1     -35.672  86.380  -2.903  0.00  0.00    +0.000 C 
BRANCH  29  30
ATOM     30  C   UNL     1     -36.895  86.629  -2.014  0.00  0.00    +0.000 C 
BRANCH  30  31
ATOM     31  O   UNL     1     -36.617  87.228  -0.743  0.00  0.00    +0.000 OA
ATOM     32  H   UNL     1     -35.657  87.402  -0.730  0.00  0.00    +0.000 HD
ENDBRANCH  30  31
BRANCH  30  33
ATOM     33  C   UNL     1     -37.640  85.278  -1.828  0.00  0.00    +0.000 C 
BRANCH  33  34
ATOM     34  C   UNL     1     -39.120  85.514  -1.561  0.00  0.00    +0.000 A 
ATOM     35  C   UNL     1     -39.956  84.417  -1.287  0.00  0.00    +0.000 A 
ATOM     36  C   UNL     1     -39.691  86.795  -1.611  0.00  0.00    +0.000 A 
ATOM     37  C   UNL     1     -41.319  84.599  -1.051  0.00  0.00    +0.000 A 
ATOM     38  C   UNL     1     -41.054  86.976  -1.373  0.00  0.00    +0.000 A 
ATOM     39  C   UNL     1     -41.867  85.879  -1.091  0.00  0.00    +0.000 A 
ENDBRANCH  33  34
BRANCH  33  41
ATOM     40  O   UNL     1     -35.492  83.077   0.074  0.00  0.00    +0.000 OA
ATOM     41  N   UNL     1     -37.027  84.499  -0.745  0.00  0.00    +0.000 N 
ATOM     42  C   UNL     1     -36.284  83.353  -0.822  0.00  0.00    +0.000 C 
ATOM     43  H   UNL     1     -36.903  85.008   0.126  0.00  0.00    +0.000 HD
BRANCH  42  44
ATOM     44  C   UNL     1     -36.395  82.464  -2.001  0.00  0.00    +0.000 A 
ATOM     45  C   UNL     1     -37.443  81.547  -2.127  0.00  0.00    +0.000 A 
ATOM     46  C   UNL     1     -35.383  82.506  -2.967  0.00  0.00    +0.000 A 
ATOM     47  C   UNL     1     -37.509  80.718  -3.248  0.00  0.00    +0.000 A 
ATOM     48  C   UNL     1     -35.450  81.675  -4.084  0.00  0.00    +0.000 A 
ATOM     49  C   UNL     1     -36.519  80.789  -4.228  0.00  0.00    +0.000 A 
ENDBRANCH  42  44
ENDBRANCH  33  41
ENDBRANCH  30  33
ENDBRANCH  29  30
ENDBRANCH  27  29
ENDBRANCH  18  27
BRANCH  17  50
ATOM     50  O   UNL     1     -33.567  86.924  -9.588  0.00  0.00    +0.000 OA
BRANCH  50  52
ATOM     51  O   UNL     1     -31.735  86.544 -10.816  0.00  0.00    +0.000 OA
ATOM     52  C   UNL     1     -32.244  87.068  -9.830  0.00  0.00    +0.000 C 
ATOM     53  C   UNL     1     -31.422  87.804  -8.815  0.00  0.00    +0.000 C 
ENDBRANCH  50  52
ENDBRANCH  17  50
BRANCH   7  54
ATOM     54  O   UNL     1     -37.450  87.694  -6.454  0.00  0.00    +0.000 OA
BRANCH  54  56
ATOM     55  O   UNL     1     -37.715  88.644  -4.704  0.00  0.00    +0.000 OA
ATOM     56  C   UNL     1     -38.368  87.930  -5.457  0.00  0.00    +0.000 C 
BRANCH  56  57
ATOM     57  C   UNL     1     -40.042  87.016  -5.298  0.00  0.00    +0.000 A 
ATOM     58  C   UNL     1     -40.203  85.601  -4.973  0.00  0.00    +0.000 A 
ATOM     59  C   UNL     1     -41.350  87.587  -5.337  0.00  0.00    +0.000 A 
ATOM     60  C   UNL     1     -41.417  84.908  -4.734  0.00  0.00    +0.000 A 
ATOM     61  C   UNL     1     -42.580  86.908  -5.103  0.00  0.00    +0.000 A 
ATOM     62  C   UNL     1     -42.616  85.569  -4.797  0.00  0.00    +0.000 A 
ENDBRANCH  56  57
ENDBRANCH  54  56
ENDBRANCH   7  54
BRANCH   4  63
ATOM     63  O   UNL     1     -38.905  90.555  -6.292  0.00  0.00    +0.000 OA
BRANCH  63  65
ATOM     64  O   UNL     1     -40.691  91.025  -5.033  0.00  0.00    +0.000 OA
ATOM     65  C   UNL     1     -39.645  91.410  -5.551  0.00  0.00    +0.000 C 
ATOM     66  C   UNL     1     -39.242  92.848  -5.468  0.00  0.00    +0.000 C 
ENDBRANCH  63  65
ENDBRANCH   4  63
TORSDOF 17
ENDMDL
MODEL 4
REMARK VINA RESULT:      -5.7     12.444     17.581
REMARK  Name = 
REMARK  23 active torsions:
REMARK  status: ('A' for Active; 'I' for Inactive)
REMARK    1  A    between atoms: O_2  and  C_17
REMARK    2  A    between atoms: O_2  and  C_36
REMARK    3  A    between atoms: O_3  and  C_20
REMARK    4  A    between atoms: O_3  and  C_37
REMARK    5  A    between atoms: O_4  and  C_21
REMARK    6  A    between atoms: O_5  and  C_22
REMARK    7  A    between atoms: O_6  and  C_30
REMARK    8  A    between atoms: O_6  and  C_39
REMARK    9  A    between atoms: O_8  and  C_31
REMARK   10  A    between atoms: O_8  and  C_40
REMARK   11  A    between atoms: O_13  and  C_42
REMARK   12  A    between atoms: N_15  and  C_46
REMARK   13  A    between atoms: C_18  and  C_29
REMARK   14  A    between atoms: C_24  and  C_33
REMARK   15  A    between atoms: C_24  and  C_34
REMARK   16  A    between atoms: C_32  and  C_35
REMARK   17  A    between atoms: C_36  and  C_38
REMARK   18  A    between atoms: C_37  and  C_41
REMARK   19  A    between atoms: C_39  and  C_43
REMARK   20  A    between atoms: C_40  and  C_42
REMARK   21  A    between atoms: C_42  and  C_46
REMARK   22  A    between atoms: C_46  and  C_50
REMARK   23  A    between atoms: C_53  and  C_56
REMARK                            x       y       z     vdW  Elec       q    Type
REMARK                         _______ _______ _______ _____ _____    ______ ____
ROOT
ATOM      1  O   UNL     1     -42.597 101.045  -1.202  0.00  0.00    +0.000 OA
ATOM      2  O   UNL     1     -40.941 107.376   0.074  0.00  0.00    +0.000 OA
ATOM      3  C   UNL     1     -40.837 103.103   0.920  0.00  0.00    +0.000 C 
ATOM      4  C   UNL     1     -41.949 102.076   0.557  0.00  0.00    +0.000 C 
ATOM      5  C   UNL     1     -41.551 104.831   0.596  0.00  0.00    +0.000 C 
ATOM      6  C   UNL     1     -41.967 102.340  -1.003  0.00  0.00    +0.000 C 
ATOM      7  C   UNL     1     -39.982 102.671   2.520  0.00  0.00    +0.000 C 
ATOM      8  C   UNL     1     -38.651 103.307   3.708  0.00  0.00    +0.000 C 
ATOM      9  C   UNL     1     -41.901 104.822  -0.951  0.00  0.00    +0.000 C 
ATOM     10  C   UNL     1     -42.700 103.582  -1.454  0.00  0.00    +0.000 C 
ATOM     11  C   UNL     1     -37.864 104.896   3.740  0.00  0.00    +0.000 C 
ATOM     12  C   UNL     1     -41.837 100.606  -0.011  0.00  0.00    +0.000 C 
ATOM     13  C   UNL     1     -40.727 106.489   0.929  0.00  0.00    +0.000 C 
ATOM     14  C   UNL     1     -39.325 103.308   5.156  0.00  0.00    +0.000 C 
ATOM     15  C   UNL     1     -38.935 106.091   3.796  0.00  0.00    +0.000 C 
ATOM     16  C   UNL     1     -42.968 105.040   1.277  0.00  0.00    +0.000 C 
ATOM     17  C   UNL     1     -39.583 106.998   2.386  0.00  0.00    +0.000 C 
ATOM     18  C   UNL     1     -39.954 104.670   5.699  0.00  0.00    +0.000 C 
ATOM     19  C   UNL     1     -39.714 106.020   4.927  0.00  0.00    +0.000 C 
ATOM     20  C   UNL     1     -37.016 104.954   5.108  0.00  0.00    +0.000 C 
ATOM     21  C   UNL     1     -36.638 105.159   2.808  0.00  0.00    +0.000 C 
ATOM     22  C   UNL     1     -40.614 107.149   5.363  0.00  0.00    +0.000 C 
ENDROOT
BRANCH   9  23
ATOM     23  O   UNL     1     -40.689 104.868  -1.702  0.00  0.00    +0.000 OA
ATOM     24  H   UNL     1     -40.001 104.459  -1.140  0.00  0.00    +0.000 HD
ENDBRANCH   9  23
BRANCH   8  25
ATOM     25  O   UNL     1     -37.633 102.288   3.729  0.00  0.00    +0.000 OA
ATOM     26  H   UNL     1     -36.892 102.574   3.166  0.00  0.00    +0.000 HD
ENDBRANCH   8  25
BRANCH  18  27
ATOM     27  O   UNL     1     -41.398 104.496   5.784  0.00  0.00    +0.000 OA
BRANCH  27  29
ATOM     28  O   UNL     1     -41.354 104.869   8.016  0.00  0.00    +0.000 OA
ATOM     29  C   UNL     1     -41.987 104.813   6.966  0.00  0.00    +0.000 C 
BRANCH  29  30
ATOM     30  C   UNL     1     -43.513 104.933   6.904  0.00  0.00    +0.000 C 
BRANCH  30  31
ATOM     31  O   UNL     1     -44.011 106.214   6.500  0.00  0.00    +0.000 OA
ATOM     32  H   UNL     1     -44.466 106.071   5.650  0.00  0.00    +0.000 HD
ENDBRANCH  30  31
BRANCH  30  33
ATOM     33  C   UNL     1     -44.085 104.538   8.293  0.00  0.00    +0.000 C 
BRANCH  33  34
ATOM     34  C   UNL     1     -45.534 104.088   8.169  0.00  0.00    +0.000 A 
ATOM     35  C   UNL     1     -45.870 102.754   8.457  0.00  0.00    +0.000 A 
ATOM     36  C   UNL     1     -46.550 104.958   7.743  0.00  0.00    +0.000 A 
ATOM     37  C   UNL     1     -47.187 102.308   8.340  0.00  0.00    +0.000 A 
ATOM     38  C   UNL     1     -47.867 104.511   7.628  0.00  0.00    +0.000 A 
ATOM     39  C   UNL     1     -48.185 103.187   7.928  0.00  0.00    +0.000 A 
ENDBRANCH  33  34
BRANCH  33  41
ATOM     40  O   UNL     1     -43.469 106.534  11.246  0.00  0.00    +0.000 OA
ATOM     41  N   UNL     1     -43.961 105.658   9.236  0.00  0.00    +0.000 N 
ATOM     42  C   UNL     1     -44.016 105.643  10.603  0.00  0.00    +0.000 C 
ATOM     43  H   UNL     1     -43.511 106.485   8.855  0.00  0.00    +0.000 HD
BRANCH  42  44
ATOM     44  C   UNL     1     -44.693 104.535  11.315  0.00  0.00    +0.000 A 
ATOM     45  C   UNL     1     -44.019 103.351  11.627  0.00  0.00    +0.000 A 
ATOM     46  C   UNL     1     -46.055 104.664  11.611  0.00  0.00    +0.000 A 
ATOM     47  C   UNL     1     -44.692 102.323  12.290  0.00  0.00    +0.000 A 
ATOM     48  C   UNL     1     -46.725 103.635  12.271  0.00  0.00    +0.000 A 
ATOM     49  C   UNL     1     -46.040 102.469  12.618  0.00  0.00    +0.000 A 
ENDBRANCH  42  44
ENDBRANCH  33  41
ENDBRANCH  30  33
ENDBRANCH  29  30
ENDBRANCH  27  29
ENDBRANCH  18  27
BRANCH  17  50
ATOM     50  O   UNL     1     -38.462 107.800   1.955  0.00  0.00    +0.000 OA
BRANCH  50  52
ATOM     51  O   UNL     1     -39.083 109.905   1.517  0.00  0.00    +0.000 OA
ATOM     52  C   UNL     1     -38.383 109.133   2.166  0.00  0.00    +0.000 C 
ATOM     53  C   UNL     1     -37.360 109.629   3.143  0.00  0.00    +0.000 C 
ENDBRANCH  50  52
ENDBRANCH  17  50
BRANCH   7  54
ATOM     54  O   UNL     1     -40.838 103.491   3.091  0.00  0.00    +0.000 OA
BRANCH  54  56
ATOM     55  O   UNL     1     -40.687 101.530   3.499  0.00  0.00    +0.000 OA
ATOM     56  C   UNL     1     -41.500 102.433   3.667  0.00  0.00    +0.000 C 
BRANCH  56  57
ATOM     57  C   UNL     1     -43.333 102.480   4.214  0.00  0.00    +0.000 A 
ATOM     58  C   UNL     1     -44.250 103.597   4.000  0.00  0.00    +0.000 A 
ATOM     59  C   UNL     1     -44.099 101.414   4.777  0.00  0.00    +0.000 A 
ATOM     60  C   UNL     1     -45.638 103.635   4.286  0.00  0.00    +0.000 A 
ATOM     61  C   UNL     1     -45.492 101.433   5.072  0.00  0.00    +0.000 A 
ATOM     62  C   UNL     1     -46.265 102.542   4.824  0.00  0.00    +0.000 A 
ENDBRANCH  56  57
ENDBRANCH  54  56
ENDBRANCH   7  54
BRANCH   4  63
ATOM     63  O   UNL     1     -43.200 102.363   1.226  0.00  0.00    +0.000 OA
BRANCH  63  65
ATOM     64  O   UNL     1     -44.284 100.426   1.496  0.00  0.00    +0.000 OA
ATOM     65  C   UNL     1     -44.313 101.600   1.131  0.00  0.00    +0.000 C 
ATOM     66  C   UNL     1     -45.533 102.160   0.473  0.00  0.00    +0.000 C 
ENDBRANCH  63  65
ENDBRANCH   4  63
TORSDOF 17
ENDMDL
MODEL 5
REMARK VINA RESULT:      -5.4     23.286     26.365
REMARK  Name = 
REMARK  23 active torsions:
REMARK  status: ('A' for Active; 'I' for Inactive)
REMARK    1  A    between atoms: O_2  and  C_17
REMARK    2  A    between atoms: O_2  and  C_36
REMARK    3  A    between atoms: O_3  and  C_20
REMARK    4  A    between atoms: O_3  and  C_37
REMARK    5  A    between atoms: O_4  and  C_21
REMARK    6  A    between atoms: O_5  and  C_22
REMARK    7  A    between atoms: O_6  and  C_30
REMARK    8  A    between atoms: O_6  and  C_39
REMARK    9  A    between atoms: O_8  and  C_31
REMARK   10  A    between atoms: O_8  and  C_40
REMARK   11  A    between atoms: O_13  and  C_42
REMARK   12  A    between atoms: N_15  and  C_46
REMARK   13  A    between atoms: C_18  and  C_29
REMARK   14  A    between atoms: C_24  and  C_33
REMARK   15  A    between atoms: C_24  and  C_34
REMARK   16  A    between atoms: C_32  and  C_35
REMARK   17  A    between atoms: C_36  and  C_38
REMARK   18  A    between atoms: C_37  and  C_41
REMARK   19  A    between atoms: C_39  and  C_43
REMARK   20  A    between atoms: C_40  and  C_42
REMARK   21  A    between atoms: C_42  and  C_46
REMARK   22  A    between atoms: C_46  and  C_50
REMARK   23  A    between atoms: C_53  and  C_56
REMARK                            x       y       z     vdW  Elec       q    Type
REMARK                         _______ _______ _______ _____ _____    ______ ____
ROOT
ATOM      1  O   UNL     1     -36.253  84.494  -4.866  0.00  0.00    +0.000 OA
ATOM      2  O   UNL     1     -35.941  82.476   1.481  0.00  0.00    +0.000 OA
ATOM      3  C   UNL     1     -37.754  82.521  -2.480  0.00  0.00    +0.000 C 
ATOM      4  C   UNL     1     -37.692  83.699  -3.496  0.00  0.00    +0.000 C 
ATOM      5  C   UNL     1     -37.069  83.173  -0.835  0.00  0.00    +0.000 C 
ATOM      6  C   UNL     1     -36.115  83.794  -3.599  0.00  0.00    +0.000 C 
ATOM      7  C   UNL     1     -39.371  81.597  -2.581  0.00  0.00    +0.000 C 
ATOM      8  C   UNL     1     -40.316  80.172  -1.767  0.00  0.00    +0.000 C 
ATOM      9  C   UNL     1     -35.585  83.611  -1.180  0.00  0.00    +0.000 C 
ATOM     10  C   UNL     1     -35.421  84.494  -2.454  0.00  0.00    +0.000 C 
ATOM     11  C   UNL     1     -39.941  79.312  -0.261  0.00  0.00    +0.000 C 
ATOM     12  C   UNL     1     -37.478  83.688  -5.061  0.00  0.00    +0.000 C 
ATOM     13  C   UNL     1     -36.968  82.255   0.804  0.00  0.00    +0.000 C 
ATOM     14  C   UNL     1     -41.753  80.761  -1.392  0.00  0.00    +0.000 C 
ATOM     15  C   UNL     1     -39.765  80.321   0.975  0.00  0.00    +0.000 C 
ATOM     16  C   UNL     1     -37.746  84.536  -0.392  0.00  0.00    +0.000 C 
ATOM     17  C   UNL     1     -38.213  81.007   1.569  0.00  0.00    +0.000 C 
ATOM     18  C   UNL     1     -41.991  81.294   0.093  0.00  0.00    +0.000 C 
ATOM     19  C   UNL     1     -40.916  81.036   1.212  0.00  0.00    +0.000 C 
ATOM     20  C   UNL     1     -41.218  78.384   0.061  0.00  0.00    +0.000 C 
ATOM     21  C   UNL     1     -38.919  78.130  -0.292  0.00  0.00    +0.000 C 
ATOM     22  C   UNL     1     -41.117  81.857   2.461  0.00  0.00    +0.000 C 
ENDROOT
BRANCH   9  23
ATOM     23  O   UNL     1     -34.789  82.443  -1.379  0.00  0.00    +0.000 OA
ATOM     24  H   UNL     1     -35.387  81.678  -1.257  0.00  0.00    +0.000 HD
ENDBRANCH   9  23
BRANCH   8  25
ATOM     25  O   UNL     1     -40.529  79.202  -2.810  0.00  0.00    +0.000 OA
ATOM     26  H   UNL     1     -40.020  79.471  -3.596  0.00  0.00    +0.000 HD
ENDBRANCH   8  25
BRANCH  18  27
ATOM     27  O   UNL     1     -42.180  82.737   0.027  0.00  0.00    +0.000 OA
BRANCH  27  29
ATOM     28  O   UNL     1     -43.285  84.347   1.171  0.00  0.00    +0.000 OA
ATOM     29  C   UNL     1     -43.282  83.241   0.640  0.00  0.00    +0.000 C 
BRANCH  29  30
ATOM     30  C   UNL     1     -44.451  82.259   0.752  0.00  0.00    +0.000 C 
BRANCH  30  31
ATOM     31  O   UNL     1     -45.524  82.476  -0.172  0.00  0.00    +0.000 OA
ATOM     32  H   UNL     1     -46.260  82.844   0.351  0.00  0.00    +0.000 HD
ENDBRANCH  30  31
BRANCH  30  33
ATOM     33  C   UNL     1     -44.975  82.296   2.214  0.00  0.00    +0.000 C 
BRANCH  33  34
ATOM     34  C   UNL     1     -44.509  81.067   2.983  0.00  0.00    +0.000 A 
ATOM     35  C   UNL     1     -44.383  79.838   2.311  0.00  0.00    +0.000 A 
ATOM     36  C   UNL     1     -44.228  81.111   4.357  0.00  0.00    +0.000 A 
ATOM     37  C   UNL     1     -43.971  78.692   2.991  0.00  0.00    +0.000 A 
ATOM     38  C   UNL     1     -43.813  79.964   5.036  0.00  0.00    +0.000 A 
ATOM     39  C   UNL     1     -43.683  78.756   4.353  0.00  0.00    +0.000 A 
ENDBRANCH  33  34
BRANCH  33  41
ATOM     40  O   UNL     1     -48.360  83.480   2.681  0.00  0.00    +0.000 OA
ATOM     41  N   UNL     1     -46.440  82.403   2.232  0.00  0.00    +0.000 N 
ATOM     42  C   UNL     1     -47.239  83.149   3.054  0.00  0.00    +0.000 C 
ATOM     43  H   UNL     1     -46.897  82.113   1.372  0.00  0.00    +0.000 HD
BRANCH  42  44
ATOM     44  C   UNL     1     -46.744  83.601   4.374  0.00  0.00    +0.000 A 
ATOM     45  C   UNL     1     -47.319  83.145   5.564  0.00  0.00    +0.000 A 
ATOM     46  C   UNL     1     -45.724  84.559   4.413  0.00  0.00    +0.000 A 
ATOM     47  C   UNL     1     -46.833  83.600   6.790  0.00  0.00    +0.000 A 
ATOM     48  C   UNL     1     -45.242  85.015   5.640  0.00  0.00    +0.000 A 
ATOM     49  C   UNL     1     -45.791  84.528   6.827  0.00  0.00    +0.000 A 
ENDBRANCH  42  44
ENDBRANCH  33  41
ENDBRANCH  30  33
ENDBRANCH  29  30
ENDBRANCH  27  29
ENDBRANCH  18  27
BRANCH  17  50
ATOM     50  O   UNL     1     -37.557  79.876   2.182  0.00  0.00    +0.000 OA
BRANCH  50  52
ATOM     51  O   UNL     1     -36.617  80.309   4.167  0.00  0.00    +0.000 OA
ATOM     52  C   UNL     1     -37.472  79.710   3.521  0.00  0.00    +0.000 C 
ATOM     53  C   UNL     1     -38.389  78.712   4.163  0.00  0.00    +0.000 C 
ENDBRANCH  50  52
ENDBRANCH  17  50
BRANCH   7  54
ATOM     54  O   UNL     1     -39.773  82.380  -1.602  0.00  0.00    +0.000 OA
BRANCH  54  56
ATOM     55  O   UNL     1     -40.485  82.386  -3.481  0.00  0.00    +0.000 OA
ATOM     56  C   UNL     1     -40.620  83.046  -2.456  0.00  0.00    +0.000 C 
BRANCH  56  57
ATOM     57  C   UNL     1     -41.433  84.734  -2.064  0.00  0.00    +0.000 A 
ATOM     58  C   UNL     1     -40.970  85.679  -1.050  0.00  0.00    +0.000 A 
ATOM     59  C   UNL     1     -42.500  85.368  -2.770  0.00  0.00    +0.000 A 
ATOM     60  C   UNL     1     -41.469  86.982  -0.802  0.00  0.00    +0.000 A 
ATOM     61  C   UNL     1     -43.015  86.674  -2.534  0.00  0.00    +0.000 A 
ATOM     62  C   UNL     1     -42.499  87.485  -1.552  0.00  0.00    +0.000 A 
ENDBRANCH  56  57
ENDBRANCH  54  56
ENDBRANCH   7  54
BRANCH   4  63
ATOM     63  O   UNL     1     -38.331  84.894  -2.991  0.00  0.00    +0.000 OA
BRANCH  63  65
ATOM     64  O   UNL     1     -39.520  85.976  -4.544  0.00  0.00    +0.000 OA
ATOM     65  C   UNL     1     -38.597  85.994  -3.732  0.00  0.00    +0.000 C 
ATOM     66  C   UNL     1     -37.691  87.179  -3.639  0.00  0.00    +0.000 C 
ENDBRANCH  63  65
ENDBRANCH   4  63
TORSDOF 17
ENDMDL
MODEL 6
REMARK VINA RESULT:      -5.4     12.598     17.101
REMARK  Name = 
REMARK  23 active torsions:
REMARK  status: ('A' for Active; 'I' for Inactive)
REMARK    1  A    between atoms: O_2  and  C_17
REMARK    2  A    between atoms: O_2  and  C_36
REMARK    3  A    between atoms: O_3  and  C_20
REMARK    4  A    between atoms: O_3  and  C_37
REMARK    5  A    between atoms: O_4  and  C_21
REMARK    6  A    between atoms: O_5  and  C_22
REMARK    7  A    between atoms: O_6  and  C_30
REMARK    8  A    between atoms: O_6  and  C_39
REMARK    9  A    between atoms: O_8  and  C_31
REMARK   10  A    between atoms: O_8  and  C_40
REMARK   11  A    between atoms: O_13  and  C_42
REMARK   12  A    between atoms: N_15  and  C_46
REMARK   13  A    between atoms: C_18  and  C_29
REMARK   14  A    between atoms: C_24  and  C_33
REMARK   15  A    between atoms: C_24  and  C_34
REMARK   16  A    between atoms: C_32  and  C_35
REMARK   17  A    between atoms: C_36  and  C_38
REMARK   18  A    between atoms: C_37  and  C_41
REMARK   19  A    between atoms: C_39  and  C_43
REMARK   20  A    between atoms: C_40  and  C_42
REMARK   21  A    between atoms: C_42  and  C_46
REMARK   22  A    between atoms: C_46  and  C_50
REMARK   23  A    between atoms: C_53  and  C_56
REMARK                            x       y       z     vdW  Elec       q    Type
REMARK                         _______ _______ _______ _____ _____    ______ ____
ROOT
ATOM      1  O   UNL     1     -28.423  79.441  18.597  0.00  0.00    +0.000 OA
ATOM      2  O   UNL     1     -29.027  82.432  12.668  0.00  0.00    +0.000 OA
ATOM      3  C   UNL     1     -27.547  82.216  16.760  0.00  0.00    +0.000 C 
ATOM      4  C   UNL     1     -28.237  81.469  17.939  0.00  0.00    +0.000 C 
ATOM      5  C   UNL     1     -28.780  82.231  15.318  0.00  0.00    +0.000 C 
ATOM      6  C   UNL     1     -28.269  80.032  17.277  0.00  0.00    +0.000 C 
ATOM      7  C   UNL     1     -26.672  83.761  17.329  0.00  0.00    +0.000 C 
ATOM      8  C   UNL     1     -25.685  85.235  16.665  0.00  0.00    +0.000 C 
ATOM      9  C   UNL     1     -29.036  80.697  15.010  0.00  0.00    +0.000 C 
ATOM     10  C   UNL     1     -29.353  79.804  16.248  0.00  0.00    +0.000 C 
ATOM     11  C   UNL     1     -25.474  85.758  14.983  0.00  0.00    +0.000 C 
ATOM     12  C   UNL     1     -27.617  80.580  19.088  0.00  0.00    +0.000 C 
ATOM     13  C   UNL     1     -28.571  83.064  13.644  0.00  0.00    +0.000 C 
ATOM     14  C   UNL     1     -26.387  86.536  17.268  0.00  0.00    +0.000 C 
ATOM     15  C   UNL     1     -26.883  85.960  14.240  0.00  0.00    +0.000 C 
ATOM     16  C   UNL     1     -30.216  82.748  15.750  0.00  0.00    +0.000 C 
ATOM     17  C   UNL     1     -27.730  84.741  13.227  0.00  0.00    +0.000 C 
ATOM     18  C   UNL     1     -27.457  87.306  16.370  0.00  0.00    +0.000 C 
ATOM     19  C   UNL     1     -27.645  86.926  14.855  0.00  0.00    +0.000 C 
ATOM     20  C   UNL     1     -24.757  87.199  15.043  0.00  0.00    +0.000 C 
ATOM     21  C   UNL     1     -24.363  85.090  14.110  0.00  0.00    +0.000 C 
ATOM     22  C   UNL     1     -28.888  87.501  14.223  0.00  0.00    +0.000 C 
ENDROOT
BRANCH   9  23
ATOM     23  O   UNL     1     -27.874  80.147  14.388  0.00  0.00    +0.000 OA
ATOM     24  H   UNL     1     -28.044  79.189  14.286  0.00  0.00    +0.000 HD
ENDBRANCH   9  23
BRANCH   8  25
ATOM     25  O   UNL     1     -24.388  85.142  17.285  0.00  0.00    +0.000 OA
ATOM     26  H   UNL     1     -24.258  84.232  17.604  0.00  0.00    +0.000 HD
ENDBRANCH   8  25
BRANCH  18  27
ATOM     27  O   UNL     1     -28.764  87.153  16.997  0.00  0.00    +0.000 OA
BRANCH  27  29
ATOM     28  O   UNL     1     -28.908  88.220  18.988  0.00  0.00    +0.000 OA
ATOM     29  C   UNL     1     -29.185  88.169  17.794  0.00  0.00    +0.000 C 
BRANCH  29  30
ATOM     30  C   UNL     1     -30.157  89.143  17.121  0.00  0.00    +0.000 C 
BRANCH  30  31
ATOM     31  O   UNL     1     -29.545  90.199  16.372  0.00  0.00    +0.000 OA
ATOM     32  H   UNL     1     -28.786  89.798  15.909  0.00  0.00    +0.000 HD
ENDBRANCH  30  31
BRANCH  30  33
ATOM     33  C   UNL     1     -31.095  89.723  18.215  0.00  0.00    +0.000 C 
BRANCH  33  34
ATOM     34  C   UNL     1     -32.480  89.097  18.122  0.00  0.00    +0.000 A 
ATOM     35  C   UNL     1     -32.924  88.583  16.892  0.00  0.00    +0.000 A 
ATOM     36  C   UNL     1     -33.348  89.044  19.224  0.00  0.00    +0.000 A 
ATOM     37  C   UNL     1     -34.193  88.015  16.772  0.00  0.00    +0.000 A 
ATOM     38  C   UNL     1     -34.616  88.474  19.103  0.00  0.00    +0.000 A 
ATOM     39  C   UNL     1     -35.038  87.958  17.879  0.00  0.00    +0.000 A 
ENDBRANCH  33  34
BRANCH  33  41
ATOM     40  O   UNL     1     -30.856  93.269  18.885  0.00  0.00    +0.000 OA
ATOM     41  N   UNL     1     -31.170  91.185  18.104  0.00  0.00    +0.000 N 
ATOM     42  C   UNL     1     -31.240  92.123  19.098  0.00  0.00    +0.000 C 
ATOM     43  H   UNL     1     -30.859  91.559  17.212  0.00  0.00    +0.000 HD
BRANCH  42  44
ATOM     44  C   UNL     1     -31.732  91.753  20.444  0.00  0.00    +0.000 A 
ATOM     45  C   UNL     1     -30.955  90.990  21.321  0.00  0.00    +0.000 A 
ATOM     46  C   UNL     1     -33.034  92.123  20.805  0.00  0.00    +0.000 A 
ATOM     47  C   UNL     1     -31.456  90.652  22.579  0.00  0.00    +0.000 A 
ATOM     48  C   UNL     1     -33.533  91.781  22.061  0.00  0.00    +0.000 A 
ATOM     49  C   UNL     1     -32.740  91.054  22.951  0.00  0.00    +0.000 A 
ENDBRANCH  42  44
ENDBRANCH  33  41
ENDBRANCH  30  33
ENDBRANCH  29  30
ENDBRANCH  27  29
ENDBRANCH  18  27
BRANCH  17  50
ATOM     50  O   UNL     1     -26.920  84.672  12.033  0.00  0.00    +0.000 OA
BRANCH  50  52
ATOM     51  O   UNL     1     -26.711  84.682   9.805  0.00  0.00    +0.000 OA
ATOM     52  C   UNL     1     -27.419  84.864  10.791  0.00  0.00    +0.000 C 
ATOM     53  C   UNL     1     -28.818  85.388  10.670  0.00  0.00    +0.000 C 
ENDBRANCH  50  52
ENDBRANCH  17  50
BRANCH   7  54
ATOM     54  O   UNL     1     -27.778  84.396  17.002  0.00  0.00    +0.000 OA
BRANCH  54  56
ATOM     55  O   UNL     1     -27.043  84.234  18.864  0.00  0.00    +0.000 OA
ATOM     56  C   UNL     1     -28.092  84.575  18.328  0.00  0.00    +0.000 C 
BRANCH  56  57
ATOM     57  C   UNL     1     -29.857  84.930  18.977  0.00  0.00    +0.000 A 
ATOM     58  C   UNL     1     -30.193  85.305  20.349  0.00  0.00    +0.000 A 
ATOM     59  C   UNL     1     -31.062  85.013  18.216  0.00  0.00    +0.000 A 
ATOM     60  C   UNL     1     -31.464  85.685  20.848  0.00  0.00    +0.000 A 
ATOM     61  C   UNL     1     -32.347  85.391  18.698  0.00  0.00    +0.000 A 
ATOM     62  C   UNL     1     -32.550  85.731  20.014  0.00  0.00    +0.000 A 
ENDBRANCH  56  57
ENDBRANCH  54  56
ENDBRANCH   7  54
BRANCH   4  63
ATOM     63  O   UNL     1     -29.541  82.015  18.247  0.00  0.00    +0.000 OA
BRANCH  63  65
ATOM     64  O   UNL     1     -29.795  81.871  20.463  0.00  0.00    +0.000 OA
ATOM     65  C   UNL     1     -30.267  81.695  19.342  0.00  0.00    +0.000 C 
ATOM     66  C   UNL     1     -31.592  81.022  19.174  0.00  0.00    +0.000 C 
ENDBRANCH  63  65
ENDBRANCH   4  63
TORSDOF 17
ENDMDL
MODEL 7
REMARK VINA RESULT:      -5.3     24.651     27.922
REMARK  Name = 
REMARK  23 active torsions:
REMARK  status: ('A' for Active; 'I' for Inactive)
REMARK    1  A    between atoms: O_2  and  C_17
REMARK    2  A    between atoms: O_2  and  C_36
REMARK    3  A    between atoms: O_3  and  C_20
REMARK    4  A    between atoms: O_3  and  C_37
REMARK    5  A    between atoms: O_4  and  C_21
REMARK    6  A    between atoms: O_5  and  C_22
REMARK    7  A    between atoms: O_6  and  C_30
REMARK    8  A    between atoms: O_6  and  C_39
REMARK    9  A    between atoms: O_8  and  C_31
REMARK   10  A    between atoms: O_8  and  C_40
REMARK   11  A    between atoms: O_13  and  C_42
REMARK   12  A    between atoms: N_15  and  C_46
REMARK   13  A    between atoms: C_18  and  C_29
REMARK   14  A    between atoms: C_24  and  C_33
REMARK   15  A    between atoms: C_24  and  C_34
REMARK   16  A    between atoms: C_32  and  C_35
REMARK   17  A    between atoms: C_36  and  C_38
REMARK   18  A    between atoms: C_37  and  C_41
REMARK   19  A    between atoms: C_39  and  C_43
REMARK   20  A    between atoms: C_40  and  C_42
REMARK   21  A    between atoms: C_42  and  C_46
REMARK   22  A    between atoms: C_46  and  C_50
REMARK   23  A    between atoms: C_53  and  C_56
REMARK                            x       y       z     vdW  Elec       q    Type
REMARK                         _______ _______ _______ _____ _____    ______ ____
ROOT
ATOM      1  O   UNL     1     -37.359  79.647   0.760  0.00  0.00    +0.000 OA
ATOM      2  O   UNL     1     -35.665  79.638  -5.689  0.00  0.00    +0.000 OA
ATOM      3  C   UNL     1     -35.619  81.340  -1.679  0.00  0.00    +0.000 C 
ATOM      4  C   UNL     1     -36.734  81.172  -0.606  0.00  0.00    +0.000 C 
ATOM      5  C   UNL     1     -36.311  80.656  -3.308  0.00  0.00    +0.000 C 
ATOM      6  C   UNL     1     -36.720  79.590  -0.545  0.00  0.00    +0.000 C 
ATOM      7  C   UNL     1     -34.800  83.012  -1.578  0.00  0.00    +0.000 C 
ATOM      8  C   UNL     1     -33.486  84.073  -2.435  0.00  0.00    +0.000 C 
ATOM      9  C   UNL     1     -36.631  79.137  -2.985  0.00  0.00    +0.000 C 
ATOM     10  C   UNL     1     -37.432  78.880  -1.673  0.00  0.00    +0.000 C 
ATOM     11  C   UNL     1     -32.685  83.796  -3.994  0.00  0.00    +0.000 C 
ATOM     12  C   UNL     1     -36.626  80.918   0.950  0.00  0.00    +0.000 C 
ATOM     13  C   UNL     1     -35.477  80.660  -4.994  0.00  0.00    +0.000 C 
ATOM     14  C   UNL     1     -34.188  85.476  -2.737  0.00  0.00    +0.000 C 
ATOM     15  C   UNL     1     -33.745  83.585  -5.181  0.00  0.00    +0.000 C 
ATOM     16  C   UNL     1     -37.738  81.250  -3.660  0.00  0.00    +0.000 C 
ATOM     17  C   UNL     1     -34.357  82.006  -5.784  0.00  0.00    +0.000 C 
ATOM     18  C   UNL     1     -34.814  85.716  -4.185  0.00  0.00    +0.000 C 
ATOM     19  C   UNL     1     -34.546  84.691  -5.346  0.00  0.00    +0.000 C 
ATOM     20  C   UNL     1     -31.862  85.141  -4.325  0.00  0.00    +0.000 C 
ATOM     21  C   UNL     1     -31.438  82.856  -4.054  0.00  0.00    +0.000 C 
ATOM     22  C   UNL     1     -35.443  84.868  -6.546  0.00  0.00    +0.000 C 
ENDROOT
BRANCH   9  23
ATOM     23  O   UNL     1     -35.404  78.417  -2.870  0.00  0.00    +0.000 OA
ATOM     24  H   UNL     1     -35.403  77.757  -3.592  0.00  0.00    +0.000 HD
ENDBRANCH   9  23
BRANCH   8  25
ATOM     25  O   UNL     1     -32.478  84.323  -1.437  0.00  0.00    +0.000 OA
ATOM     26  H   UNL     1     -31.605  84.119  -1.815  0.00  0.00    +0.000 HD
ENDBRANCH   8  25
BRANCH  18  27
ATOM     27  O   UNL     1     -36.261  85.805  -4.039  0.00  0.00    +0.000 OA
BRANCH  27  29
ATOM     28  O   UNL     1     -36.524  87.891  -3.202  0.00  0.00    +0.000 OA
ATOM     29  C   UNL     1     -36.804  87.050  -4.049  0.00  0.00    +0.000 C 
BRANCH  29  30
ATOM     30  C   UNL     1     -37.903  87.254  -5.097  0.00  0.00    +0.000 C 
BRANCH  30  31
ATOM     31  O   UNL     1     -38.496  86.054  -5.605  0.00  0.00    +0.000 OA
ATOM     32  H   UNL     1     -38.626  86.200  -6.561  0.00  0.00    +0.000 HD
ENDBRANCH  30  31
BRANCH  30  33
ATOM     33  C   UNL     1     -37.312  88.104  -6.256  0.00  0.00    +0.000 C 
BRANCH  33  34
ATOM     34  C   UNL     1     -37.790  89.546  -6.162  0.00  0.00    +0.000 A 
ATOM     35  C   UNL     1     -39.159  89.831  -6.301  0.00  0.00    +0.000 A 
ATOM     36  C   UNL     1     -36.899  90.614  -5.971  0.00  0.00    +0.000 A 
ATOM     37  C   UNL     1     -39.625  91.145  -6.233  0.00  0.00    +0.000 A 
ATOM     38  C   UNL     1     -37.367  91.927  -5.901  0.00  0.00    +0.000 A 
ATOM     39  C   UNL     1     -38.730  92.192  -6.030  0.00  0.00    +0.000 A 
ENDBRANCH  33  34
BRANCH  33  41
ATOM     40  O   UNL     1     -37.153  86.627  -9.553  0.00  0.00    +0.000 OA
ATOM     41  N   UNL     1     -37.666  87.516  -7.554  0.00  0.00    +0.000 N 
ATOM     42  C   UNL     1     -36.948  87.503  -8.719  0.00  0.00    +0.000 C 
ATOM     43  H   UNL     1     -38.392  86.806  -7.515  0.00  0.00    +0.000 HD
BRANCH  42  44
ATOM     44  C   UNL     1     -35.892  88.513  -8.960  0.00  0.00    +0.000 A 
ATOM     45  C   UNL     1     -36.188  89.755  -9.529  0.00  0.00    +0.000 A 
ATOM     46  C   UNL     1     -34.565  88.173  -8.674  0.00  0.00    +0.000 A 
ATOM     47  C   UNL     1     -35.164  90.678  -9.751  0.00  0.00    +0.000 A 
ATOM     48  C   UNL     1     -33.544  89.096  -8.900  0.00  0.00    +0.000 A 
ATOM     49  C   UNL     1     -33.847  90.351  -9.429  0.00  0.00    +0.000 A 
ENDBRANCH  42  44
ENDBRANCH  33  41
ENDBRANCH  30  33
ENDBRANCH  29  30
ENDBRANCH  27  29
ENDBRANCH  18  27
BRANCH  17  50
ATOM     50  O   UNL     1     -33.219  81.444  -6.474  0.00  0.00    +0.000 OA
BRANCH  50  52
ATOM     51  O   UNL     1     -33.284  80.170  -8.313  0.00  0.00    +0.000 OA
ATOM     52  C   UNL     1     -33.174  81.287  -7.817  0.00  0.00    +0.000 C 
ATOM     53  C   UNL     1     -32.898  82.499  -8.655  0.00  0.00    +0.000 C 
ENDBRANCH  50  52
ENDBRANCH  17  50
BRANCH   7  54
ATOM     54  O   UNL     1     -35.659  83.386  -2.502  0.00  0.00    +0.000 OA
BRANCH  54  56
ATOM     55  O   UNL     1     -35.662  83.976  -0.582  0.00  0.00    +0.000 OA
ATOM     56  C   UNL     1     -36.344  84.149  -1.587  0.00  0.00    +0.000 C 
BRANCH  56  57
ATOM     57  C   UNL     1     -38.069  84.916  -1.902  0.00  0.00    +0.000 A 
ATOM     58  C   UNL     1     -39.103  84.345  -2.762  0.00  0.00    +0.000 A 
ATOM     59  C   UNL     1     -38.642  86.057  -1.262  0.00  0.00    +0.000 A 
ATOM     60  C   UNL     1     -40.428  84.814  -2.937  0.00  0.00    +0.000 A 
ATOM     61  C   UNL     1     -39.970  86.545  -1.426  0.00  0.00    +0.000 A 
ATOM     62  C   UNL     1     -40.867  85.923  -2.261  0.00  0.00    +0.000 A 
ENDBRANCH  56  57
ENDBRANCH  54  56
ENDBRANCH   7  54
BRANCH   4  63
ATOM     63  O   UNL     1     -37.995  81.742  -1.030  0.00  0.00    +0.000 OA
BRANCH  63  65
ATOM     64  O   UNL     1     -38.895  82.851   0.690  0.00  0.00    +0.000 OA
ATOM     65  C   UNL     1     -39.029  82.017  -0.204  0.00  0.00    +0.000 C 
ATOM     66  C   UNL     1     -40.289  81.218  -0.311  0.00  0.00    +0.000 C 
ENDBRANCH  63  65
ENDBRANCH   4  63
TORSDOF 17
ENDMDL
MODEL 8
REMARK VINA RESULT:      -5.2     25.600     29.800
REMARK  Name = 
REMARK  23 active torsions:
REMARK  status: ('A' for Active; 'I' for Inactive)
REMARK    1  A    between atoms: O_2  and  C_17
REMARK    2  A    between atoms: O_2  and  C_36
REMARK    3  A    between atoms: O_3  and  C_20
REMARK    4  A    between atoms: O_3  and  C_37
REMARK    5  A    between atoms: O_4  and  C_21
REMARK    6  A    between atoms: O_5  and  C_22
REMARK    7  A    between atoms: O_6  and  C_30
REMARK    8  A    between atoms: O_6  and  C_39
REMARK    9  A    between atoms: O_8  and  C_31
REMARK   10  A    between atoms: O_8  and  C_40
REMARK   11  A    between atoms: O_13  and  C_42
REMARK   12  A    between atoms: N_15  and  C_46
REMARK   13  A    between atoms: C_18  and  C_29
REMARK   14  A    between atoms: C_24  and  C_33
REMARK   15  A    between atoms: C_24  and  C_34
REMARK   16  A    between atoms: C_32  and  C_35
REMARK   17  A    between atoms: C_36  and  C_38
REMARK   18  A    between atoms: C_37  and  C_41
REMARK   19  A    between atoms: C_39  and  C_43
REMARK   20  A    between atoms: C_40  and  C_42
REMARK   21  A    between atoms: C_42  and  C_46
REMARK   22  A    between atoms: C_46  and  C_50
REMARK   23  A    between atoms: C_53  and  C_56
REMARK                            x       y       z     vdW  Elec       q    Type
REMARK                         _______ _______ _______ _____ _____    ______ ____
ROOT
ATOM      1  O   UNL     1     -37.506  84.689  -4.038  0.00  0.00    +0.000 OA
ATOM      2  O   UNL     1     -37.063  89.940  -8.123  0.00  0.00    +0.000 OA
ATOM      3  C   UNL     1     -35.845  85.987  -6.758  0.00  0.00    +0.000 C 
ATOM      4  C   UNL     1     -35.955  85.453  -5.299  0.00  0.00    +0.000 C 
ATOM      5  C   UNL     1     -36.227  87.844  -6.698  0.00  0.00    +0.000 C 
ATOM      6  C   UNL     1     -37.516  85.650  -5.130  0.00  0.00    +0.000 C 
ATOM      7  C   UNL     1     -34.342  85.315  -7.635  0.00  0.00    +0.000 C 
ATOM      8  C   UNL     1     -33.411  85.432  -9.280  0.00  0.00    +0.000 C 
ATOM      9  C   UNL     1     -37.705  87.917  -6.126  0.00  0.00    +0.000 C 
ATOM     10  C   UNL     1     -37.977  87.062  -4.851  0.00  0.00    +0.000 C 
ATOM     11  C   UNL     1     -33.634  86.599 -10.597  0.00  0.00    +0.000 C 
ATOM     12  C   UNL     1     -36.393  84.034  -4.760  0.00  0.00    +0.000 C 
ATOM     13  C   UNL     1     -36.167  89.070  -8.124  0.00  0.00    +0.000 C 
ATOM     14  C   UNL     1     -31.891  85.742  -8.898  0.00  0.00    +0.000 C 
ATOM     15  C   UNL     1     -33.545  88.114 -10.075  0.00  0.00    +0.000 C 
ATOM     16  C   UNL     1     -35.383  88.604  -5.592  0.00  0.00    +0.000 C 
ATOM     17  C   UNL     1     -34.932  89.151  -9.594  0.00  0.00    +0.000 C 
ATOM     18  C   UNL     1     -31.397  87.259  -8.920  0.00  0.00    +0.000 C 
ATOM     19  C   UNL     1     -32.317  88.386  -9.519  0.00  0.00    +0.000 C 
ATOM     20  C   UNL     1     -32.406  86.374 -11.615  0.00  0.00    +0.000 C 
ATOM     21  C   UNL     1     -34.745  86.339 -11.666  0.00  0.00    +0.000 C 
ATOM     22  C   UNL     1     -31.870  89.788  -9.189  0.00  0.00    +0.000 C 
ENDROOT
BRANCH   9  23
ATOM     23  O   UNL     1     -38.615  87.469  -7.129  0.00  0.00    +0.000 OA
ATOM     24  H   UNL     1     -38.713  86.504  -7.001  0.00  0.00    +0.000 HD
ENDBRANCH   9  23
BRANCH   8  25
ATOM     25  O   UNL     1     -33.433  84.102  -9.833  0.00  0.00    +0.000 OA
ATOM     26  H   UNL     1     -33.543  83.463  -9.107  0.00  0.00    +0.000 HD
ENDBRANCH   8  25
BRANCH  18  27
ATOM     27  O   UNL     1     -31.100  87.655  -7.549  0.00  0.00    +0.000 OA
BRANCH  27  29
ATOM     28  O   UNL     1     -28.940  88.231  -7.899  0.00  0.00    +0.000 OA
ATOM     29  C   UNL     1     -29.791  87.700  -7.193  0.00  0.00    +0.000 C 
BRANCH  29  30
ATOM     30  C   UNL     1     -29.448  86.902  -5.931  0.00  0.00    +0.000 C 
BRANCH  30  31
ATOM     31  O   UNL     1     -30.124  87.320  -4.739  0.00  0.00    +0.000 OA
ATOM     32  H   UNL     1     -30.694  86.575  -4.476  0.00  0.00    +0.000 HD
ENDBRANCH  30  31
BRANCH  30  33
ATOM     33  C   UNL     1     -27.908  86.952  -5.731  0.00  0.00    +0.000 C 
BRANCH  33  34
ATOM     34  C   UNL     1     -27.308  85.557  -5.834  0.00  0.00    +0.000 A 
ATOM     35  C   UNL     1     -26.536  85.218  -6.959  0.00  0.00    +0.000 A 
ATOM     36  C   UNL     1     -27.526  84.578  -4.851  0.00  0.00    +0.000 A 
ATOM     37  C   UNL     1     -25.984  83.943  -7.088  0.00  0.00    +0.000 A 
ATOM     38  C   UNL     1     -26.971  83.304  -4.981  0.00  0.00    +0.000 A 
ATOM     39  C   UNL     1     -26.199  82.988  -6.097  0.00  0.00    +0.000 A 
ENDBRANCH  33  34
BRANCH  33  41
ATOM     40  O   UNL     1     -26.441  89.020  -3.153  0.00  0.00    +0.000 OA
ATOM     41  N   UNL     1     -27.579  87.573  -4.442  0.00  0.00    +0.000 N 
ATOM     42  C   UNL     1     -26.419  88.186  -4.053  0.00  0.00    +0.000 C 
ATOM     43  H   UNL     1     -28.382  87.823  -3.873  0.00  0.00    +0.000 HD
BRANCH  42  44
ATOM     44  C   UNL     1     -25.143  87.885  -4.741  0.00  0.00    +0.000 A 
ATOM     45  C   UNL     1     -24.670  88.688  -5.783  0.00  0.00    +0.000 A 
ATOM     46  C   UNL     1     -24.444  86.729  -4.376  0.00  0.00    +0.000 A 
ATOM     47  C   UNL     1     -23.468  88.367  -6.416  0.00  0.00    +0.000 A 
ATOM     48  C   UNL     1     -23.244  86.409  -5.012  0.00  0.00    +0.000 A 
ATOM     49  C   UNL     1     -22.753  87.234  -6.025  0.00  0.00    +0.000 A 
ENDBRANCH  42  44
ENDBRANCH  33  41
ENDBRANCH  30  33
ENDBRANCH  29  30
ENDBRANCH  27  29
ENDBRANCH  18  27
BRANCH  17  50
ATOM     50  O   UNL     1     -35.584  89.446 -10.849  0.00  0.00    +0.000 OA
BRANCH  50  52
ATOM     51  O   UNL     1     -36.398  91.485 -11.285  0.00  0.00    +0.000 OA
ATOM     52  C   UNL     1     -35.511  90.653 -11.453  0.00  0.00    +0.000 C 
ATOM     53  C   UNL     1     -34.369  90.898 -12.393  0.00  0.00    +0.000 C 
ENDBRANCH  50  52
ENDBRANCH  17  50
BRANCH   7  54
ATOM     54  O   UNL     1     -33.739  86.421  -7.251  0.00  0.00    +0.000 OA
BRANCH  54  56
ATOM     55  O   UNL     1     -32.740  86.662  -5.525  0.00  0.00    +0.000 OA
ATOM     56  C   UNL     1     -33.075  85.738  -6.259  0.00  0.00    +0.000 C 
BRANCH  56  57
ATOM     57  C   UNL     1     -32.604  83.886  -6.357  0.00  0.00    +0.000 A 
ATOM     58  C   UNL     1     -33.552  82.778  -6.450  0.00  0.00    +0.000 A 
ATOM     59  C   UNL     1     -31.296  83.328  -6.486  0.00  0.00    +0.000 A 
ATOM     60  C   UNL     1     -33.251  81.405  -6.637  0.00  0.00    +0.000 A 
ATOM     61  C   UNL     1     -30.974  81.954  -6.673  0.00  0.00    +0.000 A 
ATOM     62  C   UNL     1     -31.950  80.990  -6.752  0.00  0.00    +0.000 A 
ENDBRANCH  56  57
ENDBRANCH  54  56
ENDBRANCH   7  54
BRANCH   4  63
ATOM     63  O   UNL     1     -35.152  86.221  -4.372  0.00  0.00    +0.000 OA
BRANCH  63  65
ATOM     64  O   UNL     1     -35.620  86.362  -2.190  0.00  0.00    +0.000 OA
ATOM     65  C   UNL     1     -34.928  85.876  -3.083  0.00  0.00    +0.000 C 
ATOM     66  C   UNL     1     -33.765  84.998  -2.749  0.00  0.00    +0.000 C 
ENDBRANCH  63  65
ENDBRANCH   4  63
TORSDOF 17
ENDMDL
MODEL 9
REMARK VINA RESULT:      -5.2     24.575     27.293
REMARK  Name = 
REMARK  23 active torsions:
REMARK  status: ('A' for Active; 'I' for Inactive)
REMARK    1  A    between atoms: O_2  and  C_17
REMARK    2  A    between atoms: O_2  and  C_36
REMARK    3  A    between atoms: O_3  and  C_20
REMARK    4  A    between atoms: O_3  and  C_37
REMARK    5  A    between atoms: O_4  and  C_21
REMARK    6  A    between atoms: O_5  and  C_22
REMARK    7  A    between atoms: O_6  and  C_30
REMARK    8  A    between atoms: O_6  and  C_39
REMARK    9  A    between atoms: O_8  and  C_31
REMARK   10  A    between atoms: O_8  and  C_40
REMARK   11  A    between atoms: O_13  and  C_42
REMARK   12  A    between atoms: N_15  and  C_46
REMARK   13  A    between atoms: C_18  and  C_29
REMARK   14  A    between atoms: C_24  and  C_33
REMARK   15  A    between atoms: C_24  and  C_34
REMARK   16  A    between atoms: C_32  and  C_35
REMARK   17  A    between atoms: C_36  and  C_38
REMARK   18  A    between atoms: C_37  and  C_41
REMARK   19  A    between atoms: C_39  and  C_43
REMARK   20  A    between atoms: C_40  and  C_42
REMARK   21  A    between atoms: C_42  and  C_46
REMARK   22  A    between atoms: C_46  and  C_50
REMARK   23  A    between atoms: C_53  and  C_56
REMARK                            x       y       z     vdW  Elec       q    Type
REMARK                         _______ _______ _______ _____ _____    ______ ____
ROOT
ATOM      1  O   UNL     1     -34.730  86.364  -5.659  0.00  0.00    +0.000 OA
ATOM      2  O   UNL     1     -36.909  83.814   0.104  0.00  0.00    +0.000 OA
ATOM      3  C   UNL     1     -37.401  84.860  -4.097  0.00  0.00    +0.000 C 
ATOM      4  C   UNL     1     -36.676  86.021  -4.837  0.00  0.00    +0.000 C 
ATOM      5  C   UNL     1     -37.043  85.073  -2.246  0.00  0.00    +0.000 C 
ATOM      6  C   UNL     1     -35.193  85.552  -4.545  0.00  0.00    +0.000 C 
ATOM      7  C   UNL     1     -39.130  84.591  -4.744  0.00  0.00    +0.000 C 
ATOM      8  C   UNL     1     -40.674  83.535  -4.451  0.00  0.00    +0.000 C 
ATOM      9  C   UNL     1     -35.463  84.977  -2.144  0.00  0.00    +0.000 C 
ATOM     10  C   UNL     1     -34.667  85.851  -3.159  0.00  0.00    +0.000 C 
ATOM     11  C   UNL     1     -41.042  82.468  -3.083  0.00  0.00    +0.000 C 
ATOM     12  C   UNL     1     -36.040  86.073  -6.282  0.00  0.00    +0.000 C 
ATOM     13  C   UNL     1     -37.715  84.038  -0.826  0.00  0.00    +0.000 C 
ATOM     14  C   UNL     1     -41.889  84.565  -4.326  0.00  0.00    +0.000 C 
ATOM     15  C   UNL     1     -40.911  83.232  -1.678  0.00  0.00    +0.000 C 
ATOM     16  C   UNL     1     -37.341  86.543  -1.734  0.00  0.00    +0.000 C 
ATOM     17  C   UNL     1     -39.459  83.259  -0.618  0.00  0.00    +0.000 C 
ATOM     18  C   UNL     1     -42.356  85.014  -2.868  0.00  0.00    +0.000 C 
ATOM     19  C   UNL     1     -41.787  84.289  -1.593  0.00  0.00    +0.000 C 
ATOM     20  C   UNL     1     -42.585  82.036  -3.247  0.00  0.00    +0.000 C 
ATOM     21  C   UNL     1     -40.491  81.005  -3.087  0.00  0.00    +0.000 C 
ATOM     22  C   UNL     1     -42.061  85.013  -0.298  0.00  0.00    +0.000 C 
ENDROOT
BRANCH   9  23
ATOM     23  O   UNL     1     -35.064  83.623  -2.359  0.00  0.00    +0.000 OA
ATOM     24  H   UNL     1     -35.006  83.210  -1.474  0.00  0.00    +0.000 HD
ENDBRANCH   9  23
BRANCH   8  25
ATOM     25  O   UNL     1     -40.881  82.803  -5.675  0.00  0.00    +0.000 OA
ATOM     26  H   UNL     1     -41.780  82.431  -5.669  0.00  0.00    +0.000 HD
ENDBRANCH   8  25
BRANCH  18  27
ATOM     27  O   UNL     1     -42.042  86.429  -2.711  0.00  0.00    +0.000 OA
BRANCH  27  29
ATOM     28  O   UNL     1     -44.220  87.032  -2.593  0.00  0.00    +0.000 OA
ATOM     29  C   UNL     1     -43.062  87.307  -2.890  0.00  0.00    +0.000 C 
BRANCH  29  30
ATOM     30  C   UNL     1     -42.673  88.588  -3.634  0.00  0.00    +0.000 C 
BRANCH  30  31
ATOM     31  O   UNL     1     -43.188  89.802  -3.075  0.00  0.00    +0.000 OA
ATOM     32  H   UNL     1     -43.030  89.745  -2.114  0.00  0.00    +0.000 HD
ENDBRANCH  30  31
BRANCH  30  33
ATOM     33  C   UNL     1     -43.117  88.440  -5.116  0.00  0.00    +0.000 C 
BRANCH  33  34
ATOM     34  C   UNL     1     -42.214  89.255  -6.031  0.00  0.00    +0.000 A 
ATOM     35  C   UNL     1     -42.431  89.225  -7.420  0.00  0.00    +0.000 A 
ATOM     36  C   UNL     1     -41.143  90.015  -5.536  0.00  0.00    +0.000 A 
ATOM     37  C   UNL     1     -41.612  89.951  -8.286  0.00  0.00    +0.000 A 
ATOM     38  C   UNL     1     -40.326  90.742  -6.403  0.00  0.00    +0.000 A 
ATOM     39  C   UNL     1     -40.561  90.712  -7.777  0.00  0.00    +0.000 A 
ENDBRANCH  33  34
BRANCH  33  41
ATOM     40  O   UNL     1     -46.729  88.413  -5.309  0.00  0.00    +0.000 OA
ATOM     41  N   UNL     1     -44.522  88.838  -5.273  0.00  0.00    +0.000 N 
ATOM     42  C   UNL     1     -45.597  88.078  -5.645  0.00  0.00    +0.000 C 
ATOM     43  H   UNL     1     -44.777  89.695  -4.790  0.00  0.00    +0.000 HD
BRANCH  42  44
ATOM     44  C   UNL     1     -45.401  86.826  -6.410  0.00  0.00    +0.000 A 
ATOM     45  C   UNL     1     -45.421  86.815  -7.808  0.00  0.00    +0.000 A 
ATOM     46  C   UNL     1     -45.265  85.625  -5.704  0.00  0.00    +0.000 A 
ATOM     47  C   UNL     1     -45.244  85.614  -8.497  0.00  0.00    +0.000 A 
ATOM     48  C   UNL     1     -45.090  84.426  -6.395  0.00  0.00    +0.000 A 
ATOM     49  C   UNL     1     -45.070  84.423  -7.790  0.00  0.00    +0.000 A 
ENDBRANCH  42  44
ENDBRANCH  33  41
ENDBRANCH  30  33
ENDBRANCH  29  30
ENDBRANCH  27  29
ENDBRANCH  18  27
BRANCH  17  50
ATOM     50  O   UNL     1     -39.406  81.918  -0.084  0.00  0.00    +0.000 OA
BRANCH  50  52
ATOM     51  O   UNL     1     -38.667  81.355   1.952  0.00  0.00    +0.000 OA
ATOM     52  C   UNL     1     -39.613  81.635   1.221  0.00  0.00    +0.000 C 
ATOM     53  C   UNL     1     -41.028  81.589   1.713  0.00  0.00    +0.000 C 
ENDBRANCH  50  52
ENDBRANCH  17  50
BRANCH   7  54
ATOM     54  O   UNL     1     -39.520  85.376  -3.762  0.00  0.00    +0.000 OA
BRANCH  54  56
ATOM     55  O   UNL     1     -39.706  87.374  -3.853  0.00  0.00    +0.000 OA
ATOM     56  C   UNL     1     -39.661  86.430  -4.634  0.00  0.00    +0.000 C 
BRANCH  56  57
ATOM     57  C   UNL     1     -40.023  86.238  -6.504  0.00  0.00    +0.000 A 
ATOM     58  C   UNL     1     -41.303  85.832  -7.079  0.00  0.00    +0.000 A 
ATOM     59  C   UNL     1     -39.166  86.581  -7.594  0.00  0.00    +0.000 A 
ATOM     60  C   UNL     1     -41.650  85.784  -8.452  0.00  0.00    +0.000 A 
ATOM     61  C   UNL     1     -39.495  86.538  -8.978  0.00  0.00    +0.000 A 
ATOM     62  C   UNL     1     -40.739  86.143  -9.410  0.00  0.00    +0.000 A 
ENDBRANCH  56  57
ENDBRANCH  54  56
ENDBRANCH   7  54
BRANCH   4  63
ATOM     63  O   UNL     1     -37.012  87.317  -4.287  0.00  0.00    +0.000 OA
BRANCH  63  65
ATOM     64  O   UNL     1     -35.760  89.168  -4.224  0.00  0.00    +0.000 OA
ATOM     65  C   UNL     1     -36.610  88.499  -4.808  0.00  0.00    +0.000 C 
ATOM     66  C   UNL     1     -37.292  89.034  -6.026  0.00  0.00    +0.000 C 
ENDBRANCH  63  65
ENDBRANCH   4  63
TORSDOF 17
ENDMDL
