MODEL 1
REMARK VINA RESULT:      -8.2      0.000      0.000
REMARK  Name = 
REMARK  5 active torsions:
REMARK  status: ('A' for Active; 'I' for Inactive)
REMARK    1  A    between atoms: O_1  and  C_16
REMARK    2  A    between atoms: O_3  and  C_25
REMARK    3  A    between atoms: C_11  and  C_22
REMARK    4  A    between atoms: C_16  and  C_28
REMARK    5  A    between atoms: C_29  and  C_31
REMARK                            x       y       z     vdW  Elec       q    Type
REMARK                         _______ _______ _______ _____ _____    ______ ____
ROOT
ATOM      1  O   UNL     1     -25.424 107.054   0.824  0.00  0.00    +0.000 OA
ATOM      2  N   UNL     1     -20.934  99.676   4.769  0.00  0.00    +0.000 NA
ATOM      3  C   UNL     1     -23.669 101.910   3.234  0.00  0.00    +0.000 C 
ATOM      4  C   UNL     1     -24.424 103.194   3.670  0.00  0.00    +0.000 C 
ATOM      5  C   UNL     1     -24.191 103.192   1.277  0.00  0.00    +0.000 C 
ATOM      6  C   UNL     1     -24.299 104.148   2.471  0.00  0.00    +0.000 C 
ATOM      7  C   UNL     1     -22.565 101.480   4.219  0.00  0.00    +0.000 C 
ATOM      8  C   UNL     1     -23.173 102.181   1.797  0.00  0.00    +0.000 C 
ATOM      9  C   UNL     1     -23.915 103.937  -0.056  0.00  0.00    +0.000 C 
ATOM     10  C   UNL     1     -23.155 101.408   5.645  0.00  0.00    +0.000 C 
ATOM     11  C   UNL     1     -23.880 103.802   4.959  0.00  0.00    +0.000 C 
ATOM     12  C   UNL     1     -25.115 104.910  -0.264  0.00  0.00    +0.000 C 
ATOM     13  C   UNL     1     -23.740 102.775   6.080  0.00  0.00    +0.000 C 
ATOM     14  C   UNL     1     -22.120 100.829   6.652  0.00  0.00    +0.000 C 
ATOM     15  C   UNL     1     -25.428 105.153   2.293  0.00  0.00    +0.000 C 
ATOM     16  C   UNL     1     -21.955 100.133   3.811  0.00  0.00    +0.000 C 
ATOM     17  C   UNL     1     -21.528  99.471   6.120  0.00  0.00    +0.000 C 
ATOM     18  C   UNL     1     -23.903 102.931  -1.236  0.00  0.00    +0.000 C 
ATOM     19  C   UNL     1     -25.290 105.837   0.941  0.00  0.00    +0.000 C 
ATOM     20  C   UNL     1     -22.563 104.692  -0.028  0.00  0.00    +0.000 C 
ATOM     21  C   UNL     1     -25.048 105.647  -1.601  0.00  0.00    +0.000 C 
ATOM     22  C   UNL     1     -23.892 103.614  -2.607  0.00  0.00    +0.000 C 
ATOM     23  C   UNL     1     -25.004 104.652  -2.761  0.00  0.00    +0.000 C 
ATOM     24  C   UNL     1     -20.465  98.902   7.094  0.00  0.00    +0.000 C 
ATOM     25  C   UNL     1     -20.326  98.436   4.247  0.00  0.00    +0.000 C 
ATOM     26  C   UNL     1     -22.750 100.657   8.043  0.00  0.00    +0.000 C 
ATOM     27  C   UNL     1     -19.210  97.895   5.147  0.00  0.00    +0.000 C 
ATOM     28  C   UNL     1     -19.762  97.663   6.552  0.00  0.00    +0.000 C 
ATOM     29  C   UNL     1     -17.987  98.816   5.155  0.00  0.00    +0.000 C 
ENDROOT
BRANCH  14  30
ATOM     30  O   UNL     1     -21.045 101.775   6.780  0.00  0.00    +0.000 OA
ATOM     31  H   UNL     1     -21.482 102.638   6.923  0.00  0.00    +0.000 HD
ENDBRANCH  14  30
BRANCH  23  32
ATOM     32  O   UNL     1     -24.801 105.347  -3.987  0.00  0.00    +0.000 OA
ATOM     33  H   UNL     1     -23.850 105.320  -4.190  0.00  0.00    +0.000 HD
ENDBRANCH  23  32
TORSDOF 2
ENDMDL
MODEL 2
REMARK VINA RESULT:      -7.4      2.325      9.131
REMARK  Name = 
REMARK  5 active torsions:
REMARK  status: ('A' for Active; 'I' for Inactive)
REMARK    1  A    between atoms: O_1  and  C_16
REMARK    2  A    between atoms: O_3  and  C_25
REMARK    3  A    between atoms: C_11  and  C_22
REMARK    4  A    between atoms: C_16  and  C_28
REMARK    5  A    between atoms: C_29  and  C_31
REMARK                            x       y       z     vdW  Elec       q    Type
REMARK                         _______ _______ _______ _____ _____    ______ ____
ROOT
ATOM      1  O   UNL     1     -19.809  99.439   5.230  0.00  0.00    +0.000 OA
ATOM      2  N   UNL     1     -25.782 106.226   2.329  0.00  0.00    +0.000 NA
ATOM      3  C   UNL     1     -24.314 102.798   3.290  0.00  0.00    +0.000 C 
ATOM      4  C   UNL     1     -23.240 101.848   2.695  0.00  0.00    +0.000 C 
ATOM      5  C   UNL     1     -23.246 101.632   5.090  0.00  0.00    +0.000 C 
ATOM      6  C   UNL     1     -22.314 101.516   3.877  0.00  0.00    +0.000 C 
ATOM      7  C   UNL     1     -24.440 104.134   2.533  0.00  0.00    +0.000 C 
ATOM      8  C   UNL     1     -23.967 102.942   4.787  0.00  0.00    +0.000 C 
ATOM      9  C   UNL     1     -22.490 101.470   6.436  0.00  0.00    +0.000 C 
ATOM     10  C   UNL     1     -24.617 103.851   1.025  0.00  0.00    +0.000 C 
ATOM     11  C   UNL     1     -22.486 102.455   1.517  0.00  0.00    +0.000 C 
ATOM     12  C   UNL     1     -21.841 100.053   6.399  0.00  0.00    +0.000 C 
ATOM     13  C   UNL     1     -23.421 103.042   0.462  0.00  0.00    +0.000 C 
ATOM     14  C   UNL     1     -24.903 105.162   0.237  0.00  0.00    +0.000 C 
ATOM     15  C   UNL     1     -21.617 100.165   3.824  0.00  0.00    +0.000 C 
ATOM     16  C   UNL     1     -25.610 104.967   3.074  0.00  0.00    +0.000 C 
ATOM     17  C   UNL     1     -26.091 105.957   0.897  0.00  0.00    +0.000 C 
ATOM     18  C   UNL     1     -23.492 101.508   7.618  0.00  0.00    +0.000 C 
ATOM     19  C   UNL     1     -20.953  99.883   5.165  0.00  0.00    +0.000 C 
ATOM     20  C   UNL     1     -21.430 102.581   6.641  0.00  0.00    +0.000 C 
ATOM     21  C   UNL     1     -21.143  99.694   7.711  0.00  0.00    +0.000 C 
ATOM     22  C   UNL     1     -22.862 101.103   8.954  0.00  0.00    +0.000 C 
ATOM     23  C   UNL     1     -22.127  99.764   8.880  0.00  0.00    +0.000 C 
ATOM     24  C   UNL     1     -26.361 107.286   0.147  0.00  0.00    +0.000 C 
ATOM     25  C   UNL     1     -26.851 107.010   2.979  0.00  0.00    +0.000 C 
ATOM     26  C   UNL     1     -25.187 104.858  -1.242  0.00  0.00    +0.000 C 
ATOM     27  C   UNL     1     -27.084 108.368   2.311  0.00  0.00    +0.000 C 
ATOM     28  C   UNL     1     -27.408 108.156   0.834  0.00  0.00    +0.000 C 
ATOM     29  C   UNL     1     -25.895 109.313   2.509  0.00  0.00    +0.000 C 
ENDROOT
BRANCH  14  30
ATOM     30  O   UNL     1     -23.723 105.981   0.289  0.00  0.00    +0.000 OA
ATOM     31  H   UNL     1     -23.808 106.598  -0.465  0.00  0.00    +0.000 HD
ENDBRANCH  14  30
BRANCH  23  32
ATOM     32  O   UNL     1     -21.434  99.564  10.107  0.00  0.00    +0.000 OA
ATOM     33  H   UNL     1     -21.507 100.384  10.626  0.00  0.00    +0.000 HD
ENDBRANCH  23  32
TORSDOF 2
ENDMDL
MODEL 3
REMARK VINA RESULT:      -7.0     19.201     22.129
REMARK  Name = 
REMARK  5 active torsions:
REMARK  status: ('A' for Active; 'I' for Inactive)
REMARK    1  A    between atoms: O_1  and  C_16
REMARK    2  A    between atoms: O_3  and  C_25
REMARK    3  A    between atoms: C_11  and  C_22
REMARK    4  A    between atoms: C_16  and  C_28
REMARK    5  A    between atoms: C_29  and  C_31
REMARK                            x       y       z     vdW  Elec       q    Type
REMARK                         _______ _______ _______ _____ _____    ______ ____
ROOT
ATOM      1  O   UNL     1     -31.367  91.851  17.591  0.00  0.00    +0.000 OA
ATOM      2  N   UNL     1     -28.614  83.718  13.537  0.00  0.00    +0.000 NA
ATOM      3  C   UNL     1     -28.810  86.761  15.889  0.00  0.00    +0.000 C 
ATOM      4  C   UNL     1     -28.556  88.286  15.749  0.00  0.00    +0.000 C 
ATOM      5  C   UNL     1     -30.297  87.920  17.366  0.00  0.00    +0.000 C 
ATOM      6  C   UNL     1     -29.815  88.947  16.334  0.00  0.00    +0.000 C 
ATOM      7  C   UNL     1     -28.675  85.991  14.561  0.00  0.00    +0.000 C 
ATOM      8  C   UNL     1     -30.187  86.624  16.570  0.00  0.00    +0.000 C 
ATOM      9  C   UNL     1     -31.657  88.314  18.003  0.00  0.00    +0.000 C 
ATOM     10  C   UNL     1     -27.324  86.345  13.901  0.00  0.00    +0.000 C 
ATOM     11  C   UNL     1     -28.283  88.721  14.313  0.00  0.00    +0.000 C 
ATOM     12  C   UNL     1     -31.429  89.693  18.692  0.00  0.00    +0.000 C 
ATOM     13  C   UNL     1     -27.212  87.868  13.635  0.00  0.00    +0.000 C 
ATOM     14  C   UNL     1     -27.072  85.476  12.635  0.00  0.00    +0.000 C 
ATOM     15  C   UNL     1     -29.625  90.325  16.949  0.00  0.00    +0.000 C 
ATOM     16  C   UNL     1     -28.793  84.478  14.787  0.00  0.00    +0.000 C 
ATOM     17  C   UNL     1     -27.257  83.948  12.966  0.00  0.00    +0.000 C 
ATOM     18  C   UNL     1     -32.050  87.289  19.097  0.00  0.00    +0.000 C 
ATOM     19  C   UNL     1     -30.887  90.724  17.700  0.00  0.00    +0.000 C 
ATOM     20  C   UNL     1     -32.791  88.380  16.949  0.00  0.00    +0.000 C 
ATOM     21  C   UNL     1     -32.658  90.172  19.465  0.00  0.00    +0.000 C 
ATOM     22  C   UNL     1     -33.244  87.741  19.943  0.00  0.00    +0.000 C 
ATOM     23  C   UNL     1     -33.062  89.144  20.523  0.00  0.00    +0.000 C 
ATOM     24  C   UNL     1     -27.050  83.072  11.704  0.00  0.00    +0.000 C 
ATOM     25  C   UNL     1     -28.849  82.289  13.823  0.00  0.00    +0.000 C 
ATOM     26  C   UNL     1     -25.680  85.757  12.049  0.00  0.00    +0.000 C 
ATOM     27  C   UNL     1     -28.735  81.405  12.577  0.00  0.00    +0.000 C 
ATOM     28  C   UNL     1     -27.358  81.599  11.945  0.00  0.00    +0.000 C 
ATOM     29  C   UNL     1     -29.867  81.674  11.581  0.00  0.00    +0.000 C 
ENDROOT
BRANCH  14  30
ATOM     30  O   UNL     1     -28.041  85.847  11.639  0.00  0.00    +0.000 OA
ATOM     31  H   UNL     1     -27.797  86.756  11.373  0.00  0.00    +0.000 HD
ENDBRANCH  14  30
BRANCH  23  32
ATOM     32  O   UNL     1     -34.284  89.537  21.137  0.00  0.00    +0.000 OA
ATOM     33  H   UNL     1     -34.972  88.907  20.862  0.00  0.00    +0.000 HD
ENDBRANCH  23  32
TORSDOF 2
ENDMDL
MODEL 4
REMARK VINA RESULT:      -7.0     20.328     22.817
REMARK  Name = 
REMARK  5 active torsions:
REMARK  status: ('A' for Active; 'I' for Inactive)
REMARK    1  A    between atoms: O_1  and  C_16
REMARK    2  A    between atoms: O_3  and  C_25
REMARK    3  A    between atoms: C_11  and  C_22
REMARK    4  A    between atoms: C_16  and  C_28
REMARK    5  A    between atoms: C_29  and  C_31
REMARK                            x       y       z     vdW  Elec       q    Type
REMARK                         _______ _______ _______ _____ _____    ______ ____
ROOT
ATOM      1  O   UNL     1     -40.742 101.907   0.115  0.00  0.00    +0.000 OA
ATOM      2  N   UNL     1     -47.723 102.065   6.549  0.00  0.00    +0.000 NA
ATOM      3  C   UNL     1     -44.775 100.896   4.365  0.00  0.00    +0.000 C 
ATOM      4  C   UNL     1     -44.573 100.570   2.861  0.00  0.00    +0.000 C 
ATOM      5  C   UNL     1     -42.528 101.462   3.756  0.00  0.00    +0.000 C 
ATOM      6  C   UNL     1     -43.327 101.372   2.451  0.00  0.00    +0.000 C 
ATOM      7  C   UNL     1     -46.181 101.435   4.694  0.00  0.00    +0.000 C 
ATOM      8  C   UNL     1     -43.621 101.846   4.748  0.00  0.00    +0.000 C 
ATOM      9  C   UNL     1     -41.269 102.360   3.620  0.00  0.00    +0.000 C 
ATOM     10  C   UNL     1     -47.243 100.477   4.111  0.00  0.00    +0.000 C 
ATOM     11  C   UNL     1     -45.790 100.904   2.004  0.00  0.00    +0.000 C 
ATOM     12  C   UNL     1     -40.394 101.711   2.506  0.00  0.00    +0.000 C 
ATOM     13  C   UNL     1     -47.085 100.332   2.575  0.00  0.00    +0.000 C 
ATOM     14  C   UNL     1     -48.677 100.894   4.549  0.00  0.00    +0.000 C 
ATOM     15  C   UNL     1     -42.498 100.789   1.316  0.00  0.00    +0.000 C 
ATOM     16  C   UNL     1     -46.367 101.601   6.208  0.00  0.00    +0.000 C 
ATOM     17  C   UNL     1     -48.748 101.076   6.111  0.00  0.00    +0.000 C 
ATOM     18  C   UNL     1     -40.457 102.342   4.940  0.00  0.00    +0.000 C 
ATOM     19  C   UNL     1     -41.184 101.549   1.205  0.00  0.00    +0.000 C 
ATOM     20  C   UNL     1     -41.639 103.825   3.279  0.00  0.00    +0.000 C 
ATOM     21  C   UNL     1     -39.053 102.423   2.324  0.00  0.00    +0.000 C 
ATOM     22  C   UNL     1     -39.077 102.994   4.805  0.00  0.00    +0.000 C 
ATOM     23  C   UNL     1     -38.268 102.432   3.637  0.00  0.00    +0.000 C 
ATOM     24  C   UNL     1     -50.160 101.531   6.558  0.00  0.00    +0.000 C 
ATOM     25  C   UNL     1     -47.783 102.301   8.006  0.00  0.00    +0.000 C 
ATOM     26  C   UNL     1     -49.715  99.874   4.057  0.00  0.00    +0.000 C 
ATOM     27  C   UNL     1     -49.142 102.834   8.468  0.00  0.00    +0.000 C 
ATOM     28  C   UNL     1     -50.238 101.857   8.046  0.00  0.00    +0.000 C 
ATOM     29  C   UNL     1     -49.405 104.251   7.950  0.00  0.00    +0.000 C 
ENDROOT
BRANCH  14  30
ATOM     30  O   UNL     1     -48.984 102.154   3.929  0.00  0.00    +0.000 OA
ATOM     31  H   UNL     1     -48.202 102.364   3.379  0.00  0.00    +0.000 HD
ENDBRANCH  14  30
BRANCH  23  32
ATOM     32  O   UNL     1     -37.089 103.216   3.489  0.00  0.00    +0.000 OA
ATOM     33  H   UNL     1     -37.118 103.924   4.156  0.00  0.00    +0.000 HD
ENDBRANCH  23  32
TORSDOF 2
ENDMDL
MODEL 5
REMARK VINA RESULT:      -6.6     21.024     22.152
REMARK  Name = 
REMARK  5 active torsions:
REMARK  status: ('A' for Active; 'I' for Inactive)
REMARK    1  A    between atoms: O_1  and  C_16
REMARK    2  A    between atoms: O_3  and  C_25
REMARK    3  A    between atoms: C_11  and  C_22
REMARK    4  A    between atoms: C_16  and  C_28
REMARK    5  A    between atoms: C_29  and  C_31
REMARK                            x       y       z     vdW  Elec       q    Type
REMARK                         _______ _______ _______ _____ _____    ______ ____
ROOT
ATOM      1  O   UNL     1     -35.009  89.603  -9.551  0.00  0.00    +0.000 OA
ATOM      2  N   UNL     1     -37.111  84.433  -1.869  0.00  0.00    +0.000 NA
ATOM      3  C   UNL     1     -35.817  87.252  -4.150  0.00  0.00    +0.000 C 
ATOM      4  C   UNL     1     -34.672  87.399  -5.188  0.00  0.00    +0.000 C 
ATOM      5  C   UNL     1     -36.521  88.787  -5.850  0.00  0.00    +0.000 C 
ATOM      6  C   UNL     1     -35.350  87.988  -6.436  0.00  0.00    +0.000 C 
ATOM      7  C   UNL     1     -35.955  85.826  -3.583  0.00  0.00    +0.000 C 
ATOM      8  C   UNL     1     -37.086  87.790  -4.843  0.00  0.00    +0.000 C 
ATOM      9  C   UNL     1     -37.447  89.374  -6.949  0.00  0.00    +0.000 C 
ATOM     10  C   UNL     1     -34.579  85.345  -3.074  0.00  0.00    +0.000 C 
ATOM     11  C   UNL     1     -33.954  86.085  -5.480  0.00  0.00    +0.000 C 
ATOM     12  C   UNL     1     -36.551  90.307  -7.817  0.00  0.00    +0.000 C 
ATOM     13  C   UNL     1     -33.524  85.356  -4.210  0.00  0.00    +0.000 C 
ATOM     14  C   UNL     1     -34.695  83.971  -2.352  0.00  0.00    +0.000 C 
ATOM     15  C   UNL     1     -34.470  88.846  -7.335  0.00  0.00    +0.000 C 
ATOM     16  C   UNL     1     -37.001  85.777  -2.462  0.00  0.00    +0.000 C 
ATOM     17  C   UNL     1     -35.821  84.018  -1.251  0.00  0.00    +0.000 C 
ATOM     18  C   UNL     1     -38.558  90.240  -6.302  0.00  0.00    +0.000 C 
ATOM     19  C   UNL     1     -35.337  89.554  -8.367  0.00  0.00    +0.000 C 
ATOM     20  C   UNL     1     -38.111  88.262  -7.799  0.00  0.00    +0.000 C 
ATOM     21  C   UNL     1     -37.346  91.052  -8.889  0.00  0.00    +0.000 C 
ATOM     22  C   UNL     1     -39.355  91.056  -7.325  0.00  0.00    +0.000 C 
ATOM     23  C   UNL     1     -38.461  91.882  -8.250  0.00  0.00    +0.000 C 
ATOM     24  C   UNL     1     -35.977  82.644  -0.551  0.00  0.00    +0.000 C 
ATOM     25  C   UNL     1     -38.208  84.448  -0.881  0.00  0.00    +0.000 C 
ATOM     26  C   UNL     1     -33.344  83.554  -1.752  0.00  0.00    +0.000 C 
ATOM     27  C   UNL     1     -38.444  83.080  -0.232  0.00  0.00    +0.000 C 
ATOM     28  C   UNL     1     -37.150  82.601   0.422  0.00  0.00    +0.000 C 
ATOM     29  C   UNL     1     -38.994  82.061  -1.234  0.00  0.00    +0.000 C 
ENDROOT
BRANCH  14  30
ATOM     30  O   UNL     1     -35.056  82.982  -3.331  0.00  0.00    +0.000 OA
ATOM     31  H   UNL     1     -35.413  82.232  -2.814  0.00  0.00    +0.000 HD
ENDBRANCH  14  30
BRANCH  23  32
ATOM     32  O   UNL     1     -39.277  92.457  -9.265  0.00  0.00    +0.000 OA
ATOM     33  H   UNL     1     -39.090  93.412  -9.291  0.00  0.00    +0.000 HD
ENDBRANCH  23  32
TORSDOF 2
ENDMDL
MODEL 6
REMARK VINA RESULT:      -6.6      2.018      3.094
REMARK  Name = 
REMARK  5 active torsions:
REMARK  status: ('A' for Active; 'I' for Inactive)
REMARK    1  A    between atoms: O_1  and  C_16
REMARK    2  A    between atoms: O_3  and  C_25
REMARK    3  A    between atoms: C_11  and  C_22
REMARK    4  A    between atoms: C_16  and  C_28
REMARK    5  A    between atoms: C_29  and  C_31
REMARK                            x       y       z     vdW  Elec       q    Type
REMARK                         _______ _______ _______ _____ _____    ______ ____
ROOT
ATOM      1  O   UNL     1     -24.396 107.776   5.288  0.00  0.00    +0.000 OA
ATOM      2  N   UNL     1     -20.647  99.054   5.167  0.00  0.00    +0.000 NA
ATOM      3  C   UNL     1     -23.121 101.976   5.569  0.00  0.00    +0.000 C 
ATOM      4  C   UNL     1     -23.268 103.176   6.542  0.00  0.00    +0.000 C 
ATOM      5  C   UNL     1     -24.096 103.811   4.376  0.00  0.00    +0.000 C 
ATOM      6  C   UNL     1     -23.437 104.402   5.629  0.00  0.00    +0.000 C 
ATOM      7  C   UNL     1     -21.848 101.143   5.808  0.00  0.00    +0.000 C 
ATOM      8  C   UNL     1     -23.241 102.568   4.149  0.00  0.00    +0.000 C 
ATOM      9  C   UNL     1     -24.244 104.855   3.236  0.00  0.00    +0.000 C 
ATOM     10  C   UNL     1     -21.764 100.755   7.300  0.00  0.00    +0.000 C 
ATOM     11  C   UNL     1     -22.090 103.322   7.500  0.00  0.00    +0.000 C 
ATOM     12  C   UNL     1     -25.131 106.000   3.812  0.00  0.00    +0.000 C 
ATOM     13  C   UNL     1     -21.743 102.013   8.206  0.00  0.00    +0.000 C 
ATOM     14  C   UNL     1     -20.578  99.784   7.564  0.00  0.00    +0.000 C 
ATOM     15  C   UNL     1     -24.242 105.559   6.202  0.00  0.00    +0.000 C 
ATOM     16  C   UNL     1     -21.831  99.894   4.917  0.00  0.00    +0.000 C 
ATOM     17  C   UNL     1     -20.633  98.561   6.573  0.00  0.00    +0.000 C 
ATOM     18  C   UNL     1     -24.992 104.227   2.033  0.00  0.00    +0.000 C 
ATOM     19  C   UNL     1     -24.533 106.569   5.100  0.00  0.00    +0.000 C 
ATOM     20  C   UNL     1     -22.870 105.382   2.753  0.00  0.00    +0.000 C 
ATOM     21  C   UNL     1     -25.463 107.066   2.768  0.00  0.00    +0.000 C 
ATOM     22  C   UNL     1     -25.401 105.258   0.976  0.00  0.00    +0.000 C 
ATOM     23  C   UNL     1     -26.173 106.438   1.567  0.00  0.00    +0.000 C 
ATOM     24  C   UNL     1     -19.433  97.605   6.795  0.00  0.00    +0.000 C 
ATOM     25  C   UNL     1     -20.653  97.938   4.199  0.00  0.00    +0.000 C 
ATOM     26  C   UNL     1     -20.570  99.317   9.027  0.00  0.00    +0.000 C 
ATOM     27  C   UNL     1     -19.434  97.022   4.338  0.00  0.00    +0.000 C 
ATOM     28  C   UNL     1     -19.367  96.483   5.765  0.00  0.00    +0.000 C 
ATOM     29  C   UNL     1     -18.139  97.730   3.929  0.00  0.00    +0.000 C 
ENDROOT
BRANCH  14  30
ATOM     30  O   UNL     1     -19.354 100.502   7.333  0.00  0.00    +0.000 OA
ATOM     31  H   UNL     1     -19.566 101.436   7.533  0.00  0.00    +0.000 HD
ENDBRANCH  14  30
BRANCH  23  32
ATOM     32  O   UNL     1     -26.351 107.414   0.546  0.00  0.00    +0.000 OA
ATOM     33  H   UNL     1     -26.977 108.080   0.878  0.00  0.00    +0.000 HD
ENDBRANCH  23  32
TORSDOF 2
ENDMDL
MODEL 7
REMARK VINA RESULT:      -6.3     17.200     19.750
REMARK  Name = 
REMARK  5 active torsions:
REMARK  status: ('A' for Active; 'I' for Inactive)
REMARK    1  A    between atoms: O_1  and  C_16
REMARK    2  A    between atoms: O_3  and  C_25
REMARK    3  A    between atoms: C_11  and  C_22
REMARK    4  A    between atoms: C_16  and  C_28
REMARK    5  A    between atoms: C_29  and  C_31
REMARK                            x       y       z     vdW  Elec       q    Type
REMARK                         _______ _______ _______ _____ _____    ______ ____
ROOT
ATOM      1  O   UNL     1     -46.141 100.475   5.309  0.00  0.00    +0.000 OA
ATOM      2  N   UNL     1     -38.067 105.447   4.800  0.00  0.00    +0.000 NA
ATOM      3  C   UNL     1     -41.438 103.823   3.888  0.00  0.00    +0.000 C 
ATOM      4  C   UNL     1     -41.940 102.374   3.650  0.00  0.00    +0.000 C 
ATOM      5  C   UNL     1     -43.724 103.683   4.590  0.00  0.00    +0.000 C 
ATOM      6  C   UNL     1     -43.194 102.245   4.531  0.00  0.00    +0.000 C 
ATOM      7  C   UNL     1     -39.967 103.898   4.341  0.00  0.00    +0.000 C 
ATOM      8  C   UNL     1     -42.443 104.461   4.870  0.00  0.00    +0.000 C 
ATOM      9  C   UNL     1     -44.933 103.829   5.553  0.00  0.00    +0.000 C 
ATOM     10  C   UNL     1     -39.091 103.082   3.366  0.00  0.00    +0.000 C 
ATOM     11  C   UNL     1     -40.891 101.314   3.971  0.00  0.00    +0.000 C 
ATOM     12  C   UNL     1     -46.040 102.878   5.005  0.00  0.00    +0.000 C 
ATOM     13  C   UNL     1     -39.545 101.601   3.309  0.00  0.00    +0.000 C 
ATOM     14  C   UNL     1     -37.579 103.253   3.691  0.00  0.00    +0.000 C 
ATOM     15  C   UNL     1     -44.255 101.268   4.048  0.00  0.00    +0.000 C 
ATOM     16  C   UNL     1     -39.487 105.354   4.420  0.00  0.00    +0.000 C 
ATOM     17  C   UNL     1     -37.202 104.778   3.788  0.00  0.00    +0.000 C 
ATOM     18  C   UNL     1     -45.480 105.279   5.505  0.00  0.00    +0.000 C 
ATOM     19  C   UNL     1     -45.522 101.444   4.874  0.00  0.00    +0.000 C 
ATOM     20  C   UNL     1     -44.553 103.485   7.015  0.00  0.00    +0.000 C 
ATOM     21  C   UNL     1     -47.348 102.988   5.788  0.00  0.00    +0.000 C 
ATOM     22  C   UNL     1     -46.821 105.440   6.228  0.00  0.00    +0.000 C 
ATOM     23  C   UNL     1     -47.868 104.426   5.766  0.00  0.00    +0.000 C 
ATOM     24  C   UNL     1     -35.707 104.965   4.152  0.00  0.00    +0.000 C 
ATOM     25  C   UNL     1     -37.719 106.873   4.957  0.00  0.00    +0.000 C 
ATOM     26  C   UNL     1     -36.712 102.528   2.650  0.00  0.00    +0.000 C 
ATOM     27  C   UNL     1     -36.269 107.087   5.400  0.00  0.00    +0.000 C 
ATOM     28  C   UNL     1     -35.330 106.422   4.396  0.00  0.00    +0.000 C 
ATOM     29  C   UNL     1     -36.029 106.589   6.829  0.00  0.00    +0.000 C 
ENDROOT
BRANCH  14  30
ATOM     30  O   UNL     1     -37.325 102.639   4.966  0.00  0.00    +0.000 OA
ATOM     31  H   UNL     1     -37.759 103.223   5.620  0.00  0.00    +0.000 HD
ENDBRANCH  14  30
BRANCH  23  32
ATOM     32  O   UNL     1     -49.007 104.541   6.612  0.00  0.00    +0.000 OA
ATOM     33  H   UNL     1     -49.795 104.334   6.080  0.00  0.00    +0.000 HD
ENDBRANCH  23  32
TORSDOF 2
ENDMDL
MODEL 8
REMARK VINA RESULT:      -6.1     22.445     25.904
REMARK  Name = 
REMARK  5 active torsions:
REMARK  status: ('A' for Active; 'I' for Inactive)
REMARK    1  A    between atoms: O_1  and  C_16
REMARK    2  A    between atoms: O_3  and  C_25
REMARK    3  A    between atoms: C_11  and  C_22
REMARK    4  A    between atoms: C_16  and  C_28
REMARK    5  A    between atoms: C_29  and  C_31
REMARK                            x       y       z     vdW  Elec       q    Type
REMARK                         _______ _______ _______ _____ _____    ______ ____
ROOT
ATOM      1  O   UNL     1     -38.066  81.936  16.679  0.00  0.00    +0.000 OA
ATOM      2  N   UNL     1     -32.601  89.150  19.550  0.00  0.00    +0.000 NA
ATOM      3  C   UNL     1     -34.855  86.887  17.399  0.00  0.00    +0.000 C 
ATOM      4  C   UNL     1     -34.704  85.500  16.720  0.00  0.00    +0.000 C 
ATOM      5  C   UNL     1     -36.994  85.809  17.384  0.00  0.00    +0.000 C 
ATOM      6  C   UNL     1     -35.947  84.710  17.163  0.00  0.00    +0.000 C 
ATOM      7  C   UNL     1     -33.636  87.290  18.251  0.00  0.00    +0.000 C 
ATOM      8  C   UNL     1     -36.188  86.834  18.175  0.00  0.00    +0.000 C 
ATOM      9  C   UNL     1     -38.318  85.256  17.977  0.00  0.00    +0.000 C 
ATOM     10  C   UNL     1     -32.351  87.140  17.407  0.00  0.00    +0.000 C 
ATOM     11  C   UNL     1     -33.404  84.791  17.082  0.00  0.00    +0.000 C 
ATOM     12  C   UNL     1     -38.851  84.214  16.947  0.00  0.00    +0.000 C 
ATOM     13  C   UNL     1     -32.178  85.684  16.903  0.00  0.00    +0.000 C 
ATOM     14  C   UNL     1     -31.109  87.681  18.172  0.00  0.00    +0.000 C 
ATOM     15  C   UNL     1     -36.441  83.640  16.201  0.00  0.00    +0.000 C 
ATOM     16  C   UNL     1     -33.780  88.725  18.776  0.00  0.00    +0.000 C 
ATOM     17  C   UNL     1     -31.377  89.140  18.700  0.00  0.00    +0.000 C 
ATOM     18  C   UNL     1     -39.365  86.392  18.096  0.00  0.00    +0.000 C 
ATOM     19  C   UNL     1     -37.803  83.137  16.657  0.00  0.00    +0.000 C 
ATOM     20  C   UNL     1     -38.105  84.623  19.375  0.00  0.00    +0.000 C 
ATOM     21  C   UNL     1     -40.217  83.651  17.337  0.00  0.00    +0.000 C 
ATOM     22  C   UNL     1     -40.770  85.883  18.431  0.00  0.00    +0.000 C 
ATOM     23  C   UNL     1     -41.241  84.778  17.485  0.00  0.00    +0.000 C 
ATOM     24  C   UNL     1     -30.163  89.678  19.500  0.00  0.00    +0.000 C 
ATOM     25  C   UNL     1     -32.867  90.492  20.106  0.00  0.00    +0.000 C 
ATOM     26  C   UNL     1     -29.857  87.630  17.283  0.00  0.00    +0.000 C 
ATOM     27  C   UNL     1     -31.719  91.017  20.973  0.00  0.00    +0.000 C 
ATOM     28  C   UNL     1     -30.431  91.030  20.152  0.00  0.00    +0.000 C 
ATOM     29  C   UNL     1     -31.567  90.211  22.266  0.00  0.00    +0.000 C 
ENDROOT
BRANCH  14  30
ATOM     30  O   UNL     1     -30.872  86.824  19.301  0.00  0.00    +0.000 OA
ATOM     31  H   UNL     1     -30.027  86.372  19.104  0.00  0.00    +0.000 HD
ENDBRANCH  14  30
BRANCH  23  32
ATOM     32  O   UNL     1     -42.468  84.255  17.981  0.00  0.00    +0.000 OA
ATOM     33  H   UNL     1     -42.460  83.292  17.839  0.00  0.00    +0.000 HD
ENDBRANCH  23  32
TORSDOF 2
ENDMDL
MODEL 9
REMARK VINA RESULT:      -6.0     18.289     20.188
REMARK  Name = 
REMARK  5 active torsions:
REMARK  status: ('A' for Active; 'I' for Inactive)
REMARK    1  A    between atoms: O_1  and  C_16
REMARK    2  A    between atoms: O_3  and  C_25
REMARK    3  A    between atoms: C_11  and  C_22
REMARK    4  A    between atoms: C_16  and  C_28
REMARK    5  A    between atoms: C_29  and  C_31
REMARK                            x       y       z     vdW  Elec       q    Type
REMARK                         _______ _______ _______ _____ _____    ______ ____
ROOT
ATOM      1  O   UNL     1     -34.841  85.803 -10.914  0.00  0.00    +0.000 OA
ATOM      2  N   UNL     1     -27.028  89.039  -6.596  0.00  0.00    +0.000 NA
ATOM      3  C   UNL     1     -29.651  88.206  -9.289  0.00  0.00    +0.000 C 
ATOM      4  C   UNL     1     -30.162  86.910  -9.974  0.00  0.00    +0.000 C 
ATOM      5  C   UNL     1     -31.969  88.489  -9.828  0.00  0.00    +0.000 C 
ATOM      6  C   UNL     1     -31.693  86.981  -9.853  0.00  0.00    +0.000 C 
ATOM      7  C   UNL     1     -28.625  87.947  -8.169  0.00  0.00    +0.000 C 
ATOM      8  C   UNL     1     -30.914  88.968  -8.835  0.00  0.00    +0.000 C 
ATOM      9  C   UNL     1     -33.464  88.815  -9.570  0.00  0.00    +0.000 C 
ATOM     10  C   UNL     1     -27.500  87.037  -8.709  0.00  0.00    +0.000 C 
ATOM     11  C   UNL     1     -29.587  85.639  -9.358  0.00  0.00    +0.000 C 
ATOM     12  C   UNL     1     -34.258  88.149 -10.735  0.00  0.00    +0.000 C 
ATOM     13  C   UNL     1     -28.067  85.688  -9.221  0.00  0.00    +0.000 C 
ATOM     14  C   UNL     1     -26.359  86.872  -7.664  0.00  0.00    +0.000 C 
ATOM     15  C   UNL     1     -32.485  86.276 -10.944  0.00  0.00    +0.000 C 
ATOM     16  C   UNL     1     -28.051  89.265  -7.631  0.00  0.00    +0.000 C 
ATOM     17  C   UNL     1     -25.872  88.278  -7.149  0.00  0.00    +0.000 C 
ATOM     18  C   UNL     1     -33.697  90.345  -9.643  0.00  0.00    +0.000 C 
ATOM     19  C   UNL     1     -33.956  86.652 -10.827  0.00  0.00    +0.000 C 
ATOM     20  C   UNL     1     -33.937  88.301  -8.187  0.00  0.00    +0.000 C 
ATOM     21  C   UNL     1     -35.752  88.471 -10.685  0.00  0.00    +0.000 C 
ATOM     22  C   UNL     1     -35.180  90.727  -9.653  0.00  0.00    +0.000 C 
ATOM     23  C   UNL     1     -35.977  89.984 -10.725  0.00  0.00    +0.000 C 
ATOM     24  C   UNL     1     -24.764  88.129  -6.076  0.00  0.00    +0.000 C 
ATOM     25  C   UNL     1     -26.610  90.350  -6.060  0.00  0.00    +0.000 C 
ATOM     26  C   UNL     1     -25.196  86.058  -8.250  0.00  0.00    +0.000 C 
ATOM     27  C   UNL     1     -25.576  90.232  -4.936  0.00  0.00    +0.000 C 
ATOM     28  C   UNL     1     -24.362  89.458  -5.446  0.00  0.00    +0.000 C 
ATOM     29  C   UNL     1     -26.173  89.600  -3.676  0.00  0.00    +0.000 C 
ENDROOT
BRANCH  14  30
ATOM     30  O   UNL     1     -26.882  86.134  -6.546  0.00  0.00    +0.000 OA
ATOM     31  H   UNL     1     -27.574  85.555  -6.925  0.00  0.00    +0.000 HD
ENDBRANCH  14  30
BRANCH  23  32
ATOM     32  O   UNL     1     -37.358  90.271 -10.539  0.00  0.00    +0.000 OA
ATOM     33  H   UNL     1     -37.584  90.060  -9.616  0.00  0.00    +0.000 HD
ENDBRANCH  23  32
TORSDOF 2
ENDMDL
