MODEL 1
REMARK VINA RESULT:      -6.7      0.000      0.000
REMARK  Name = PhIP.pdbqt.pdb
REMARK  2 active torsions:
REMARK  status: ('A' for Active; 'I' for Inactive)
REMARK    1  A    between atoms: N_4  and  C_9
REMARK    2  A    between atoms: C_7  and  C_10
REMARK                            x       y       z     vdW  Elec       q    Type
REMARK                         _______ _______ _______ _____ _____    ______ ____
ROOT
ATOM      1  N   UNL     1     -36.744  99.103  14.453  0.00  0.00    +0.000 N 
ATOM      2  N   UNL     1     -37.183 100.602  12.654  0.00  0.00    +0.000 NA
ATOM      3  N   UNL     1     -34.892 101.327  12.313  0.00  0.00    +0.000 NA
ATOM      4  C   UNL     1     -35.542  99.608  14.060  0.00  0.00    +0.000 C 
ATOM      5  C   UNL     1     -35.901 100.562  12.912  0.00  0.00    +0.000 C 
ATOM      6  C   UNL     1     -33.284 100.520  14.020  0.00  0.00    +0.000 C 
ATOM      7  C   UNL     1     -34.337  99.703  14.538  0.00  0.00    +0.000 C 
ATOM      8  C   UNL     1     -37.670  99.735  13.620  0.00  0.00    +0.000 C 
ATOM      9  C   UNL     1     -37.038  98.772  15.837  0.00  0.00    +0.000 C 
ATOM     10  C   UNL     1     -33.882 101.206  12.908  0.00  0.00    +0.000 C 
ENDROOT
BRANCH   6  11
ATOM     11  C   UNL     1     -31.905 100.583  14.465  0.00  0.00    +0.000 A 
ATOM     12  C   UNL     1     -31.190 101.781  14.397  0.00  0.00    +0.000 A 
ATOM     13  C   UNL     1     -31.268  99.448  14.971  0.00  0.00    +0.000 A 
ATOM     14  C   UNL     1     -29.864 101.844  14.824  0.00  0.00    +0.000 A 
ATOM     15  C   UNL     1     -29.943  99.506  15.399  0.00  0.00    +0.000 A 
ATOM     16  C   UNL     1     -29.241 100.706  15.325  0.00  0.00    +0.000 A 
ENDBRANCH   6  11
BRANCH   8  17
ATOM     17  N   UNL     1     -39.066  99.640  13.741  0.00  0.00    +0.000 NA
ATOM     18  H   UNL     1     -39.537  99.454  12.862  0.00  0.00    +0.000 HD
ATOM     19  H   UNL     1     -39.354  99.034  14.500  0.00  0.00    +0.000 HD
ENDBRANCH   8  17
TORSDOF 2
ENDMDL
MODEL 2
REMARK VINA RESULT:      -6.0     11.667     13.538
REMARK  Name = PhIP.pdbqt.pdb
REMARK  2 active torsions:
REMARK  status: ('A' for Active; 'I' for Inactive)
REMARK    1  A    between atoms: N_4  and  C_9
REMARK    2  A    between atoms: C_7  and  C_10
REMARK                            x       y       z     vdW  Elec       q    Type
REMARK                         _______ _______ _______ _____ _____    ______ ____
ROOT
ATOM      1  N   UNL     1     -28.333  87.463  14.990  0.00  0.00    +0.000 N 
ATOM      2  N   UNL     1     -27.670  89.735  14.717  0.00  0.00    +0.000 NA
ATOM      3  N   UNL     1     -29.332  90.705  16.196  0.00  0.00    +0.000 NA
ATOM      4  C   UNL     1     -29.137  88.207  15.799  0.00  0.00    +0.000 C 
ATOM      5  C   UNL     1     -28.660  89.648  15.568  0.00  0.00    +0.000 C 
ATOM      6  C   UNL     1     -31.040  89.108  17.024  0.00  0.00    +0.000 C 
ATOM      7  C   UNL     1     -30.266  88.064  16.427  0.00  0.00    +0.000 C 
ATOM      8  C   UNL     1     -27.515  88.405  14.361  0.00  0.00    +0.000 C 
ATOM      9  C   UNL     1     -28.797  86.261  14.320  0.00  0.00    +0.000 C 
ATOM     10  C   UNL     1     -30.302  90.306  16.736  0.00  0.00    +0.000 C 
ENDROOT
BRANCH   6  11
ATOM     11  C   UNL     1     -32.251  88.979  17.811  0.00  0.00    +0.000 A 
ATOM     12  C   UNL     1     -32.288  89.416  19.137  0.00  0.00    +0.000 A 
ATOM     13  C   UNL     1     -33.403  88.418  17.257  0.00  0.00    +0.000 A 
ATOM     14  C   UNL     1     -33.451  89.293  19.896  0.00  0.00    +0.000 A 
ATOM     15  C   UNL     1     -34.569  88.293  18.011  0.00  0.00    +0.000 A 
ATOM     16  C   UNL     1     -34.592  88.731  19.332  0.00  0.00    +0.000 A 
ENDBRANCH   6  11
BRANCH   8  17
ATOM     17  N   UNL     1     -26.609  88.126  13.324  0.00  0.00    +0.000 NA
ATOM     18  H   UNL     1     -26.986  87.511  12.611  0.00  0.00    +0.000 HD
ATOM     19  H   UNL     1     -26.163  88.958  12.958  0.00  0.00    +0.000 HD
ENDBRANCH   8  17
TORSDOF 2
ENDMDL
MODEL 3
REMARK VINA RESULT:      -5.9      1.871      3.066
REMARK  Name = PhIP.pdbqt.pdb
REMARK  2 active torsions:
REMARK  status: ('A' for Active; 'I' for Inactive)
REMARK    1  A    between atoms: N_4  and  C_9
REMARK    2  A    between atoms: C_7  and  C_10
REMARK                            x       y       z     vdW  Elec       q    Type
REMARK                         _______ _______ _______ _____ _____    ______ ____
ROOT
ATOM      1  N   UNL     1     -38.203 102.584  14.202  0.00  0.00    +0.000 N 
ATOM      2  N   UNL     1     -39.237 100.682  13.209  0.00  0.00    +0.000 NA
ATOM      3  N   UNL     1     -37.331  99.189  13.382  0.00  0.00    +0.000 NA
ATOM      4  C   UNL     1     -37.288 101.575  14.240  0.00  0.00    +0.000 C 
ATOM      5  C   UNL     1     -38.017 100.394  13.583  0.00  0.00    +0.000 C 
ATOM      6  C   UNL     1     -35.235 100.270  14.148  0.00  0.00    +0.000 C 
ATOM      7  C   UNL     1     -36.007 101.446  14.406  0.00  0.00    +0.000 C 
ATOM      8  C   UNL     1     -39.311 102.018  13.567  0.00  0.00    +0.000 C 
ATOM      9  C   UNL     1     -37.824 103.975  14.020  0.00  0.00    +0.000 C 
ATOM     10  C   UNL     1     -36.190  99.321  13.648  0.00  0.00    +0.000 C 
ENDROOT
BRANCH   6  11
ATOM     11  C   UNL     1     -33.824 100.056  14.408  0.00  0.00    +0.000 A 
ATOM     12  C   UNL     1     -33.406  99.054  15.286  0.00  0.00    +0.000 A 
ATOM     13  C   UNL     1     -32.858 100.847  13.783  0.00  0.00    +0.000 A 
ATOM     14  C   UNL     1     -32.051  98.847  15.537  0.00  0.00    +0.000 A 
ATOM     15  C   UNL     1     -31.501 100.644  14.031  0.00  0.00    +0.000 A 
ATOM     16  C   UNL     1     -31.098  99.643  14.909  0.00  0.00    +0.000 A 
ENDBRANCH   6  11
BRANCH   8  17
ATOM     17  N   UNL     1     -40.463 102.719  13.172  0.00  0.00    +0.000 NA
ATOM     18  H   UNL     1     -40.360 103.202  12.287  0.00  0.00    +0.000 HD
ATOM     19  H   UNL     1     -41.305 102.161  13.242  0.00  0.00    +0.000 HD
ENDBRANCH   8  17
TORSDOF 2
ENDMDL
MODEL 4
REMARK VINA RESULT:      -5.9      4.143      6.699
REMARK  Name = PhIP.pdbqt.pdb
REMARK  2 active torsions:
REMARK  status: ('A' for Active; 'I' for Inactive)
REMARK    1  A    between atoms: N_4  and  C_9
REMARK    2  A    between atoms: C_7  and  C_10
REMARK                            x       y       z     vdW  Elec       q    Type
REMARK                         _______ _______ _______ _____ _____    ______ ____
ROOT
ATOM      1  N   UNL     1     -29.679 100.815  17.643  0.00  0.00    +0.000 N 
ATOM      2  N   UNL     1     -29.281  98.469  17.744  0.00  0.00    +0.000 NA
ATOM      3  N   UNL     1     -30.946  97.820  16.101  0.00  0.00    +0.000 NA
ATOM      4  C   UNL     1     -30.509 100.237  16.730  0.00  0.00    +0.000 C 
ATOM      5  C   UNL     1     -30.203  98.737  16.855  0.00  0.00    +0.000 C 
ATOM      6  C   UNL     1     -32.420  99.662  15.335  0.00  0.00    +0.000 C 
ATOM      7  C   UNL     1     -31.575 100.558  16.062  0.00  0.00    +0.000 C 
ATOM      8  C   UNL     1     -29.006  99.738  18.225  0.00  0.00    +0.000 C 
ATOM      9  C   UNL     1     -30.051 102.002  18.394  0.00  0.00    +0.000 C 
ATOM     10  C   UNL     1     -31.833  98.368  15.551  0.00  0.00    +0.000 C 
ENDROOT
BRANCH   6  11
ATOM     11  C   UNL     1     -33.561  99.992  14.503  0.00  0.00    +0.000 A 
ATOM     12  C   UNL     1     -33.465 100.983  13.524  0.00  0.00    +0.000 A 
ATOM     13  C   UNL     1     -34.776  99.322  14.664  0.00  0.00    +0.000 A 
ATOM     14  C   UNL     1     -34.560 101.301  12.722  0.00  0.00    +0.000 A 
ATOM     15  C   UNL     1     -35.874  99.637  13.866  0.00  0.00    +0.000 A 
ATOM     16  C   UNL     1     -35.765 100.628  12.894  0.00  0.00    +0.000 A 
ENDBRANCH   6  11
BRANCH   8  17
ATOM     17  N   UNL     1     -28.139  99.826  19.327  0.00  0.00    +0.000 NA
ATOM     18  H   UNL     1     -28.518 100.365  20.098  0.00  0.00    +0.000 HD
ATOM     19  H   UNL     1     -27.758  98.928  19.600  0.00  0.00    +0.000 HD
ENDBRANCH   8  17
TORSDOF 2
ENDMDL
MODEL 5
REMARK VINA RESULT:      -5.9     13.382     15.544
REMARK  Name = PhIP.pdbqt.pdb
REMARK  2 active torsions:
REMARK  status: ('A' for Active; 'I' for Inactive)
REMARK    1  A    between atoms: N_4  and  C_9
REMARK    2  A    between atoms: C_7  and  C_10
REMARK                            x       y       z     vdW  Elec       q    Type
REMARK                         _______ _______ _______ _____ _____    ______ ____
ROOT
ATOM      1  N   UNL     1     -22.834 102.829   6.683  0.00  0.00    +0.000 N 
ATOM      2  N   UNL     1     -23.741 100.628   6.771  0.00  0.00    +0.000 NA
ATOM      3  N   UNL     1     -24.319 100.456   4.420  0.00  0.00    +0.000 NA
ATOM      4  C   UNL     1     -23.193 102.501   5.410  0.00  0.00    +0.000 C 
ATOM      5  C   UNL     1     -23.770 101.085   5.545  0.00  0.00    +0.000 C 
ATOM      6  C   UNL     1     -24.039 102.554   3.127  0.00  0.00    +0.000 C 
ATOM      7  C   UNL     1     -23.416 103.114   4.287  0.00  0.00    +0.000 C 
ATOM      8  C   UNL     1     -23.200 101.714   7.440  0.00  0.00    +0.000 C 
ATOM      9  C   UNL     1     -22.926 104.185   7.195  0.00  0.00    +0.000 C 
ATOM     10  C   UNL     1     -24.372 101.212   3.516  0.00  0.00    +0.000 C 
ENDROOT
BRANCH   6  11
ATOM     11  C   UNL     1     -24.221 103.173   1.828  0.00  0.00    +0.000 A 
ATOM     12  C   UNL     1     -23.664 102.600   0.683  0.00  0.00    +0.000 A 
ATOM     13  C   UNL     1     -24.957 104.352   1.698  0.00  0.00    +0.000 A 
ATOM     14  C   UNL     1     -23.837 103.192  -0.567  0.00  0.00    +0.000 A 
ATOM     15  C   UNL     1     -25.134 104.949   0.451  0.00  0.00    +0.000 A 
ATOM     16  C   UNL     1     -24.572 104.367  -0.682  0.00  0.00    +0.000 A 
ENDBRANCH   6  11
BRANCH   8  17
ATOM     17  N   UNL     1     -23.153 101.637   8.842  0.00  0.00    +0.000 NA
ATOM     18  H   UNL     1     -22.238 101.391   9.204  0.00  0.00    +0.000 HD
ATOM     19  H   UNL     1     -23.574 102.438   9.294  0.00  0.00    +0.000 HD
ENDBRANCH   8  17
TORSDOF 2
ENDMDL
MODEL 6
REMARK VINA RESULT:      -5.7      3.486      6.289
REMARK  Name = PhIP.pdbqt.pdb
REMARK  2 active torsions:
REMARK  status: ('A' for Active; 'I' for Inactive)
REMARK    1  A    between atoms: N_4  and  C_9
REMARK    2  A    between atoms: C_7  and  C_10
REMARK                            x       y       z     vdW  Elec       q    Type
REMARK                         _______ _______ _______ _____ _____    ______ ____
ROOT
ATOM      1  N   UNL     1     -31.366  98.872  17.671  0.00  0.00    +0.000 N 
ATOM      2  N   UNL     1     -29.790  99.828  16.162  0.00  0.00    +0.000 NA
ATOM      3  N   UNL     1     -31.390 100.548  14.485  0.00  0.00    +0.000 NA
ATOM      4  C   UNL     1     -32.080  99.397  16.637  0.00  0.00    +0.000 C 
ATOM      5  C   UNL     1     -31.007  99.985  15.710  0.00  0.00    +0.000 C 
ATOM      6  C   UNL     1     -33.715  99.773  14.871  0.00  0.00    +0.000 C 
ATOM      7  C   UNL     1     -33.277  99.289  16.144  0.00  0.00    +0.000 C 
ATOM      8  C   UNL     1     -30.035  99.126  17.331  0.00  0.00    +0.000 C 
ATOM      9  C   UNL     1     -31.776  97.668  18.372  0.00  0.00    +0.000 C 
ATOM     10  C   UNL     1     -32.537 100.353  14.289  0.00  0.00    +0.000 C 
ENDROOT
BRANCH   6  11
ATOM     11  C   UNL     1     -35.058  99.755  14.326  0.00  0.00    +0.000 A 
ATOM     12  C   UNL     1     -36.083  99.070  14.982  0.00  0.00    +0.000 A 
ATOM     13  C   UNL     1     -35.352 100.425  13.136  0.00  0.00    +0.000 A 
ATOM     14  C   UNL     1     -37.376  99.052  14.459  0.00  0.00    +0.000 A 
ATOM     15  C   UNL     1     -36.642 100.410  12.609  0.00  0.00    +0.000 A 
ATOM     16  C   UNL     1     -37.655  99.722  13.273  0.00  0.00    +0.000 A 
ENDBRANCH   6  11
BRANCH   8  17
ATOM     17  N   UNL     1     -28.915  98.645  18.030  0.00  0.00    +0.000 NA
ATOM     18  H   UNL     1     -29.153  98.065  18.827  0.00  0.00    +0.000 HD
ATOM     19  H   UNL     1     -28.215  98.241  17.420  0.00  0.00    +0.000 HD
ENDBRANCH   8  17
TORSDOF 2
ENDMDL
MODEL 7
REMARK VINA RESULT:      -5.6     12.113     13.734
REMARK  Name = PhIP.pdbqt.pdb
REMARK  2 active torsions:
REMARK  status: ('A' for Active; 'I' for Inactive)
REMARK    1  A    between atoms: N_4  and  C_9
REMARK    2  A    between atoms: C_7  and  C_10
REMARK                            x       y       z     vdW  Elec       q    Type
REMARK                         _______ _______ _______ _____ _____    ______ ____
ROOT
ATOM      1  N   UNL     1     -28.363  86.054  14.386  0.00  0.00    +0.000 N 
ATOM      2  N   UNL     1     -27.184  87.633  13.047  0.00  0.00    +0.000 NA
ATOM      3  N   UNL     1     -27.719  89.596  14.370  0.00  0.00    +0.000 NA
ATOM      4  C   UNL     1     -28.498  87.264  14.996  0.00  0.00    +0.000 C 
ATOM      5  C   UNL     1     -27.724  88.225  14.081  0.00  0.00    +0.000 C 
ATOM      6  C   UNL     1     -29.364  89.205  16.186  0.00  0.00    +0.000 C 
ATOM      7  C   UNL     1     -29.265  87.808  15.892  0.00  0.00    +0.000 C 
ATOM      8  C   UNL     1     -27.612  86.329  13.241  0.00  0.00    +0.000 C 
ATOM      9  C   UNL     1     -29.409  85.047  14.409  0.00  0.00    +0.000 C 
ATOM     10  C   UNL     1     -28.465  89.828  15.254  0.00  0.00    +0.000 C 
ENDROOT
BRANCH   6  11
ATOM     11  C   UNL     1     -30.134  89.841  17.237  0.00  0.00    +0.000 A 
ATOM     12  C   UNL     1     -31.156  89.148  17.890  0.00  0.00    +0.000 A 
ATOM     13  C   UNL     1     -29.866  91.158  17.618  0.00  0.00    +0.000 A 
ATOM     14  C   UNL     1     -31.897  89.757  18.901  0.00  0.00    +0.000 A 
ATOM     15  C   UNL     1     -30.605  91.772  18.628  0.00  0.00    +0.000 A 
ATOM     16  C   UNL     1     -31.621  91.070  19.269  0.00  0.00    +0.000 A 
ENDBRANCH   6  11
BRANCH   8  17
ATOM     17  N   UNL     1     -27.333  85.410  12.215  0.00  0.00    +0.000 NA
ATOM     18  H   UNL     1     -26.992  84.517  12.553  0.00  0.00    +0.000 HD
ATOM     19  H   UNL     1     -28.083  85.337  11.538  0.00  0.00    +0.000 HD
ENDBRANCH   8  17
TORSDOF 2
ENDMDL
MODEL 8
REMARK VINA RESULT:      -5.4     26.226     27.534
REMARK  Name = PhIP.pdbqt.pdb
REMARK  2 active torsions:
REMARK  status: ('A' for Active; 'I' for Inactive)
REMARK    1  A    between atoms: N_4  and  C_9
REMARK    2  A    between atoms: C_7  and  C_10
REMARK                            x       y       z     vdW  Elec       q    Type
REMARK                         _______ _______ _______ _____ _____    ______ ____
ROOT
ATOM      1  N   UNL     1     -35.524 101.278 -13.505  0.00  0.00    +0.000 N 
ATOM      2  N   UNL     1     -36.494 100.136 -11.653  0.00  0.00    +0.000 NA
ATOM      3  N   UNL     1     -34.695  98.543 -11.317  0.00  0.00    +0.000 NA
ATOM      4  C   UNL     1     -34.625 100.334 -13.112  0.00  0.00    +0.000 C 
ATOM      5  C   UNL     1     -35.315  99.640 -11.928  0.00  0.00    +0.000 C 
ATOM      6  C   UNL     1     -32.941  98.576 -13.071  0.00  0.00    +0.000 C 
ATOM      7  C   UNL     1     -33.578  99.741 -13.601  0.00  0.00    +0.000 C 
ATOM      8  C   UNL     1     -36.607 101.102 -12.640  0.00  0.00    +0.000 C 
ATOM      9  C   UNL     1     -35.691 101.667 -14.895  0.00  0.00    +0.000 C 
ATOM     10  C   UNL     1     -33.739  98.223 -11.930  0.00  0.00    +0.000 C 
ENDROOT
BRANCH   6  11
ATOM     11  C   UNL     1     -31.721  97.941 -13.531  0.00  0.00    +0.000 A 
ATOM     12  C   UNL     1     -30.549  98.683 -13.690  0.00  0.00    +0.000 A 
ATOM     13  C   UNL     1     -31.695  96.575 -13.822  0.00  0.00    +0.000 A 
ATOM     14  C   UNL     1     -29.375  98.075 -14.132  0.00  0.00    +0.000 A 
ATOM     15  C   UNL     1     -30.524  95.962 -14.265  0.00  0.00    +0.000 A 
ATOM     16  C   UNL     1     -29.363  96.714 -14.420  0.00  0.00    +0.000 A 
ENDBRANCH   6  11
BRANCH   8  17
ATOM     17  N   UNL     1     -37.843 101.761 -12.746  0.00  0.00    +0.000 NA
ATOM     18  H   UNL     1     -37.823 102.717 -12.409  0.00  0.00    +0.000 HD
ATOM     19  H   UNL     1     -38.269 101.654 -13.658  0.00  0.00    +0.000 HD
ENDBRANCH   8  17
TORSDOF 2
ENDMDL
MODEL 9
REMARK VINA RESULT:      -5.2     14.157     16.172
REMARK  Name = PhIP.pdbqt.pdb
REMARK  2 active torsions:
REMARK  status: ('A' for Active; 'I' for Inactive)
REMARK    1  A    between atoms: N_4  and  C_9
REMARK    2  A    between atoms: C_7  and  C_10
REMARK                            x       y       z     vdW  Elec       q    Type
REMARK                         _______ _______ _______ _____ _____    ______ ____
ROOT
ATOM      1  N   UNL     1     -23.906 101.687   5.365  0.00  0.00    +0.000 N 
ATOM      2  N   UNL     1     -23.530 103.815   6.369  0.00  0.00    +0.000 NA
ATOM      3  N   UNL     1     -23.865 105.146   4.368  0.00  0.00    +0.000 NA
ATOM      4  C   UNL     1     -24.096 102.620   4.391  0.00  0.00    +0.000 C 
ATOM      5  C   UNL     1     -23.833 103.955   5.104  0.00  0.00    +0.000 C 
ATOM      6  C   UNL     1     -24.115 103.832   2.279  0.00  0.00    +0.000 C 
ATOM      7  C   UNL     1     -24.153 102.657   3.094  0.00  0.00    +0.000 C 
ATOM      8  C   UNL     1     -23.550 102.435   6.490  0.00  0.00    +0.000 C 
ATOM      9  C   UNL     1     -23.346 100.375   5.091  0.00  0.00    +0.000 C 
ATOM     10  C   UNL     1     -23.969 104.910   3.217  0.00  0.00    +0.000 C 
ENDROOT
BRANCH   6  11
ATOM     11  C   UNL     1     -24.270 103.922   0.840  0.00  0.00    +0.000 A 
ATOM     12  C   UNL     1     -23.633 103.009  -0.003  0.00  0.00    +0.000 A 
ATOM     13  C   UNL     1     -25.060 104.923   0.270  0.00  0.00    +0.000 A 
ATOM     14  C   UNL     1     -23.780 103.093  -1.387  0.00  0.00    +0.000 A 
ATOM     15  C   UNL     1     -25.210 105.013  -1.112  0.00  0.00    +0.000 A 
ATOM     16  C   UNL     1     -24.569 104.096  -1.941  0.00  0.00    +0.000 A 
ENDBRANCH   6  11
BRANCH   8  17
ATOM     17  N   UNL     1     -23.118 101.898   7.715  0.00  0.00    +0.000 NA
ATOM     18  H   UNL     1     -22.732 102.591   8.347  0.00  0.00    +0.000 HD
ATOM     19  H   UNL     1     -23.805 101.288   8.141  0.00  0.00    +0.000 HD
ENDBRANCH   8  17
TORSDOF 2
ENDMDL
