MODEL 1
REMARK VINA RESULT:      -5.3      0.000      0.000
REMARK  Name = Piroxicam.pdbqt.pdb
REMARK  3 active torsions:
REMARK  status: ('A' for Active; 'I' for Inactive)
REMARK    1  A    between atoms: C_7  and  C_14
REMARK    2  A    between atoms: C_8  and  O_24
REMARK    3  A    between atoms: N_16  and  C_18
REMARK                            x       y       z     vdW  Elec       q    Type
REMARK                         _______ _______ _______ _____ _____    ______ ____
ROOT
ATOM      1  S   UNL     1     -42.163 101.530   0.475  0.00  0.00    +0.000 S 
ATOM      2  O   UNL     1     -42.201 100.100   0.229  0.00  0.00    +0.000 OA
ATOM      3  O   UNL     1     -41.774 102.452  -0.574  0.00  0.00    +0.000 OA
ATOM      4  N   UNL     1     -43.667 102.006   1.166  0.00  0.00    +0.000 N 
ATOM      5  C   UNL     1     -41.084 101.768   1.833  0.00  0.00    +0.000 A 
ATOM      6  C   UNL     1     -41.597 101.547   3.109  0.00  0.00    +0.000 A 
ATOM      7  C   UNL     1     -43.971 101.333   2.397  0.00  0.00    +0.000 C 
ATOM      8  C   UNL     1     -42.994 101.113   3.307  0.00  0.00    +0.000 C 
ATOM      9  C   UNL     1     -39.779 102.192   1.611  0.00  0.00    +0.000 A 
ATOM     10  C   UNL     1     -43.994 103.441   1.221  0.00  0.00    +0.000 C 
ATOM     11  C   UNL     1     -40.734 101.727   4.192  0.00  0.00    +0.000 A 
ATOM     12  C   UNL     1     -38.942 102.377   2.705  0.00  0.00    +0.000 A 
ATOM     13  C   UNL     1     -39.416 102.140   3.993  0.00  0.00    +0.000 A 
ENDROOT
BRANCH   7  14
ATOM     14  C   UNL     1     -45.377 100.871   2.634  0.00  0.00    +0.000 C 
ATOM     15  O   UNL     1     -45.897 101.063   3.732  0.00  0.00    +0.000 OA
ATOM     16  N   UNL     1     -45.972 100.248   1.567  0.00  0.00    +0.000 N 
ATOM     17  H   UNL     1     -45.495 100.189   0.675  0.00  0.00    +0.000 HD
BRANCH  16  18
ATOM     18  C   UNL     1     -47.257  99.704   1.534  0.00  0.00    +0.000 A 
ATOM     19  N   UNL     1     -48.245 100.617   1.443  0.00  0.00    +0.000 NA
ATOM     20  C   UNL     1     -49.511 100.143   1.404  0.00  0.00    +0.000 A 
ATOM     21  C   UNL     1     -49.844  98.801   1.447  0.00  0.00    +0.000 A 
ATOM     22  C   UNL     1     -48.804  97.887   1.538  0.00  0.00    +0.000 A 
ATOM     23  C   UNL     1     -47.489  98.336   1.582  0.00  0.00    +0.000 A 
ENDBRANCH  16  18
ENDBRANCH   7  14
BRANCH   8  24
ATOM     24  O   UNL     1     -43.202 100.476   4.519  0.00  0.00    +0.000 OA
ATOM     25  H   UNL     1     -42.983  99.520   4.432  0.00  0.00    +0.000 HD
ENDBRANCH   8  24
TORSDOF 3
ENDMDL
MODEL 2
REMARK VINA RESULT:      -5.3      2.388      7.325
REMARK  Name = Piroxicam.pdbqt.pdb
REMARK  3 active torsions:
REMARK  status: ('A' for Active; 'I' for Inactive)
REMARK    1  A    between atoms: C_7  and  C_14
REMARK    2  A    between atoms: C_8  and  O_24
REMARK    3  A    between atoms: N_16  and  C_18
REMARK                            x       y       z     vdW  Elec       q    Type
REMARK                         _______ _______ _______ _____ _____    ______ ____
ROOT
ATOM      1  S   UNL     1     -43.675 102.714   0.461  0.00  0.00    +0.000 S 
ATOM      2  O   UNL     1     -43.627 104.032   1.066  0.00  0.00    +0.000 OA
ATOM      3  O   UNL     1     -43.837 102.563  -0.972  0.00  0.00    +0.000 OA
ATOM      4  N   UNL     1     -42.317 101.809   1.011  0.00  0.00    +0.000 N 
ATOM      5  C   UNL     1     -44.985 101.859   1.246  0.00  0.00    +0.000 A 
ATOM      6  C   UNL     1     -44.727 101.292   2.493  0.00  0.00    +0.000 A 
ATOM      7  C   UNL     1     -42.268 101.660   2.438  0.00  0.00    +0.000 C 
ATOM      8  C   UNL     1     -43.404 101.422   3.134  0.00  0.00    +0.000 C 
ATOM      9  C   UNL     1     -46.214 101.742   0.607  0.00  0.00    +0.000 A 
ATOM     10  C   UNL     1     -41.971 100.560   0.309  0.00  0.00    +0.000 C 
ATOM     11  C   UNL     1     -45.774 100.618   3.124  0.00  0.00    +0.000 A 
ATOM     12  C   UNL     1     -47.237 101.055   1.250  0.00  0.00    +0.000 A 
ATOM     13  C   UNL     1     -47.021 100.499   2.509  0.00  0.00    +0.000 A 
ENDROOT
BRANCH   7  14
ATOM     14  C   UNL     1     -40.943 101.791   3.128  0.00  0.00    +0.000 C 
ATOM     15  O   UNL     1     -40.713 101.110   4.125  0.00  0.00    +0.000 OA
ATOM     16  N   UNL     1     -40.082 102.698   2.564  0.00  0.00    +0.000 N 
ATOM     17  H   UNL     1     -40.325 103.171   1.702  0.00  0.00    +0.000 HD
BRANCH  16  18
ATOM     18  C   UNL     1     -38.807 103.028   3.025  0.00  0.00    +0.000 A 
ATOM     19  N   UNL     1     -38.785 104.031   3.926  0.00  0.00    +0.000 NA
ATOM     20  C   UNL     1     -37.573 104.390   4.410  0.00  0.00    +0.000 A 
ATOM     21  C   UNL     1     -36.379 103.797   4.040  0.00  0.00    +0.000 A 
ATOM     22  C   UNL     1     -36.437 102.767   3.112  0.00  0.00    +0.000 A 
ATOM     23  C   UNL     1     -37.664 102.371   2.593  0.00  0.00    +0.000 A 
ENDBRANCH  16  18
ENDBRANCH   7  14
BRANCH   8  24
ATOM     24  O   UNL     1     -43.444 101.263   4.508  0.00  0.00    +0.000 OA
ATOM     25  H   UNL     1     -43.394 102.144   4.945  0.00  0.00    +0.000 HD
ENDBRANCH   8  24
TORSDOF 3
ENDMDL
MODEL 3
REMARK VINA RESULT:      -5.1      5.873      9.840
REMARK  Name = Piroxicam.pdbqt.pdb
REMARK  3 active torsions:
REMARK  status: ('A' for Active; 'I' for Inactive)
REMARK    1  A    between atoms: C_7  and  C_14
REMARK    2  A    between atoms: C_8  and  O_24
REMARK    3  A    between atoms: N_16  and  C_18
REMARK                            x       y       z     vdW  Elec       q    Type
REMARK                         _______ _______ _______ _____ _____    ______ ____
ROOT
ATOM      1  S   UNL     1     -39.302 105.353   0.880  0.00  0.00    +0.000 S 
ATOM      2  O   UNL     1     -40.007 106.078   1.921  0.00  0.00    +0.000 OA
ATOM      3  O   UNL     1     -39.230 105.878  -0.469  0.00  0.00    +0.000 OA
ATOM      4  N   UNL     1     -37.728 104.958   1.457  0.00  0.00    +0.000 N 
ATOM      5  C   UNL     1     -40.035 103.764   0.804  0.00  0.00    +0.000 A 
ATOM      6  C   UNL     1     -39.633 102.824   1.751  0.00  0.00    +0.000 A 
ATOM      7  C   UNL     1     -37.738 104.160   2.650  0.00  0.00    +0.000 C 
ATOM      8  C   UNL     1     -38.639 103.160   2.788  0.00  0.00    +0.000 C 
ATOM      9  C   UNL     1     -40.956 103.477  -0.197  0.00  0.00    +0.000 A 
ATOM     10  C   UNL     1     -36.717 104.498   0.489  0.00  0.00    +0.000 C 
ATOM     11  C   UNL     1     -40.225 101.561   1.696  0.00  0.00    +0.000 A 
ATOM     12  C   UNL     1     -41.522 102.209  -0.239  0.00  0.00    +0.000 A 
ATOM     13  C   UNL     1     -41.162 101.253   0.708  0.00  0.00    +0.000 A 
ENDROOT
BRANCH   7  14
ATOM     14  C   UNL     1     -36.748 104.473   3.732  0.00  0.00    +0.000 C 
ATOM     15  O   UNL     1     -36.075 103.563   4.214  0.00  0.00    +0.000 OA
ATOM     16  N   UNL     1     -36.686 105.793   4.099  0.00  0.00    +0.000 N 
ATOM     17  H   UNL     1     -37.229 106.490   3.603  0.00  0.00    +0.000 HD
BRANCH  16  18
ATOM     18  C   UNL     1     -35.875 106.341   5.093  0.00  0.00    +0.000 A 
ATOM     19  N   UNL     1     -36.455 106.408   6.309  0.00  0.00    +0.000 NA
ATOM     20  C   UNL     1     -35.710 106.928   7.311  0.00  0.00    +0.000 A 
ATOM     21  C   UNL     1     -34.412 107.383   7.164  0.00  0.00    +0.000 A 
ATOM     22  C   UNL     1     -33.844 107.297   5.901  0.00  0.00    +0.000 A 
ATOM     23  C   UNL     1     -34.578 106.770   4.846  0.00  0.00    +0.000 A 
ENDBRANCH  16  18
ENDBRANCH   7  14
BRANCH   8  24
ATOM     24  O   UNL     1     -38.715 102.342   3.903  0.00  0.00    +0.000 OA
ATOM     25  H   UNL     1     -39.219 102.798   4.614  0.00  0.00    +0.000 HD
ENDBRANCH   8  24
TORSDOF 3
ENDMDL
MODEL 4
REMARK VINA RESULT:      -5.1     23.111     24.564
REMARK  Name = Piroxicam.pdbqt.pdb
REMARK  3 active torsions:
REMARK  status: ('A' for Active; 'I' for Inactive)
REMARK    1  A    between atoms: C_7  and  C_14
REMARK    2  A    between atoms: C_8  and  O_24
REMARK    3  A    between atoms: N_16  and  C_18
REMARK                            x       y       z     vdW  Elec       q    Type
REMARK                         _______ _______ _______ _____ _____    ______ ____
ROOT
ATOM      1  S   UNL     1     -30.581  87.318  17.697  0.00  0.00    +0.000 S 
ATOM      2  O   UNL     1     -29.714  87.159  18.850  0.00  0.00    +0.000 OA
ATOM      3  O   UNL     1     -31.240  86.172  17.102  0.00  0.00    +0.000 OA
ATOM      4  N   UNL     1     -31.725  88.559  18.040  0.00  0.00    +0.000 N 
ATOM      5  C   UNL     1     -29.615  88.091  16.457  0.00  0.00    +0.000 A 
ATOM      6  C   UNL     1     -29.448  89.472  16.539  0.00  0.00    +0.000 A 
ATOM      7  C   UNL     1     -31.123  89.826  18.344  0.00  0.00    +0.000 C 
ATOM      8  C   UNL     1     -30.048  90.251  17.639  0.00  0.00    +0.000 C 
ATOM      9  C   UNL     1     -29.078  87.328  15.426  0.00  0.00    +0.000 A 
ATOM     10  C   UNL     1     -32.899  88.697  17.161  0.00  0.00    +0.000 C 
ATOM     11  C   UNL     1     -28.670  90.087  15.556  0.00  0.00    +0.000 A 
ATOM     12  C   UNL     1     -28.319  87.965  14.452  0.00  0.00    +0.000 A 
ATOM     13  C   UNL     1     -28.109  89.341  14.519  0.00  0.00    +0.000 A 
ENDROOT
BRANCH   7  14
ATOM     14  C   UNL     1     -31.700  90.646  19.459  0.00  0.00    +0.000 C 
ATOM     15  O   UNL     1     -31.795  91.864  19.323  0.00  0.00    +0.000 OA
ATOM     16  N   UNL     1     -32.074  89.934  20.569  0.00  0.00    +0.000 N 
ATOM     17  H   UNL     1     -32.022  88.922  20.573  0.00  0.00    +0.000 HD
BRANCH  16  18
ATOM     18  C   UNL     1     -32.608  90.456  21.748  0.00  0.00    +0.000 A 
ATOM     19  N   UNL     1     -31.695  90.707  22.708  0.00  0.00    +0.000 NA
ATOM     20  C   UNL     1     -32.158  91.218  23.872  0.00  0.00    +0.000 A 
ATOM     21  C   UNL     1     -33.489  91.495  24.127  0.00  0.00    +0.000 A 
ATOM     22  C   UNL     1     -34.403  91.228  23.118  0.00  0.00    +0.000 A 
ATOM     23  C   UNL     1     -33.964  90.702  21.909  0.00  0.00    +0.000 A 
ENDBRANCH  16  18
ENDBRANCH   7  14
BRANCH   8  24
ATOM     24  O   UNL     1     -29.411  91.459  17.865  0.00  0.00    +0.000 OA
ATOM     25  H   UNL     1     -30.081  92.172  17.975  0.00  0.00    +0.000 HD
ENDBRANCH   8  24
TORSDOF 3
ENDMDL
MODEL 5
REMARK VINA RESULT:      -5.0      4.637      8.466
REMARK  Name = Piroxicam.pdbqt.pdb
REMARK  3 active torsions:
REMARK  status: ('A' for Active; 'I' for Inactive)
REMARK    1  A    between atoms: C_7  and  C_14
REMARK    2  A    between atoms: C_8  and  O_24
REMARK    3  A    between atoms: N_16  and  C_18
REMARK                            x       y       z     vdW  Elec       q    Type
REMARK                         _______ _______ _______ _____ _____    ______ ____
ROOT
ATOM      1  S   UNL     1     -50.385  97.896   1.197  0.00  0.00    +0.000 S 
ATOM      2  O   UNL     1     -51.488  98.758   1.581  0.00  0.00    +0.000 OA
ATOM      3  O   UNL     1     -50.235  97.452  -0.175  0.00  0.00    +0.000 OA
ATOM      4  N   UNL     1     -48.918  98.597   1.766  0.00  0.00    +0.000 N 
ATOM      5  C   UNL     1     -50.492  96.476   2.216  0.00  0.00    +0.000 A 
ATOM      6  C   UNL     1     -49.985  96.573   3.511  0.00  0.00    +0.000 A 
ATOM      7  C   UNL     1     -48.886  98.782   3.189  0.00  0.00    +0.000 C 
ATOM      8  C   UNL     1     -49.393  97.831   4.008  0.00  0.00    +0.000 C 
ATOM      9  C   UNL     1     -51.041  95.303   1.710  0.00  0.00    +0.000 A 
ATOM     10  C   UNL     1     -47.641  98.080   1.244  0.00  0.00    +0.000 C 
ATOM     11  C   UNL     1     -50.078  95.445   4.326  0.00  0.00    +0.000 A 
ATOM     12  C   UNL     1     -51.111  94.189   2.537  0.00  0.00    +0.000 A 
ATOM     13  C   UNL     1     -50.637  94.260   3.845  0.00  0.00    +0.000 A 
ENDROOT
BRANCH   7  14
ATOM     14  C   UNL     1     -48.299 100.049   3.735  0.00  0.00    +0.000 C 
ATOM     15  O   UNL     1     -48.825 101.125   3.457  0.00  0.00    +0.000 OA
ATOM     16  N   UNL     1     -47.185  99.883   4.518  0.00  0.00    +0.000 N 
ATOM     17  H   UNL     1     -46.855  98.954   4.752  0.00  0.00    +0.000 HD
BRANCH  16  18
ATOM     18  C   UNL     1     -46.436 100.894   5.121  0.00  0.00    +0.000 A 
ATOM     19  N   UNL     1     -47.031 101.463   6.189  0.00  0.00    +0.000 NA
ATOM     20  C   UNL     1     -46.346 102.448   6.815  0.00  0.00    +0.000 A 
ATOM     21  C   UNL     1     -45.094 102.893   6.431  0.00  0.00    +0.000 A 
ATOM     22  C   UNL     1     -44.509 102.285   5.330  0.00  0.00    +0.000 A 
ATOM     23  C   UNL     1     -45.182 101.270   4.660  0.00  0.00    +0.000 A 
ENDBRANCH  16  18
ENDBRANCH   7  14
BRANCH   8  24
ATOM     24  O   UNL     1     -49.399  97.929   5.389  0.00  0.00    +0.000 OA
ATOM     25  H   UNL     1     -50.183  98.447   5.681  0.00  0.00    +0.000 HD
ENDBRANCH   8  24
TORSDOF 3
ENDMDL
MODEL 6
REMARK VINA RESULT:      -4.8      7.628     10.292
REMARK  Name = Piroxicam.pdbqt.pdb
REMARK  3 active torsions:
REMARK  status: ('A' for Active; 'I' for Inactive)
REMARK    1  A    between atoms: C_7  and  C_14
REMARK    2  A    between atoms: C_8  and  O_24
REMARK    3  A    between atoms: N_16  and  C_18
REMARK                            x       y       z     vdW  Elec       q    Type
REMARK                         _______ _______ _______ _____ _____    ______ ____
ROOT
ATOM      1  S   UNL     1     -51.504  95.489   0.359  0.00  0.00    +0.000 S 
ATOM      2  O   UNL     1     -51.086  94.104   0.239  0.00  0.00    +0.000 OA
ATOM      3  O   UNL     1     -52.081  96.188  -0.773  0.00  0.00    +0.000 OA
ATOM      4  N   UNL     1     -52.524  95.635   1.739  0.00  0.00    +0.000 N 
ATOM      5  C   UNL     1     -50.097  96.385   0.889  0.00  0.00    +0.000 A 
ATOM      6  C   UNL     1     -49.784  96.347   2.247  0.00  0.00    +0.000 A 
ATOM      7  C   UNL     1     -51.891  95.236   2.964  0.00  0.00    +0.000 C 
ATOM      8  C   UNL     1     -50.600  95.568   3.198  0.00  0.00    +0.000 C 
ATOM      9  C   UNL     1     -49.361  97.121  -0.032  0.00  0.00    +0.000 A 
ATOM     10  C   UNL     1     -53.322  96.863   1.900  0.00  0.00    +0.000 C 
ATOM     11  C   UNL     1     -48.656  97.054   2.669  0.00  0.00    +0.000 A 
ATOM     12  C   UNL     1     -48.250  97.827   0.414  0.00  0.00    +0.000 A 
ATOM     13  C   UNL     1     -47.894  97.789   1.761  0.00  0.00    +0.000 A 
ENDROOT
BRANCH   7  14
ATOM     14  C   UNL     1     -52.684  94.437   3.955  0.00  0.00    +0.000 C 
ATOM     15  O   UNL     1     -53.767  94.867   4.346  0.00  0.00    +0.000 OA
ATOM     16  N   UNL     1     -52.101  93.261   4.352  0.00  0.00    +0.000 N 
ATOM     17  H   UNL     1     -51.234  92.948   3.930  0.00  0.00    +0.000 HD
BRANCH  16  18
ATOM     18  C   UNL     1     -52.612  92.353   5.280  0.00  0.00    +0.000 A 
ATOM     19  N   UNL     1     -52.661  92.819   6.544  0.00  0.00    +0.000 NA
ATOM     20  C   UNL     1     -53.153  91.980   7.485  0.00  0.00    +0.000 A 
ATOM     21  C   UNL     1     -53.603  90.697   7.227  0.00  0.00    +0.000 A 
ATOM     22  C   UNL     1     -53.542  90.250   5.915  0.00  0.00    +0.000 A 
ATOM     23  C   UNL     1     -53.042  91.083   4.922  0.00  0.00    +0.000 A 
ENDBRANCH  16  18
ENDBRANCH   7  14
BRANCH   8  24
ATOM     24  O   UNL     1     -49.916  95.226   4.353  0.00  0.00    +0.000 OA
ATOM     25  H   UNL     1     -50.020  94.263   4.526  0.00  0.00    +0.000 HD
ENDBRANCH   8  24
TORSDOF 3
ENDMDL
MODEL 7
REMARK VINA RESULT:      -4.7     23.999     26.606
REMARK  Name = Piroxicam.pdbqt.pdb
REMARK  3 active torsions:
REMARK  status: ('A' for Active; 'I' for Inactive)
REMARK    1  A    between atoms: C_7  and  C_14
REMARK    2  A    between atoms: C_8  and  O_24
REMARK    3  A    between atoms: N_16  and  C_18
REMARK                            x       y       z     vdW  Elec       q    Type
REMARK                         _______ _______ _______ _____ _____    ______ ____
ROOT
ATOM      1  S   UNL     1     -17.872  91.336  -6.756  0.00  0.00    +0.000 S 
ATOM      2  O   UNL     1     -17.627  91.575  -5.346  0.00  0.00    +0.000 OA
ATOM      3  O   UNL     1     -16.827  90.806  -7.610  0.00  0.00    +0.000 OA
ATOM      4  N   UNL     1     -19.307  90.396  -6.910  0.00  0.00    +0.000 N 
ATOM      5  C   UNL     1     -18.401  92.863  -7.431  0.00  0.00    +0.000 A 
ATOM      6  C   UNL     1     -19.735  93.221  -7.245  0.00  0.00    +0.000 A 
ATOM      7  C   UNL     1     -20.466  91.022  -6.340  0.00  0.00    +0.000 C 
ATOM      8  C   UNL     1     -20.662  92.353  -6.494  0.00  0.00    +0.000 C 
ATOM      9  C   UNL     1     -17.504  93.648  -8.147  0.00  0.00    +0.000 A 
ATOM     10  C   UNL     1     -19.600  89.763  -8.208  0.00  0.00    +0.000 C 
ATOM     11  C   UNL     1     -20.154  94.442  -7.775  0.00  0.00    +0.000 A 
ATOM     12  C   UNL     1     -17.949  94.854  -8.676  0.00  0.00    +0.000 A 
ATOM     13  C   UNL     1     -19.269  95.254  -8.486  0.00  0.00    +0.000 A 
ENDROOT
BRANCH   7  14
ATOM     14  C   UNL     1     -21.431  90.176  -5.563  0.00  0.00    +0.000 C 
ATOM     15  O   UNL     1     -20.999  89.378  -4.734  0.00  0.00    +0.000 OA
ATOM     16  N   UNL     1     -22.753  90.376  -5.868  0.00  0.00    +0.000 N 
ATOM     17  H   UNL     1     -23.027  91.102  -6.519  0.00  0.00    +0.000 HD
BRANCH  16  18
ATOM     18  C   UNL     1     -23.843  89.702  -5.314  0.00  0.00    +0.000 A 
ATOM     19  N   UNL     1     -24.738  90.504  -4.704  0.00  0.00    +0.000 NA
ATOM     20  C   UNL     1     -25.818  89.903  -4.152  0.00  0.00    +0.000 A 
ATOM     21  C   UNL     1     -26.052  88.540  -4.181  0.00  0.00    +0.000 A 
ATOM     22  C   UNL     1     -25.112  87.744  -4.820  0.00  0.00    +0.000 A 
ATOM     23  C   UNL     1     -23.989  88.325  -5.397  0.00  0.00    +0.000 A 
ENDBRANCH  16  18
ENDBRANCH   7  14
BRANCH   8  24
ATOM     24  O   UNL     1     -21.753  93.033  -5.980  0.00  0.00    +0.000 OA
ATOM     25  H   UNL     1     -21.537  93.374  -5.082  0.00  0.00    +0.000 HD
ENDBRANCH   8  24
TORSDOF 3
ENDMDL
MODEL 8
REMARK VINA RESULT:      -4.7     18.337     20.105
REMARK  Name = Piroxicam.pdbqt.pdb
REMARK  3 active torsions:
REMARK  status: ('A' for Active; 'I' for Inactive)
REMARK    1  A    between atoms: C_7  and  C_14
REMARK    2  A    between atoms: C_8  and  O_24
REMARK    3  A    between atoms: N_16  and  C_18
REMARK                            x       y       z     vdW  Elec       q    Type
REMARK                         _______ _______ _______ _____ _____    ______ ____
ROOT
ATOM      1  S   UNL     1     -45.910  82.910   3.255  0.00  0.00    +0.000 S 
ATOM      2  O   UNL     1     -46.644  81.661   3.171  0.00  0.00    +0.000 OA
ATOM      3  O   UNL     1     -46.367  84.086   2.542  0.00  0.00    +0.000 OA
ATOM      4  N   UNL     1     -45.647  83.279   4.917  0.00  0.00    +0.000 N 
ATOM      5  C   UNL     1     -44.277  82.559   2.730  0.00  0.00    +0.000 A 
ATOM      6  C   UNL     1     -43.416  81.973   3.656  0.00  0.00    +0.000 A 
ATOM      7  C   UNL     1     -44.914  82.264   5.620  0.00  0.00    +0.000 C 
ATOM      8  C   UNL     1     -43.868  81.647   5.022  0.00  0.00    +0.000 C 
ATOM      9  C   UNL     1     -43.881  82.894   1.441  0.00  0.00    +0.000 A 
ATOM     10  C   UNL     1     -45.200  84.636   5.276  0.00  0.00    +0.000 C 
ATOM     11  C   UNL     1     -42.117  81.684   3.234  0.00  0.00    +0.000 A 
ATOM     12  C   UNL     1     -42.578  82.608   1.048  0.00  0.00    +0.000 A 
ATOM     13  C   UNL     1     -41.699  81.999   1.941  0.00  0.00    +0.000 A 
ENDROOT
BRANCH   7  14
ATOM     14  C   UNL     1     -45.345  81.899   7.009  0.00  0.00    +0.000 C 
ATOM     15  O   UNL     1     -45.209  82.717   7.917  0.00  0.00    +0.000 OA
ATOM     16  N   UNL     1     -45.865  80.637   7.143  0.00  0.00    +0.000 N 
ATOM     17  H   UNL     1     -46.004  80.049   6.329  0.00  0.00    +0.000 HD
BRANCH  16  18
ATOM     18  C   UNL     1     -46.312  80.045   8.325  0.00  0.00    +0.000 A 
ATOM     19  N   UNL     1     -45.375  79.958   9.290  0.00  0.00    +0.000 NA
ATOM     20  C   UNL     1     -45.755  79.395  10.460  0.00  0.00    +0.000 A 
ATOM     21  C   UNL     1     -47.027  78.914  10.718  0.00  0.00    +0.000 A 
ATOM     22  C   UNL     1     -47.968  79.021   9.704  0.00  0.00    +0.000 A 
ATOM     23  C   UNL     1     -47.614  79.594   8.488  0.00  0.00    +0.000 A 
ENDBRANCH  16  18
ENDBRANCH   7  14
BRANCH   8  24
ATOM     24  O   UNL     1     -43.107  80.663   5.630  0.00  0.00    +0.000 OA
ATOM     25  H   UNL     1     -42.153  80.900   5.575  0.00  0.00    +0.000 HD
ENDBRANCH   8  24
TORSDOF 3
ENDMDL
MODEL 9
REMARK VINA RESULT:      -4.4      7.453      8.830
REMARK  Name = Piroxicam.pdbqt.pdb
REMARK  3 active torsions:
REMARK  status: ('A' for Active; 'I' for Inactive)
REMARK    1  A    between atoms: C_7  and  C_14
REMARK    2  A    between atoms: C_8  and  O_24
REMARK    3  A    between atoms: N_16  and  C_18
REMARK                            x       y       z     vdW  Elec       q    Type
REMARK                         _______ _______ _______ _____ _____    ______ ____
ROOT
ATOM      1  S   UNL     1     -50.652  96.672  -3.766  0.00  0.00    +0.000 S 
ATOM      2  O   UNL     1     -50.125  95.367  -3.415  0.00  0.00    +0.000 OA
ATOM      3  O   UNL     1     -51.646  96.812  -4.813  0.00  0.00    +0.000 OA
ATOM      4  N   UNL     1     -51.182  97.455  -2.326  0.00  0.00    +0.000 N 
ATOM      5  C   UNL     1     -49.273  97.663  -4.193  0.00  0.00    +0.000 A 
ATOM      6  C   UNL     1     -48.537  98.224  -3.152  0.00  0.00    +0.000 A 
ATOM      7  C   UNL     1     -50.143  97.624  -1.350  0.00  0.00    +0.000 C 
ATOM      8  C   UNL     1     -48.898  97.981  -1.742  0.00  0.00    +0.000 C 
ATOM      9  C   UNL     1     -48.971  97.884  -5.532  0.00  0.00    +0.000 A 
ATOM     10  C   UNL     1     -52.032  98.652  -2.446  0.00  0.00    +0.000 C 
ATOM     11  C   UNL     1     -47.431  99.006  -3.492  0.00  0.00    +0.000 A 
ATOM     12  C   UNL     1     -47.874  98.677  -5.846  0.00  0.00    +0.000 A 
ATOM     13  C   UNL     1     -47.100  99.232  -4.829  0.00  0.00    +0.000 A 
ENDROOT
BRANCH   7  14
ATOM     14  C   UNL     1     -50.467  97.380   0.093  0.00  0.00    +0.000 C 
ATOM     15  O   UNL     1     -51.206  98.164   0.686  0.00  0.00    +0.000 OA
ATOM     16  N   UNL     1     -49.883  96.266   0.639  0.00  0.00    +0.000 N 
ATOM     17  H   UNL     1     -49.339  95.634   0.062  0.00  0.00    +0.000 HD
BRANCH  16  18
ATOM     18  C   UNL     1     -49.998  95.831   1.960  0.00  0.00    +0.000 A 
ATOM     19  N   UNL     1     -49.362  96.611   2.858  0.00  0.00    +0.000 NA
ATOM     20  C   UNL     1     -49.445  96.237   4.156  0.00  0.00    +0.000 A 
ATOM     21  C   UNL     1     -50.133  95.124   4.606  0.00  0.00    +0.000 A 
ATOM     22  C   UNL     1     -50.778  94.345   3.656  0.00  0.00    +0.000 A 
ATOM     23  C   UNL     1     -50.715  94.697   2.313  0.00  0.00    +0.000 A 
ENDBRANCH  16  18
ENDBRANCH   7  14
BRANCH   8  24
ATOM     24  O   UNL     1     -47.841  98.168  -0.867  0.00  0.00    +0.000 OA
ATOM     25  H   UNL     1     -47.355  97.320  -0.748  0.00  0.00    +0.000 HD
ENDBRANCH   8  24
TORSDOF 3
ENDMDL
