MODEL 1
REMARK VINA RESULT:      -6.3      0.000      0.000
REMARK  Name = PKR_Inhibitor.pdbqt.pdb
REMARK  0 active torsions:
REMARK  status: ('A' for Active; 'I' for Inactive)
REMARK                            x       y       z     vdW  Elec       q    Type
REMARK                         _______ _______ _______ _____ _____    ______ ____
ROOT
ATOM      1  S   UNL     1     -31.536 101.312  14.338  0.00  0.00    +0.000 S 
ATOM      2  O   UNL     1     -34.348  97.050  17.052  0.00  0.00    +0.000 OA
ATOM      3  N   UNL     1     -32.135  97.649  17.553  0.00  0.00    +0.000 N 
ATOM      4  N   UNL     1     -29.112 101.604  15.236  0.00  0.00    +0.000 NA
ATOM      5  C   UNL     1     -31.792  99.360  16.083  0.00  0.00    +0.000 A 
ATOM      6  C   UNL     1     -31.208  98.580  17.112  0.00  0.00    +0.000 A 
ATOM      7  C   UNL     1     -33.180  98.849  15.896  0.00  0.00    +0.000 C 
ATOM      8  C   UNL     1     -30.988 100.315  15.558  0.00  0.00    +0.000 A 
ATOM      9  C   UNL     1     -33.355  97.732  16.881  0.00  0.00    +0.000 C 
ATOM     10  C   UNL     1     -29.691 100.567  15.948  0.00  0.00    +0.000 A 
ATOM     11  C   UNL     1     -29.910  98.738  17.592  0.00  0.00    +0.000 A 
ATOM     12  C   UNL     1     -34.109  99.232  15.079  0.00  0.00    +0.000 C 
ATOM     13  C   UNL     1     -29.152  99.762  16.980  0.00  0.00    +0.000 A 
ATOM     14  C   UNL     1     -29.994 102.060  14.371  0.00  0.00    +0.000 A 
ATOM     15  H   UNL     1     -31.970  96.970  18.284  0.00  0.00    +0.000 HD
ATOM     16  C   UNL     1     -35.174  99.589  14.219  0.00  0.00    +0.000 C 
ATOM     17  N   UNL     1     -36.402  98.989  14.200  0.00  0.00    +0.000 N 
ATOM     18  C   UNL     1     -37.151  99.610  13.240  0.00  0.00    +0.000 C 
ATOM     19  H   UNL     1     -36.707  98.223  14.785  0.00  0.00    +0.000 HD
ATOM     20  N   UNL     1     -36.473 100.569  12.649  0.00  0.00    +0.000 NA
ATOM     21  C   UNL     1     -35.238 100.565  13.252  0.00  0.00    +0.000 C 
ENDROOT
TORSDOF 0
ENDMDL
MODEL 2
REMARK VINA RESULT:      -6.3      2.320      3.801
REMARK  Name = PKR_Inhibitor.pdbqt.pdb
REMARK  0 active torsions:
REMARK  status: ('A' for Active; 'I' for Inactive)
REMARK                            x       y       z     vdW  Elec       q    Type
REMARK                         _______ _______ _______ _____ _____    ______ ____
ROOT
ATOM      1  S   UNL     1     -34.147  97.372  17.848  0.00  0.00    +0.000 S 
ATOM      2  O   UNL     1     -31.687 100.564  13.702  0.00  0.00    +0.000 OA
ATOM      3  N   UNL     1     -30.480  99.617  15.477  0.00  0.00    +0.000 N 
ATOM      4  N   UNL     1     -32.409  96.541  19.596  0.00  0.00    +0.000 NA
ATOM      5  C   UNL     1     -32.138  98.551  16.626  0.00  0.00    +0.000 A 
ATOM      6  C   UNL     1     -30.750  98.834  16.589  0.00  0.00    +0.000 A 
ATOM      7  C   UNL     1     -32.743  99.221  15.440  0.00  0.00    +0.000 C 
ATOM      8  C   UNL     1     -32.543  97.788  17.669  0.00  0.00    +0.000 A 
ATOM      9  C   UNL     1     -31.617  99.905  14.721  0.00  0.00    +0.000 C 
ATOM     10  C   UNL     1     -31.720  97.289  18.656  0.00  0.00    +0.000 A 
ATOM     11  C   UNL     1     -29.821  98.388  17.525  0.00  0.00    +0.000 A 
ATOM     12  C   UNL     1     -33.972  99.259  15.037  0.00  0.00    +0.000 C 
ATOM     13  C   UNL     1     -30.342  97.598  18.575  0.00  0.00    +0.000 A 
ATOM     14  C   UNL     1     -33.683  96.523  19.264  0.00  0.00    +0.000 A 
ATOM     15  H   UNL     1     -29.564  99.957  15.219  0.00  0.00    +0.000 HD
ATOM     16  C   UNL     1     -35.291  99.348  14.531  0.00  0.00    +0.000 C 
ATOM     17  N   UNL     1     -35.653 100.025  13.400  0.00  0.00    +0.000 N 
ATOM     18  C   UNL     1     -37.003  99.878  13.244  0.00  0.00    +0.000 C 
ATOM     19  H   UNL     1     -35.040 100.543  12.786  0.00  0.00    +0.000 HD
ATOM     20  N   UNL     1     -37.520  99.148  14.208  0.00  0.00    +0.000 NA
ATOM     21  C   UNL     1     -36.461  98.812  15.017  0.00  0.00    +0.000 C 
ENDROOT
TORSDOF 0
ENDMDL
MODEL 3
REMARK VINA RESULT:      -6.1      2.363      5.790
REMARK  Name = PKR_Inhibitor.pdbqt.pdb
REMARK  0 active torsions:
REMARK  status: ('A' for Active; 'I' for Inactive)
REMARK                            x       y       z     vdW  Elec       q    Type
REMARK                         _______ _______ _______ _____ _____    ______ ____
ROOT
ATOM      1  S   UNL     1     -36.098  98.745  15.768  0.00  0.00    +0.000 S 
ATOM      2  O   UNL     1     -30.319  98.866  15.926  0.00  0.00    +0.000 OA
ATOM      3  N   UNL     1     -31.589 100.187  14.461  0.00  0.00    +0.000 N 
ATOM      4  N   UNL     1     -37.056 100.381  13.986  0.00  0.00    +0.000 NA
ATOM      5  C   UNL     1     -33.711  99.561  15.022  0.00  0.00    +0.000 A 
ATOM      6  C   UNL     1     -32.931 100.391  14.178  0.00  0.00    +0.000 A 
ATOM      7  C   UNL     1     -32.754  98.801  15.875  0.00  0.00    +0.000 C 
ATOM      8  C   UNL     1     -35.051  99.661  14.849  0.00  0.00    +0.000 A 
ATOM      9  C   UNL     1     -31.380  99.246  15.470  0.00  0.00    +0.000 C 
ATOM     10  C   UNL     1     -35.677 100.487  13.941  0.00  0.00    +0.000 A 
ATOM     11  C   UNL     1     -33.446 101.266  13.225  0.00  0.00    +0.000 A 
ATOM     12  C   UNL     1     -32.975  97.920  16.798  0.00  0.00    +0.000 C 
ATOM     13  C   UNL     1     -34.856 101.298  13.122  0.00  0.00    +0.000 A 
ATOM     14  C   UNL     1     -37.377  99.496  14.909  0.00  0.00    +0.000 A 
ATOM     15  H   UNL     1     -30.824 100.658  13.999  0.00  0.00    +0.000 HD
ATOM     16  C   UNL     1     -33.131  96.951  17.818  0.00  0.00    +0.000 C 
ATOM     17  N   UNL     1     -32.106  96.358  18.500  0.00  0.00    +0.000 N 
ATOM     18  C   UNL     1     -32.657  95.486  19.397  0.00  0.00    +0.000 C 
ATOM     19  H   UNL     1     -31.118  96.528  18.370  0.00  0.00    +0.000 HD
ATOM     20  N   UNL     1     -33.970  95.490  19.326  0.00  0.00    +0.000 NA
ATOM     21  C   UNL     1     -34.277  96.400  18.344  0.00  0.00    +0.000 C 
ENDROOT
TORSDOF 0
ENDMDL
MODEL 4
REMARK VINA RESULT:      -6.1     14.013     16.023
REMARK  Name = PKR_Inhibitor.pdbqt.pdb
REMARK  0 active torsions:
REMARK  status: ('A' for Active; 'I' for Inactive)
REMARK                            x       y       z     vdW  Elec       q    Type
REMARK                         _______ _______ _______ _____ _____    ______ ____
ROOT
ATOM      1  S   UNL     1     -25.357  84.555  12.175  0.00  0.00    +0.000 S 
ATOM      2  O   UNL     1     -27.404  89.051  15.180  0.00  0.00    +0.000 OA
ATOM      3  N   UNL     1     -28.636  87.959  13.509  0.00  0.00    +0.000 N 
ATOM      4  N   UNL     1     -27.084  83.682  10.436  0.00  0.00    +0.000 NA
ATOM      5  C   UNL     1     -27.158  86.353  12.843  0.00  0.00    +0.000 A 
ATOM      6  C   UNL     1     -28.450  86.897  12.637  0.00  0.00    +0.000 A 
ATOM      7  C   UNL     1     -26.523  87.158  13.925  0.00  0.00    +0.000 C 
ATOM      8  C   UNL     1     -26.843  85.301  12.050  0.00  0.00    +0.000 A 
ATOM      9  C   UNL     1     -27.530  88.195  14.326  0.00  0.00    +0.000 C 
ATOM     10  C   UNL     1     -27.670  84.749  11.095  0.00  0.00    +0.000 A 
ATOM     11  C   UNL     1     -29.373  86.428  11.705  0.00  0.00    +0.000 A 
ATOM     12  C   UNL     1     -25.352  87.054  14.467  0.00  0.00    +0.000 C 
ATOM     13  C   UNL     1     -28.950  85.327  10.927  0.00  0.00    +0.000 A 
ATOM     14  C   UNL     1     -25.875  83.500  10.927  0.00  0.00    +0.000 A 
ATOM     15  H   UNL     1     -29.475  88.520  13.566  0.00  0.00    +0.000 HD
ATOM     16  C   UNL     1     -24.092  87.007  15.109  0.00  0.00    +0.000 C 
ATOM     17  N   UNL     1     -23.687  87.851  16.105  0.00  0.00    +0.000 N 
ATOM     18  C   UNL     1     -22.418  87.489  16.463  0.00  0.00    +0.000 C 
ATOM     19  H   UNL     1     -24.223  88.608  16.508  0.00  0.00    +0.000 HD
ATOM     20  N   UNL     1     -21.994  86.466  15.755  0.00  0.00    +0.000 NA
ATOM     21  C   UNL     1     -23.029  86.157  14.907  0.00  0.00    +0.000 C 
ENDROOT
TORSDOF 0
ENDMDL
MODEL 5
REMARK VINA RESULT:      -5.5      2.553      3.660
REMARK  Name = PKR_Inhibitor.pdbqt.pdb
REMARK  0 active torsions:
REMARK  status: ('A' for Active; 'I' for Inactive)
REMARK                            x       y       z     vdW  Elec       q    Type
REMARK                         _______ _______ _______ _____ _____    ______ ____
ROOT
ATOM      1  S   UNL     1     -33.117  98.580  15.504  0.00  0.00    +0.000 S 
ATOM      2  O   UNL     1     -38.425  98.549  17.796  0.00  0.00    +0.000 OA
ATOM      3  N   UNL     1     -36.524  97.815  18.957  0.00  0.00    +0.000 N 
ATOM      4  N   UNL     1     -31.334  97.675  17.169  0.00  0.00    +0.000 NA
ATOM      5  C   UNL     1     -34.892  98.147  17.396  0.00  0.00    +0.000 A 
ATOM      6  C   UNL     1     -35.164  97.694  18.712  0.00  0.00    +0.000 A 
ATOM      7  C   UNL     1     -36.196  98.570  16.812  0.00  0.00    +0.000 C 
ATOM      8  C   UNL     1     -33.592  98.083  17.023  0.00  0.00    +0.000 A 
ATOM      9  C   UNL     1     -37.231  98.334  17.872  0.00  0.00    +0.000 C 
ATOM     10  C   UNL     1     -32.559  97.625  17.812  0.00  0.00    +0.000 A 
ATOM     11  C   UNL     1     -34.209  97.210  19.601  0.00  0.00    +0.000 A 
ATOM     12  C   UNL     1     -36.471  99.054  15.643  0.00  0.00    +0.000 C 
ATOM     13  C   UNL     1     -32.881  97.185  19.118  0.00  0.00    +0.000 A 
ATOM     14  C   UNL     1     -31.518  98.160  15.958  0.00  0.00    +0.000 A 
ATOM     15  H   UNL     1     -36.979  97.561  19.823  0.00  0.00    +0.000 HD
ATOM     16  C   UNL     1     -36.854  99.585  14.388  0.00  0.00    +0.000 C 
ATOM     17  N   UNL     1     -38.131  99.919  14.034  0.00  0.00    +0.000 N 
ATOM     18  C   UNL     1     -38.094 100.395  12.753  0.00  0.00    +0.000 C 
ATOM     19  H   UNL     1     -38.957  99.833  14.610  0.00  0.00    +0.000 HD
ATOM     20  N   UNL     1     -36.871 100.382  12.272  0.00  0.00    +0.000 NA
ATOM     21  C   UNL     1     -36.088  99.879  13.284  0.00  0.00    +0.000 C 
ENDROOT
TORSDOF 0
ENDMDL
MODEL 6
REMARK VINA RESULT:      -5.4     13.206     14.945
REMARK  Name = PKR_Inhibitor.pdbqt.pdb
REMARK  0 active torsions:
REMARK  status: ('A' for Active; 'I' for Inactive)
REMARK                            x       y       z     vdW  Elec       q    Type
REMARK                         _______ _______ _______ _____ _____    ______ ____
ROOT
ATOM      1  S   UNL     1     -23.153 103.614   6.646  0.00  0.00    +0.000 S 
ATOM      2  O   UNL     1     -21.300  98.261   5.491  0.00  0.00    +0.000 OA
ATOM      3  N   UNL     1     -22.258  99.662   3.873  0.00  0.00    +0.000 N 
ATOM      4  N   UNL     1     -24.137 104.779   4.537  0.00  0.00    +0.000 NA
ATOM      5  C   UNL     1     -22.700 101.531   5.106  0.00  0.00    +0.000 A 
ATOM      6  C   UNL     1     -22.784 100.944   3.818  0.00  0.00    +0.000 A 
ATOM      7  C   UNL     1     -22.075 100.514   5.998  0.00  0.00    +0.000 C 
ATOM      8  C   UNL     1     -23.183 102.793   5.195  0.00  0.00    +0.000 A 
ATOM      9  C   UNL     1     -21.805  99.311   5.144  0.00  0.00    +0.000 C 
ATOM     10  C   UNL     1     -23.727 103.513   4.153  0.00  0.00    +0.000 A 
ATOM     11  C   UNL     1     -23.311 101.568   2.691  0.00  0.00    +0.000 A 
ATOM     12  C   UNL     1     -21.787 100.573   7.259  0.00  0.00    +0.000 C 
ATOM     13  C   UNL     1     -23.787 102.885   2.887  0.00  0.00    +0.000 A 
ATOM     14  C   UNL     1     -23.881 104.929   5.821  0.00  0.00    +0.000 A 
ATOM     15  H   UNL     1     -22.199  99.028   3.087  0.00  0.00    +0.000 HD
ATOM     16  C   UNL     1     -21.443 100.557   8.632  0.00  0.00    +0.000 C 
ATOM     17  N   UNL     1     -20.861  99.505   9.282  0.00  0.00    +0.000 N 
ATOM     18  C   UNL     1     -20.687  99.872  10.588  0.00  0.00    +0.000 C 
ATOM     19  H   UNL     1     -20.604  98.615   8.879  0.00  0.00    +0.000 HD
ATOM     20  N   UNL     1     -21.122 101.093  10.805  0.00  0.00    +0.000 NA
ATOM     21  C   UNL     1     -21.597 101.530   9.592  0.00  0.00    +0.000 C 
ENDROOT
TORSDOF 0
ENDMDL
MODEL 7
REMARK VINA RESULT:      -5.2     13.537     15.519
REMARK  Name = PKR_Inhibitor.pdbqt.pdb
REMARK  0 active torsions:
REMARK  status: ('A' for Active; 'I' for Inactive)
REMARK                            x       y       z     vdW  Elec       q    Type
REMARK                         _______ _______ _______ _____ _____    ______ ____
ROOT
ATOM      1  S   UNL     1     -37.769 104.968  -0.401  0.00  0.00    +0.000 S 
ATOM      2  O   UNL     1     -38.262 101.881   4.463  0.00  0.00    +0.000 OA
ATOM      3  N   UNL     1     -36.432 103.278   4.012  0.00  0.00    +0.000 N 
ATOM      4  N   UNL     1     -35.573 106.362  -0.449  0.00  0.00    +0.000 NA
ATOM      5  C   UNL     1     -36.995 104.101   1.959  0.00  0.00    +0.000 A 
ATOM      6  C   UNL     1     -36.021 104.118   2.989  0.00  0.00    +0.000 A 
ATOM      7  C   UNL     1     -38.073 103.174   2.407  0.00  0.00    +0.000 C 
ATOM      8  C   UNL     1     -36.717 104.884   0.890  0.00  0.00    +0.000 A 
ATOM      9  C   UNL     1     -37.658 102.662   3.755  0.00  0.00    +0.000 C 
ATOM     10  C   UNL     1     -35.591 105.667   0.748  0.00  0.00    +0.000 A 
ATOM     11  C   UNL     1     -34.847 104.866   2.962  0.00  0.00    +0.000 A 
ATOM     12  C   UNL     1     -39.173 102.825   1.820  0.00  0.00    +0.000 C 
ATOM     13  C   UNL     1     -34.649 105.651   1.803  0.00  0.00    +0.000 A 
ATOM     14  C   UNL     1     -36.667 106.066  -1.121  0.00  0.00    +0.000 A 
ATOM     15  H   UNL     1     -35.917 103.111   4.865  0.00  0.00    +0.000 HD
ATOM     16  C   UNL     1     -40.392 102.393   1.245  0.00  0.00    +0.000 C 
ATOM     17  N   UNL     1     -41.267 101.519   1.826  0.00  0.00    +0.000 N 
ATOM     18  C   UNL     1     -42.318 101.353   0.968  0.00  0.00    +0.000 C 
ATOM     19  H   UNL     1     -41.162 101.070   2.726  0.00  0.00    +0.000 HD
ATOM     20  N   UNL     1     -42.164 102.071  -0.123  0.00  0.00    +0.000 NA
ATOM     21  C   UNL     1     -40.965 102.724   0.039  0.00  0.00    +0.000 C 
ENDROOT
TORSDOF 0
ENDMDL
MODEL 8
REMARK VINA RESULT:      -5.2     20.902     21.656
REMARK  Name = PKR_Inhibitor.pdbqt.pdb
REMARK  0 active torsions:
REMARK  status: ('A' for Active; 'I' for Inactive)
REMARK                            x       y       z     vdW  Elec       q    Type
REMARK                         _______ _______ _______ _____ _____    ______ ____
ROOT
ATOM      1  S   UNL     1     -19.732  88.521   4.173  0.00  0.00    +0.000 S 
ATOM      2  O   UNL     1     -23.063  85.549   0.499  0.00  0.00    +0.000 OA
ATOM      3  N   UNL     1     -23.750  86.136   2.664  0.00  0.00    +0.000 N 
ATOM      4  N   UNL     1     -20.922  88.932   6.450  0.00  0.00    +0.000 NA
ATOM      5  C   UNL     1     -21.914  87.256   3.426  0.00  0.00    +0.000 A 
ATOM      6  C   UNL     1     -23.221  86.814   3.751  0.00  0.00    +0.000 A 
ATOM      7  C   UNL     1     -21.644  86.802   2.032  0.00  0.00    +0.000 C 
ATOM      8  C   UNL     1     -21.276  87.938   4.407  0.00  0.00    +0.000 A 
ATOM      9  C   UNL     1     -22.875  86.075   1.579  0.00  0.00    +0.000 C 
ATOM     10  C   UNL     1     -21.799  88.219   5.651  0.00  0.00    +0.000 A 
ATOM     11  C   UNL     1     -23.856  87.035   4.970  0.00  0.00    +0.000 A 
ATOM     12  C   UNL     1     -20.595  86.959   1.290  0.00  0.00    +0.000 C 
ATOM     13  C   UNL     1     -23.108  87.757   5.928  0.00  0.00    +0.000 A 
ATOM     14  C   UNL     1     -19.813  89.140   5.770  0.00  0.00    +0.000 A 
ATOM     15  H   UNL     1     -24.670  85.720   2.635  0.00  0.00    +0.000 HD
ATOM     16  C   UNL     1     -19.488  87.087   0.418  0.00  0.00    +0.000 C 
ATOM     17  N   UNL     1     -19.431  86.592  -0.855  0.00  0.00    +0.000 N 
ATOM     18  C   UNL     1     -18.207  86.917  -1.371  0.00  0.00    +0.000 C 
ATOM     19  H   UNL     1     -20.157  86.077  -1.334  0.00  0.00    +0.000 HD
ATOM     20  N   UNL     1     -17.484  87.589  -0.503  0.00  0.00    +0.000 NA
ATOM     21  C   UNL     1     -18.273  87.701   0.617  0.00  0.00    +0.000 C 
ENDROOT
TORSDOF 0
ENDMDL
MODEL 9
REMARK VINA RESULT:      -5.0     13.247     15.959
REMARK  Name = PKR_Inhibitor.pdbqt.pdb
REMARK  0 active torsions:
REMARK  status: ('A' for Active; 'I' for Inactive)
REMARK                            x       y       z     vdW  Elec       q    Type
REMARK                         _______ _______ _______ _____ _____    ______ ____
ROOT
ATOM      1  S   UNL     1     -20.028  99.390   9.342  0.00  0.00    +0.000 S 
ATOM      2  O   UNL     1     -20.749  97.820   3.824  0.00  0.00    +0.000 OA
ATOM      3  N   UNL     1     -22.215  99.267   4.947  0.00  0.00    +0.000 N 
ATOM      4  N   UNL     1     -21.903 101.004  10.147  0.00  0.00    +0.000 NA
ATOM      5  C   UNL     1     -21.248  99.367   7.012  0.00  0.00    +0.000 A 
ATOM      6  C   UNL     1     -22.327  99.821   6.213  0.00  0.00    +0.000 A 
ATOM      7  C   UNL     1     -20.428  98.469   6.150  0.00  0.00    +0.000 C 
ATOM      8  C   UNL     1     -21.236  99.836   8.282  0.00  0.00    +0.000 A 
ATOM      9  C   UNL     1     -21.102  98.437   4.811  0.00  0.00    +0.000 C 
ATOM     10  C   UNL     1     -22.169 100.693   8.824  0.00  0.00    +0.000 A 
ATOM     11  C   UNL     1     -23.330 100.685   6.645  0.00  0.00    +0.000 A 
ATOM     12  C   UNL     1     -19.344  97.813   6.419  0.00  0.00    +0.000 C 
ATOM     13  C   UNL     1     -23.227 101.119   7.987  0.00  0.00    +0.000 A 
ATOM     14  C   UNL     1     -20.805 100.374  10.511  0.00  0.00    +0.000 A 
ATOM     15  H   UNL     1     -22.859  99.431   4.185  0.00  0.00    +0.000 HD
ATOM     16  C   UNL     1     -18.162  97.066   6.634  0.00  0.00    +0.000 C 
ATOM     17  N   UNL     1     -17.547  96.285   5.695  0.00  0.00    +0.000 N 
ATOM     18  C   UNL     1     -16.442  95.731   6.279  0.00  0.00    +0.000 C 
ATOM     19  H   UNL     1     -17.849  96.139   4.742  0.00  0.00    +0.000 HD
ATOM     20  N   UNL     1     -16.318  96.113   7.531  0.00  0.00    +0.000 NA
ATOM     21  C   UNL     1     -17.386  96.946   7.763  0.00  0.00    +0.000 C 
ENDROOT
TORSDOF 0
ENDMDL
