MODEL 1
REMARK VINA RESULT:      -7.4      0.000      0.000
REMARK  Name = 
REMARK  14 active torsions:
REMARK  status: ('A' for Active; 'I' for Inactive)
REMARK    1  A    between atoms: O_1  and  C_14
REMARK    2  A    between atoms: O_1  and  C_15
REMARK    3  A    between atoms: O_4  and  C_16
REMARK    4  A    between atoms: O_5  and  C_18
REMARK    5  A    between atoms: O_6  and  C_26
REMARK    6  A    between atoms: O_7  and  C_29
REMARK    7  A    between atoms: O_8  and  C_35
REMARK    8  A    between atoms: O_9  and  C_36
REMARK    9  A    between atoms: O_10  and  C_39
REMARK   10  A    between atoms: O_11  and  C_40
REMARK   11  A    between atoms: O_12  and  C_41
REMARK   12  A    between atoms: O_13  and  C_43
REMARK   13  A    between atoms: C_14  and  C_20
REMARK   14  A    between atoms: C_17  and  C_24
REMARK                            x       y       z     vdW  Elec       q    Type
REMARK                         _______ _______ _______ _____ _____    ______ ____
ROOT
ATOM      1  O   UNL     1     -32.845 100.123  17.040  0.00  0.00    +0.000 OA
ATOM      2  C   UNL     1     -33.117  99.652  15.713  0.00  0.00    +0.000 C 
ATOM      3  C   UNL     1     -31.877  98.921  15.112  0.00  0.00    +0.000 C 
ATOM      4  C   UNL     1     -30.652  99.829  15.149  0.00  0.00    +0.000 C 
ATOM      5  C   UNL     1     -30.489 100.469  16.495  0.00  0.00    +0.000 A 
ATOM      6  C   UNL     1     -31.594 100.583  17.343  0.00  0.00    +0.000 A 
ATOM      7  C   UNL     1     -29.265 101.002  16.927  0.00  0.00    +0.000 A 
ATOM      8  C   UNL     1     -31.471 101.196  18.592  0.00  0.00    +0.000 A 
ATOM      9  C   UNL     1     -29.137 101.633  18.161  0.00  0.00    +0.000 A 
ATOM     10  C   UNL     1     -30.247 101.721  18.989  0.00  0.00    +0.000 A 
ENDROOT
BRANCH   2  11
ATOM     11  C   UNL     1     -33.611 100.766  14.770  0.00  0.00    +0.000 A 
ATOM     12  C   UNL     1     -33.913 100.484  13.419  0.00  0.00    +0.000 A 
ATOM     13  C   UNL     1     -33.792 102.089  15.227  0.00  0.00    +0.000 A 
ATOM     14  C   UNL     1     -34.361 101.494  12.574  0.00  0.00    +0.000 A 
ATOM     15  C   UNL     1     -34.229 103.100  14.367  0.00  0.00    +0.000 A 
ATOM     16  C   UNL     1     -34.503 102.794  13.047  0.00  0.00    +0.000 A 
BRANCH  14  17
ATOM     17  O   UNL     1     -34.685 101.266  11.266  0.00  0.00    +0.000 OA
ATOM     18  H   UNL     1     -35.558 100.826  11.218  0.00  0.00    +0.000 HD
ENDBRANCH  14  17
BRANCH  16  19
ATOM     19  O   UNL     1     -34.935 103.780  12.207  0.00  0.00    +0.000 OA
ATOM     20  H   UNL     1     -34.661 103.478  11.317  0.00  0.00    +0.000 HD
ENDBRANCH  16  19
ENDBRANCH   2  11
BRANCH   3  21
ATOM     21  O   UNL     1     -31.562  97.696  15.834  0.00  0.00    +0.000 OA
ATOM     22  H   UNL     1     -32.402  97.193  15.852  0.00  0.00    +0.000 HD
ENDBRANCH   3  21
BRANCH   4  23
ATOM     23  O   UNL     1     -29.476  99.060  14.841  0.00  0.00    +0.000 OA
ATOM     24  H   UNL     1     -29.499  98.319  15.486  0.00  0.00    +0.000 HD
ENDBRANCH   4  23
BRANCH   7  25
ATOM     25  O   UNL     1     -28.132 100.911  16.163  0.00  0.00    +0.000 OA
ATOM     26  H   UNL     1     -27.371 100.848  16.780  0.00  0.00    +0.000 HD
ENDBRANCH   7  25
BRANCH  10  27
ATOM     27  O   UNL     1     -30.177 102.321  20.212  0.00  0.00    +0.000 OA
ATOM     28  H   UNL     1     -30.233 101.631  20.895  0.00  0.00    +0.000 HD
ENDBRANCH  10  27
BRANCH   2  29
ATOM     29  O   UNL     1     -34.112  98.594  15.801  0.00  0.00    +0.000 OA
BRANCH  29  31
ATOM     30  O   UNL     1     -37.243  98.207  17.744  0.00  0.00    +0.000 OA
ATOM     31  C   UNL     1     -34.906  98.538  17.002  0.00  0.00    +0.000 C 
ATOM     32  C   UNL     1     -36.367  98.206  16.608  0.00  0.00    +0.000 C 
ATOM     33  C   UNL     1     -34.423  97.437  17.952  0.00  0.00    +0.000 C 
ATOM     34  C   UNL     1     -35.479  97.030  18.942  0.00  0.00    +0.000 A 
ATOM     35  C   UNL     1     -36.808  97.435  18.786  0.00  0.00    +0.000 A 
ATOM     36  C   UNL     1     -35.151  96.228  20.043  0.00  0.00    +0.000 A 
ATOM     37  C   UNL     1     -37.778  97.087  19.729  0.00  0.00    +0.000 A 
ATOM     38  C   UNL     1     -36.112  95.861  20.981  0.00  0.00    +0.000 A 
ATOM     39  C   UNL     1     -37.420  96.300  20.818  0.00  0.00    +0.000 A 
BRANCH  32  40
ATOM     40  C   UNL     1     -36.911  99.218  15.609  0.00  0.00    +0.000 A 
ATOM     41  C   UNL     1     -37.111 100.558  15.976  0.00  0.00    +0.000 A 
ATOM     42  C   UNL     1     -37.142  98.834  14.276  0.00  0.00    +0.000 A 
ATOM     43  C   UNL     1     -37.486 101.494  15.013  0.00  0.00    +0.000 A 
ATOM     44  C   UNL     1     -37.537  99.773  13.320  0.00  0.00    +0.000 A 
ATOM     45  C   UNL     1     -37.692 101.105  13.691  0.00  0.00    +0.000 A 
BRANCH  43  46
ATOM     46  O   UNL     1     -37.589 102.815  15.343  0.00  0.00    +0.000 OA
ATOM     47  H   UNL     1     -37.592 103.346  14.529  0.00  0.00    +0.000 HD
ENDBRANCH  43  46
BRANCH  45  48
ATOM     48  O   UNL     1     -38.015 102.051  12.761  0.00  0.00    +0.000 OA
ATOM     49  H   UNL     1     -38.889 102.417  12.971  0.00  0.00    +0.000 HD
ENDBRANCH  45  48
ENDBRANCH  32  40
BRANCH  36  50
ATOM     50  O   UNL     1     -33.857  95.811  20.184  0.00  0.00    +0.000 OA
ATOM     51  H   UNL     1     -33.302  96.282  19.540  0.00  0.00    +0.000 HD
ENDBRANCH  36  50
BRANCH  39  52
ATOM     52  O   UNL     1     -38.336  95.930  21.759  0.00  0.00    +0.000 OA
ATOM     53  H   UNL     1     -38.515  94.979  21.662  0.00  0.00    +0.000 HD
ENDBRANCH  39  52
ENDBRANCH  29  31
ENDBRANCH   2  29
TORSDOF 14
ENDMDL
MODEL 2
REMARK VINA RESULT:      -6.9      2.003      7.093
REMARK  Name = 
REMARK  14 active torsions:
REMARK  status: ('A' for Active; 'I' for Inactive)
REMARK    1  A    between atoms: O_1  and  C_14
REMARK    2  A    between atoms: O_1  and  C_15
REMARK    3  A    between atoms: O_4  and  C_16
REMARK    4  A    between atoms: O_5  and  C_18
REMARK    5  A    between atoms: O_6  and  C_26
REMARK    6  A    between atoms: O_7  and  C_29
REMARK    7  A    between atoms: O_8  and  C_35
REMARK    8  A    between atoms: O_9  and  C_36
REMARK    9  A    between atoms: O_10  and  C_39
REMARK   10  A    between atoms: O_11  and  C_40
REMARK   11  A    between atoms: O_12  and  C_41
REMARK   12  A    between atoms: O_13  and  C_43
REMARK   13  A    between atoms: C_14  and  C_20
REMARK   14  A    between atoms: C_17  and  C_24
REMARK                            x       y       z     vdW  Elec       q    Type
REMARK                         _______ _______ _______ _____ _____    ______ ____
ROOT
ATOM      1  O   UNL     1     -34.500  98.670  18.812  0.00  0.00    +0.000 OA
ATOM      2  C   UNL     1     -33.485  97.918  18.133  0.00  0.00    +0.000 C 
ATOM      3  C   UNL     1     -33.657  96.389  18.384  0.00  0.00    +0.000 C 
ATOM      4  C   UNL     1     -33.674  96.091  19.880  0.00  0.00    +0.000 C 
ATOM      5  C   UNL     1     -34.601  97.017  20.609  0.00  0.00    +0.000 A 
ATOM      6  C   UNL     1     -34.941  98.245  20.033  0.00  0.00    +0.000 A 
ATOM      7  C   UNL     1     -35.114  96.716  21.879  0.00  0.00    +0.000 A 
ATOM      8  C   UNL     1     -35.784  99.134  20.704  0.00  0.00    +0.000 A 
ATOM      9  C   UNL     1     -35.938  97.605  22.564  0.00  0.00    +0.000 A 
ATOM     10  C   UNL     1     -36.271  98.810  21.965  0.00  0.00    +0.000 A 
ENDROOT
BRANCH   2  11
ATOM     11  C   UNL     1     -32.057  98.378  18.489  0.00  0.00    +0.000 A 
ATOM     12  C   UNL     1     -31.835  99.640  19.083  0.00  0.00    +0.000 A 
ATOM     13  C   UNL     1     -30.938  97.553  18.247  0.00  0.00    +0.000 A 
ATOM     14  C   UNL     1     -30.544 100.048  19.404  0.00  0.00    +0.000 A 
ATOM     15  C   UNL     1     -29.644  97.977  18.560  0.00  0.00    +0.000 A 
ATOM     16  C   UNL     1     -29.459  99.224  19.129  0.00  0.00    +0.000 A 
BRANCH  14  17
ATOM     17  O   UNL     1     -30.282 101.249  19.999  0.00  0.00    +0.000 OA
ATOM     18  H   UNL     1     -29.618 101.738  19.470  0.00  0.00    +0.000 HD
ENDBRANCH  14  17
BRANCH  16  19
ATOM     19  O   UNL     1     -28.195  99.638  19.438  0.00  0.00    +0.000 OA
ATOM     20  H   UNL     1     -28.080  99.387  20.378  0.00  0.00    +0.000 HD
ENDBRANCH  16  19
ENDBRANCH   2  11
BRANCH   3  21
ATOM     21  O   UNL     1     -34.888  95.875  17.799  0.00  0.00    +0.000 OA
ATOM     22  H   UNL     1     -34.933  94.941  18.089  0.00  0.00    +0.000 HD
ENDBRANCH   3  21
BRANCH   4  23
ATOM     23  O   UNL     1     -34.094  94.732  20.093  0.00  0.00    +0.000 OA
ATOM     24  H   UNL     1     -35.074  94.789  20.144  0.00  0.00    +0.000 HD
ENDBRANCH   4  23
BRANCH   7  25
ATOM     25  O   UNL     1     -34.843  95.525  22.499  0.00  0.00    +0.000 OA
ATOM     26  H   UNL     1     -33.999  95.190  22.124  0.00  0.00    +0.000 HD
ENDBRANCH   7  25
BRANCH  10  27
ATOM     27  O   UNL     1     -37.081  99.714  22.587  0.00  0.00    +0.000 OA
ATOM     28  H   UNL     1     -37.614  99.243  23.250  0.00  0.00    +0.000 HD
ENDBRANCH  10  27
BRANCH   2  29
ATOM     29  O   UNL     1     -33.707  98.044  16.700  0.00  0.00    +0.000 OA
BRANCH  29  31
ATOM     30  O   UNL     1     -34.392 100.948  14.503  0.00  0.00    +0.000 OA
ATOM     31  C   UNL     1     -34.445  99.197  16.250  0.00  0.00    +0.000 C 
ATOM     32  C   UNL     1     -33.761  99.749  14.974  0.00  0.00    +0.000 C 
ATOM     33  C   UNL     1     -35.888  98.838  15.880  0.00  0.00    +0.000 C 
ATOM     34  C   UNL     1     -36.519  99.859  14.974  0.00  0.00    +0.000 A 
ATOM     35  C   UNL     1     -35.747 100.843  14.349  0.00  0.00    +0.000 A 
ATOM     36  C   UNL     1     -37.898  99.840  14.732  0.00  0.00    +0.000 A 
ATOM     37  C   UNL     1     -36.343 101.813  13.539  0.00  0.00    +0.000 A 
ATOM     38  C   UNL     1     -38.502 100.792  13.914  0.00  0.00    +0.000 A 
ATOM     39  C   UNL     1     -37.716 101.776  13.328  0.00  0.00    +0.000 A 
BRANCH  32  40
ATOM     40  C   UNL     1     -32.296 100.074  15.233  0.00  0.00    +0.000 A 
ATOM     41  C   UNL     1     -31.925 101.244  15.915  0.00  0.00    +0.000 A 
ATOM     42  C   UNL     1     -31.297  99.155  14.862  0.00  0.00    +0.000 A 
ATOM     43  C   UNL     1     -30.591 101.457  16.254  0.00  0.00    +0.000 A 
ATOM     44  C   UNL     1     -29.959  99.385  15.189  0.00  0.00    +0.000 A 
ATOM     45  C   UNL     1     -29.614 100.530  15.899  0.00  0.00    +0.000 A 
BRANCH  43  46
ATOM     46  O   UNL     1     -30.238 102.546  17.000  0.00  0.00    +0.000 OA
ATOM     47  H   UNL     1     -30.017 103.281  16.404  0.00  0.00    +0.000 HD
ENDBRANCH  43  46
BRANCH  45  48
ATOM     48  O   UNL     1     -28.321 100.744  16.284  0.00  0.00    +0.000 OA
ATOM     49  H   UNL     1     -28.050 100.037  16.893  0.00  0.00    +0.000 HD
ENDBRANCH  45  48
ENDBRANCH  32  40
BRANCH  36  50
ATOM     50  O   UNL     1     -38.652  98.864  15.321  0.00  0.00    +0.000 OA
ATOM     51  H   UNL     1     -39.380  98.624  14.723  0.00  0.00    +0.000 HD
ENDBRANCH  36  50
BRANCH  39  52
ATOM     52  O   UNL     1     -38.338 102.699  12.538  0.00  0.00    +0.000 OA
ATOM     53  H   UNL     1     -37.983 103.579  12.748  0.00  0.00    +0.000 HD
ENDBRANCH  39  52
ENDBRANCH  29  31
ENDBRANCH   2  29
TORSDOF 14
ENDMDL
MODEL 3
REMARK VINA RESULT:      -6.5     14.321     18.073
REMARK  Name = 
REMARK  14 active torsions:
REMARK  status: ('A' for Active; 'I' for Inactive)
REMARK    1  A    between atoms: O_1  and  C_14
REMARK    2  A    between atoms: O_1  and  C_15
REMARK    3  A    between atoms: O_4  and  C_16
REMARK    4  A    between atoms: O_5  and  C_18
REMARK    5  A    between atoms: O_6  and  C_26
REMARK    6  A    between atoms: O_7  and  C_29
REMARK    7  A    between atoms: O_8  and  C_35
REMARK    8  A    between atoms: O_9  and  C_36
REMARK    9  A    between atoms: O_10  and  C_39
REMARK   10  A    between atoms: O_11  and  C_40
REMARK   11  A    between atoms: O_12  and  C_41
REMARK   12  A    between atoms: O_13  and  C_43
REMARK   13  A    between atoms: C_14  and  C_20
REMARK   14  A    between atoms: C_17  and  C_24
REMARK                            x       y       z     vdW  Elec       q    Type
REMARK                         _______ _______ _______ _____ _____    ______ ____
ROOT
ATOM      1  O   UNL     1     -34.806 105.388  -0.867  0.00  0.00    +0.000 OA
ATOM      2  C   UNL     1     -35.197 106.752  -0.657  0.00  0.00    +0.000 C 
ATOM      3  C   UNL     1     -35.812 107.365  -1.951  0.00  0.00    +0.000 C 
ATOM      4  C   UNL     1     -34.840 107.231  -3.120  0.00  0.00    +0.000 C 
ATOM      5  C   UNL     1     -34.288 105.840  -3.212  0.00  0.00    +0.000 A 
ATOM      6  C   UNL     1     -34.298 105.019  -2.081  0.00  0.00    +0.000 A 
ATOM      7  C   UNL     1     -33.718 105.337  -4.391  0.00  0.00    +0.000 A 
ATOM      8  C   UNL     1     -33.768 103.727  -2.136  0.00  0.00    +0.000 A 
ATOM      9  C   UNL     1     -33.169 104.059  -4.450  0.00  0.00    +0.000 A 
ATOM     10  C   UNL     1     -33.204 103.260  -3.317  0.00  0.00    +0.000 A 
ENDROOT
BRANCH   2  11
ATOM     11  C   UNL     1     -34.049 107.629  -0.121  0.00  0.00    +0.000 A 
ATOM     12  C   UNL     1     -32.732 107.125  -0.047  0.00  0.00    +0.000 A 
ATOM     13  C   UNL     1     -34.274 108.959   0.295  0.00  0.00    +0.000 A 
ATOM     14  C   UNL     1     -31.700 107.924   0.436  0.00  0.00    +0.000 A 
ATOM     15  C   UNL     1     -33.233 109.749   0.792  0.00  0.00    +0.000 A 
ATOM     16  C   UNL     1     -31.957 109.221   0.864  0.00  0.00    +0.000 A 
BRANCH  14  17
ATOM     17  O   UNL     1     -30.407 107.488   0.507  0.00  0.00    +0.000 OA
ATOM     18  H   UNL     1     -30.328 106.812   1.210  0.00  0.00    +0.000 HD
ENDBRANCH  14  17
BRANCH  16  19
ATOM     19  O   UNL     1     -30.939 109.994   1.345  0.00  0.00    +0.000 OA
ATOM     20  H   UNL     1     -31.366 110.570   2.011  0.00  0.00    +0.000 HD
ENDBRANCH  16  19
ENDBRANCH   2  11
BRANCH   3  21
ATOM     21  O   UNL     1     -37.064 106.721  -2.320  0.00  0.00    +0.000 OA
ATOM     22  H   UNL     1     -36.799 105.936  -2.840  0.00  0.00    +0.000 HD
ENDBRANCH   3  21
BRANCH   4  23
ATOM     23  O   UNL     1     -35.517 107.557  -4.346  0.00  0.00    +0.000 OA
ATOM     24  H   UNL     1     -36.125 106.798  -4.493  0.00  0.00    +0.000 HD
ENDBRANCH   4  23
BRANCH   7  25
ATOM     25  O   UNL     1     -33.691 106.073  -5.545  0.00  0.00    +0.000 OA
ATOM     26  H   UNL     1     -34.280 106.847  -5.408  0.00  0.00    +0.000 HD
ENDBRANCH   7  25
BRANCH  10  27
ATOM     27  O   UNL     1     -32.689 101.996  -3.322  0.00  0.00    +0.000 OA
ATOM     28  H   UNL     1     -32.549 101.719  -2.400  0.00  0.00    +0.000 HD
ENDBRANCH  10  27
BRANCH   2  29
ATOM     29  O   UNL     1     -36.314 106.766   0.277  0.00  0.00    +0.000 OA
BRANCH  29  31
ATOM     30  O   UNL     1     -37.093 104.493   3.097  0.00  0.00    +0.000 OA
ATOM     31  C   UNL     1     -36.680 105.509   0.880  0.00  0.00    +0.000 C 
ATOM     32  C   UNL     1     -36.804 105.718   2.410  0.00  0.00    +0.000 C 
ATOM     33  C   UNL     1     -38.037 105.011   0.372  0.00  0.00    +0.000 C 
ATOM     34  C   UNL     1     -38.663 104.006   1.300  0.00  0.00    +0.000 A 
ATOM     35  C   UNL     1     -38.161 103.806   2.589  0.00  0.00    +0.000 A 
ATOM     36  C   UNL     1     -39.771 103.254   0.891  0.00  0.00    +0.000 A 
ATOM     37  C   UNL     1     -38.722 102.844   3.433  0.00  0.00    +0.000 A 
ATOM     38  C   UNL     1     -40.349 102.304   1.730  0.00  0.00    +0.000 A 
ATOM     39  C   UNL     1     -39.813 102.103   2.995  0.00  0.00    +0.000 A 
BRANCH  32  40
ATOM     40  C   UNL     1     -35.514 106.277   2.994  0.00  0.00    +0.000 A 
ATOM     41  C   UNL     1     -34.313 105.554   2.917  0.00  0.00    +0.000 A 
ATOM     42  C   UNL     1     -35.497 107.570   3.548  0.00  0.00    +0.000 A 
ATOM     43  C   UNL     1     -33.121 106.138   3.341  0.00  0.00    +0.000 A 
ATOM     44  C   UNL     1     -34.302 108.143   3.989  0.00  0.00    +0.000 A 
ATOM     45  C   UNL     1     -33.114 107.428   3.869  0.00  0.00    +0.000 A 
BRANCH  43  46
ATOM     46  O   UNL     1     -31.937 105.478   3.181  0.00  0.00    +0.000 OA
ATOM     47  H   UNL     1     -31.259 105.902   3.733  0.00  0.00    +0.000 HD
ENDBRANCH  43  46
BRANCH  45  48
ATOM     48  O   UNL     1     -31.926 107.992   4.235  0.00  0.00    +0.000 OA
ATOM     49  H   UNL     1     -31.759 108.770   3.678  0.00  0.00    +0.000 HD
ENDBRANCH  45  48
ENDBRANCH  32  40
BRANCH  36  50
ATOM     50  O   UNL     1     -40.280 103.466  -0.360  0.00  0.00    +0.000 OA
ATOM     51  H   UNL     1     -39.555 103.717  -0.956  0.00  0.00    +0.000 HD
ENDBRANCH  36  50
BRANCH  39  52
ATOM     52  O   UNL     1     -40.397 101.160   3.790  0.00  0.00    +0.000 OA
ATOM     53  H   UNL     1     -40.661 100.406   3.236  0.00  0.00    +0.000 HD
ENDBRANCH  39  52
ENDBRANCH  29  31
ENDBRANCH   2  29
TORSDOF 14
ENDMDL
MODEL 4
REMARK VINA RESULT:      -6.4      2.116      8.190
REMARK  Name = 
REMARK  14 active torsions:
REMARK  status: ('A' for Active; 'I' for Inactive)
REMARK    1  A    between atoms: O_1  and  C_14
REMARK    2  A    between atoms: O_1  and  C_15
REMARK    3  A    between atoms: O_4  and  C_16
REMARK    4  A    between atoms: O_5  and  C_18
REMARK    5  A    between atoms: O_6  and  C_26
REMARK    6  A    between atoms: O_7  and  C_29
REMARK    7  A    between atoms: O_8  and  C_35
REMARK    8  A    between atoms: O_9  and  C_36
REMARK    9  A    between atoms: O_10  and  C_39
REMARK   10  A    between atoms: O_11  and  C_40
REMARK   11  A    between atoms: O_12  and  C_41
REMARK   12  A    between atoms: O_13  and  C_43
REMARK   13  A    between atoms: C_14  and  C_20
REMARK   14  A    between atoms: C_17  and  C_24
REMARK                            x       y       z     vdW  Elec       q    Type
REMARK                         _______ _______ _______ _____ _____    ______ ____
ROOT
ATOM      1  O   UNL     1     -35.256  97.788  18.692  0.00  0.00    +0.000 OA
ATOM      2  C   UNL     1     -33.858  97.518  18.866  0.00  0.00    +0.000 C 
ATOM      3  C   UNL     1     -33.612  96.012  19.183  0.00  0.00    +0.000 C 
ATOM      4  C   UNL     1     -34.425  95.582  20.400  0.00  0.00    +0.000 C 
ATOM      5  C   UNL     1     -35.849  96.040  20.293  0.00  0.00    +0.000 A 
ATOM      6  C   UNL     1     -36.166  97.115  19.458  0.00  0.00    +0.000 A 
ATOM      7  C   UNL     1     -36.882  95.452  21.038  0.00  0.00    +0.000 A 
ATOM      8  C   UNL     1     -37.481  97.574  19.360  0.00  0.00    +0.000 A 
ATOM      9  C   UNL     1     -38.193  95.916  20.963  0.00  0.00    +0.000 A 
ATOM     10  C   UNL     1     -38.482  96.976  20.116  0.00  0.00    +0.000 A 
ENDROOT
BRANCH   2  11
ATOM     11  C   UNL     1     -33.200  98.420  19.928  0.00  0.00    +0.000 A 
ATOM     12  C   UNL     1     -33.778  99.662  20.276  0.00  0.00    +0.000 A 
ATOM     13  C   UNL     1     -32.018  98.030  20.593  0.00  0.00    +0.000 A 
ATOM     14  C   UNL     1     -33.180 100.470  21.237  0.00  0.00    +0.000 A 
ATOM     15  C   UNL     1     -31.417  98.856  21.547  0.00  0.00    +0.000 A 
ATOM     16  C   UNL     1     -32.000 100.071  21.855  0.00  0.00    +0.000 A 
BRANCH  14  17
ATOM     17  O   UNL     1     -33.712 101.669  21.621  0.00  0.00    +0.000 OA
ATOM     18  H   UNL     1     -33.029 102.366  21.553  0.00  0.00    +0.000 HD
ENDBRANCH  14  17
BRANCH  16  19
ATOM     19  O   UNL     1     -31.416 100.876  22.791  0.00  0.00    +0.000 OA
ATOM     20  H   UNL     1     -30.951 101.560  22.267  0.00  0.00    +0.000 HD
ENDBRANCH  16  19
ENDBRANCH   2  11
BRANCH   3  21
ATOM     21  O   UNL     1     -33.972  95.152  18.064  0.00  0.00    +0.000 OA
ATOM     22  H   UNL     1     -33.189  95.163  17.477  0.00  0.00    +0.000 HD
ENDBRANCH   3  21
BRANCH   4  23
ATOM     23  O   UNL     1     -34.393  94.149  20.517  0.00  0.00    +0.000 OA
ATOM     24  H   UNL     1     -35.050  93.951  21.220  0.00  0.00    +0.000 HD
ENDBRANCH   4  23
BRANCH   7  25
ATOM     25  O   UNL     1     -36.655  94.382  21.861  0.00  0.00    +0.000 OA
ATOM     26  H   UNL     1     -36.517  94.738  22.767  0.00  0.00    +0.000 HD
ENDBRANCH   7  25
BRANCH  10  27
ATOM     27  O   UNL     1     -39.751  97.464  19.997  0.00  0.00    +0.000 OA
ATOM     28  H   UNL     1     -40.000  97.445  19.057  0.00  0.00    +0.000 HD
ENDBRANCH  10  27
BRANCH   2  29
ATOM     29  O   UNL     1     -33.197  97.696  17.581  0.00  0.00    +0.000 OA
BRANCH  29  31
ATOM     30  O   UNL     1     -32.363 100.600  15.437  0.00  0.00    +0.000 OA
ATOM     31  C   UNL     1     -33.477  98.914  16.863  0.00  0.00    +0.000 C 
ATOM     32  C   UNL     1     -32.191  99.350  16.118  0.00  0.00    +0.000 C 
ATOM     33  C   UNL     1     -34.572  98.712  15.811  0.00  0.00    +0.000 C 
ATOM     34  C   UNL     1     -34.548  99.774  14.746  0.00  0.00    +0.000 A 
ATOM     35  C   UNL     1     -33.462 100.647  14.624  0.00  0.00    +0.000 A 
ATOM     36  C   UNL     1     -35.614  99.907  13.849  0.00  0.00    +0.000 A 
ATOM     37  C   UNL     1     -33.461 101.657  13.659  0.00  0.00    +0.000 A 
ATOM     38  C   UNL     1     -35.618 100.900  12.871  0.00  0.00    +0.000 A 
ATOM     39  C   UNL     1     -34.540 101.772  12.790  0.00  0.00    +0.000 A 
BRANCH  32  40
ATOM     40  C   UNL     1     -31.025  99.512  17.084  0.00  0.00    +0.000 A 
ATOM     41  C   UNL     1     -30.888 100.672  17.863  0.00  0.00    +0.000 A 
ATOM     42  C   UNL     1     -30.113  98.457  17.267  0.00  0.00    +0.000 A 
ATOM     43  C   UNL     1     -29.889 100.745  18.832  0.00  0.00    +0.000 A 
ATOM     44  C   UNL     1     -29.102  98.544  18.227  0.00  0.00    +0.000 A 
ATOM     45  C   UNL     1     -29.005  99.685  19.018  0.00  0.00    +0.000 A 
BRANCH  43  46
ATOM     46  O   UNL     1     -29.811 101.831  19.657  0.00  0.00    +0.000 OA
ATOM     47  H   UNL     1     -30.344 101.665  20.452  0.00  0.00    +0.000 HD
ENDBRANCH  43  46
BRANCH  45  48
ATOM     48  O   UNL     1     -28.065  99.766  20.005  0.00  0.00    +0.000 OA
ATOM     49  H   UNL     1     -27.280 100.221  19.658  0.00  0.00    +0.000 HD
ENDBRANCH  45  48
ENDBRANCH  32  40
BRANCH  36  50
ATOM     50  O   UNL     1     -36.666  99.039  13.950  0.00  0.00    +0.000 OA
ATOM     51  H   UNL     1     -37.350  99.297  13.309  0.00  0.00    +0.000 HD
ENDBRANCH  36  50
BRANCH  39  52
ATOM     52  O   UNL     1     -34.577 102.738  11.827  0.00  0.00    +0.000 OA
ATOM     53  H   UNL     1     -34.234 103.566  12.203  0.00  0.00    +0.000 HD
ENDBRANCH  39  52
ENDBRANCH  29  31
ENDBRANCH   2  29
TORSDOF 14
ENDMDL
MODEL 5
REMARK VINA RESULT:      -6.3     12.887     15.571
REMARK  Name = 
REMARK  14 active torsions:
REMARK  status: ('A' for Active; 'I' for Inactive)
REMARK    1  A    between atoms: O_1  and  C_14
REMARK    2  A    between atoms: O_1  and  C_15
REMARK    3  A    between atoms: O_4  and  C_16
REMARK    4  A    between atoms: O_5  and  C_18
REMARK    5  A    between atoms: O_6  and  C_26
REMARK    6  A    between atoms: O_7  and  C_29
REMARK    7  A    between atoms: O_8  and  C_35
REMARK    8  A    between atoms: O_9  and  C_36
REMARK    9  A    between atoms: O_10  and  C_39
REMARK   10  A    between atoms: O_11  and  C_40
REMARK   11  A    between atoms: O_12  and  C_41
REMARK   12  A    between atoms: O_13  and  C_43
REMARK   13  A    between atoms: C_14  and  C_20
REMARK   14  A    between atoms: C_17  and  C_24
REMARK                            x       y       z     vdW  Elec       q    Type
REMARK                         _______ _______ _______ _____ _____    ______ ____
ROOT
ATOM      1  O   UNL     1     -39.673 104.644   3.314  0.00  0.00    +0.000 OA
ATOM      2  C   UNL     1     -39.881 103.226   3.280  0.00  0.00    +0.000 C 
ATOM      3  C   UNL     1     -38.560 102.457   3.584  0.00  0.00    +0.000 C 
ATOM      4  C   UNL     1     -37.456 102.888   2.623  0.00  0.00    +0.000 C 
ATOM      5  C   UNL     1     -37.376 104.382   2.521  0.00  0.00    +0.000 A 
ATOM      6  C   UNL     1     -38.489 105.156   2.861  0.00  0.00    +0.000 A 
ATOM      7  C   UNL     1     -36.229 105.040   2.053  0.00  0.00    +0.000 A 
ATOM      8  C   UNL     1     -38.446 106.548   2.752  0.00  0.00    +0.000 A 
ATOM      9  C   UNL     1     -36.183 106.425   1.921  0.00  0.00    +0.000 A 
ATOM     10  C   UNL     1     -37.297 107.170   2.278  0.00  0.00    +0.000 A 
ENDROOT
BRANCH   2  11
ATOM     11  C   UNL     1     -40.508 102.743   1.958  0.00  0.00    +0.000 A 
ATOM     12  C   UNL     1     -40.732 103.646   0.895  0.00  0.00    +0.000 A 
ATOM     13  C   UNL     1     -40.862 101.390   1.764  0.00  0.00    +0.000 A 
ATOM     14  C   UNL     1     -41.297 103.203  -0.297  0.00  0.00    +0.000 A 
ATOM     15  C   UNL     1     -41.442 100.957   0.568  0.00  0.00    +0.000 A 
ATOM     16  C   UNL     1     -41.660 101.869  -0.449  0.00  0.00    +0.000 A 
BRANCH  14  17
ATOM     17  O   UNL     1     -41.513 104.034  -1.360  0.00  0.00    +0.000 OA
ATOM     18  H   UNL     1     -42.378 104.479  -1.256  0.00  0.00    +0.000 HD
ENDBRANCH  14  17
BRANCH  16  19
ATOM     19  O   UNL     1     -42.223 101.446  -1.619  0.00  0.00    +0.000 OA
ATOM     20  H   UNL     1     -42.858 100.753  -1.346  0.00  0.00    +0.000 HD
ENDBRANCH  16  19
ENDBRANCH   2  11
BRANCH   3  21
ATOM     21  O   UNL     1     -38.097 102.684   4.946  0.00  0.00    +0.000 OA
ATOM     22  H   UNL     1     -37.134 102.838   4.861  0.00  0.00    +0.000 HD
ENDBRANCH   3  21
BRANCH   4  23
ATOM     23  O   UNL     1     -36.194 102.373   3.080  0.00  0.00    +0.000 OA
ATOM     24  H   UNL     1     -36.440 101.699   3.753  0.00  0.00    +0.000 HD
ENDBRANCH   4  23
BRANCH   7  25
ATOM     25  O   UNL     1     -35.093 104.352   1.720  0.00  0.00    +0.000 OA
ATOM     26  H   UNL     1     -34.436 105.013   1.408  0.00  0.00    +0.000 HD
ENDBRANCH   7  25
BRANCH  10  27
ATOM     27  O   UNL     1     -37.304 108.531   2.178  0.00  0.00    +0.000 OA
ATOM     28  H   UNL     1     -37.855 108.780   1.417  0.00  0.00    +0.000 HD
ENDBRANCH  10  27
BRANCH   2  29
ATOM     29  O   UNL     1     -40.738 102.865   4.400  0.00  0.00    +0.000 OA
BRANCH  29  31
ATOM     30  O   UNL     1     -43.748 104.401   5.919  0.00  0.00    +0.000 OA
ATOM     31  C   UNL     1     -41.495 103.926   5.015  0.00  0.00    +0.000 C 
ATOM     32  C   UNL     1     -42.901 103.382   5.370  0.00  0.00    +0.000 C 
ATOM     33  C   UNL     1     -40.845 104.405   6.317  0.00  0.00    +0.000 C 
ATOM     34  C   UNL     1     -41.815 105.129   7.210  0.00  0.00    +0.000 A 
ATOM     35  C   UNL     1     -43.190 105.088   6.962  0.00  0.00    +0.000 A 
ATOM     36  C   UNL     1     -41.358 105.855   8.316  0.00  0.00    +0.000 A 
ATOM     37  C   UNL     1     -44.084 105.794   7.771  0.00  0.00    +0.000 A 
ATOM     38  C   UNL     1     -42.241 106.549   9.140  0.00  0.00    +0.000 A 
ATOM     39  C   UNL     1     -43.599 106.516   8.855  0.00  0.00    +0.000 A 
BRANCH  32  40
ATOM     40  C   UNL     1     -43.600 102.821   4.138  0.00  0.00    +0.000 A 
ATOM     41  C   UNL     1     -43.883 103.639   3.033  0.00  0.00    +0.000 A 
ATOM     42  C   UNL     1     -43.896 101.448   4.064  0.00  0.00    +0.000 A 
ATOM     43  C   UNL     1     -44.404 103.079   1.869  0.00  0.00    +0.000 A 
ATOM     44  C   UNL     1     -44.437 100.896   2.900  0.00  0.00    +0.000 A 
ATOM     45  C   UNL     1     -44.674 101.713   1.800  0.00  0.00    +0.000 A 
BRANCH  43  46
ATOM     46  O   UNL     1     -44.592 103.852   0.759  0.00  0.00    +0.000 OA
ATOM     47  H   UNL     1     -45.226 104.558   0.967  0.00  0.00    +0.000 HD
ENDBRANCH  43  46
BRANCH  45  48
ATOM     48  O   UNL     1     -45.143 101.184   0.632  0.00  0.00    +0.000 OA
ATOM     49  H   UNL     1     -45.753 100.457   0.835  0.00  0.00    +0.000 HD
ENDBRANCH  45  48
ENDBRANCH  32  40
BRANCH  36  50
ATOM     50  O   UNL     1     -40.016 105.876   8.576  0.00  0.00    +0.000 OA
ATOM     51  H   UNL     1     -39.866 106.329   9.423  0.00  0.00    +0.000 HD
ENDBRANCH  36  50
BRANCH  39  52
ATOM     52  O   UNL     1     -44.437 107.213   9.676  0.00  0.00    +0.000 OA
ATOM     53  H   UNL     1     -44.055 107.229  10.571  0.00  0.00    +0.000 HD
ENDBRANCH  39  52
ENDBRANCH  29  31
ENDBRANCH   2  29
TORSDOF 14
ENDMDL
MODEL 6
REMARK VINA RESULT:      -6.0     12.463     16.603
REMARK  Name = 
REMARK  14 active torsions:
REMARK  status: ('A' for Active; 'I' for Inactive)
REMARK    1  A    between atoms: O_1  and  C_14
REMARK    2  A    between atoms: O_1  and  C_15
REMARK    3  A    between atoms: O_4  and  C_16
REMARK    4  A    between atoms: O_5  and  C_18
REMARK    5  A    between atoms: O_6  and  C_26
REMARK    6  A    between atoms: O_7  and  C_29
REMARK    7  A    between atoms: O_8  and  C_35
REMARK    8  A    between atoms: O_9  and  C_36
REMARK    9  A    between atoms: O_10  and  C_39
REMARK   10  A    between atoms: O_11  and  C_40
REMARK   11  A    between atoms: O_12  and  C_41
REMARK   12  A    between atoms: O_13  and  C_43
REMARK   13  A    between atoms: C_14  and  C_20
REMARK   14  A    between atoms: C_17  and  C_24
REMARK                            x       y       z     vdW  Elec       q    Type
REMARK                         _______ _______ _______ _____ _____    ______ ____
ROOT
ATOM      1  O   UNL     1     -36.838 106.496   3.899  0.00  0.00    +0.000 OA
ATOM      2  C   UNL     1     -38.148 106.852   3.438  0.00  0.00    +0.000 C 
ATOM      3  C   UNL     1     -38.420 108.374   3.639  0.00  0.00    +0.000 C 
ATOM      4  C   UNL     1     -38.211 108.766   5.098  0.00  0.00    +0.000 C 
ATOM      5  C   UNL     1     -36.918 108.221   5.628  0.00  0.00    +0.000 A 
ATOM      6  C   UNL     1     -36.326 107.120   5.002  0.00  0.00    +0.000 A 
ATOM      7  C   UNL     1     -36.292 108.752   6.765  0.00  0.00    +0.000 A 
ATOM      8  C   UNL     1     -35.134 106.581   5.492  0.00  0.00    +0.000 A 
ATOM      9  C   UNL     1     -35.115 108.209   7.273  0.00  0.00    +0.000 A 
ATOM     10  C   UNL     1     -34.541 107.125   6.625  0.00  0.00    +0.000 A 
ENDROOT
BRANCH   2  11
ATOM     11  C   UNL     1     -39.262 106.002   4.080  0.00  0.00    +0.000 A 
ATOM     12  C   UNL     1     -39.001 105.223   5.229  0.00  0.00    +0.000 A 
ATOM     13  C   UNL     1     -40.571 105.988   3.553  0.00  0.00    +0.000 A 
ATOM     14  C   UNL     1     -40.012 104.460   5.805  0.00  0.00    +0.000 A 
ATOM     15  C   UNL     1     -41.576 105.207   4.130  0.00  0.00    +0.000 A 
ATOM     16  C   UNL     1     -41.285 104.445   5.247  0.00  0.00    +0.000 A 
BRANCH  14  17
ATOM     17  O   UNL     1     -39.813 103.708   6.928  0.00  0.00    +0.000 OA
ATOM     18  H   UNL     1     -40.543 103.063   7.023  0.00  0.00    +0.000 HD
ENDBRANCH  14  17
BRANCH  16  19
ATOM     19  O   UNL     1     -42.268 103.685   5.814  0.00  0.00    +0.000 OA
ATOM     20  H   UNL     1     -42.993 103.696   5.157  0.00  0.00    +0.000 HD
ENDBRANCH  16  19
ENDBRANCH   2  11
BRANCH   3  21
ATOM     21  O   UNL     1     -37.550 109.198   2.813  0.00  0.00    +0.000 OA
ATOM     22  H   UNL     1     -37.955 110.089   2.834  0.00  0.00    +0.000 HD
ENDBRANCH   3  21
BRANCH   4  23
ATOM     23  O   UNL     1     -38.207 110.199   5.214  0.00  0.00    +0.000 OA
ATOM     24  H   UNL     1     -37.256 110.441   5.160  0.00  0.00    +0.000 HD
ENDBRANCH   4  23
BRANCH   7  25
ATOM     25  O   UNL     1     -36.799 109.843   7.421  0.00  0.00    +0.000 OA
ATOM     26  H   UNL     1     -37.109 109.533   8.300  0.00  0.00    +0.000 HD
ENDBRANCH   7  25
BRANCH  10  27
ATOM     27  O   UNL     1     -33.384 106.559   7.073  0.00  0.00    +0.000 OA
ATOM     28  H   UNL     1     -33.111 107.021   7.884  0.00  0.00    +0.000 HD
ENDBRANCH  10  27
BRANCH   2  29
ATOM     29  O   UNL     1     -38.177 106.701   1.990  0.00  0.00    +0.000 OA
BRANCH  29  31
ATOM     30  O   UNL     1     -36.269 104.331  -0.124  0.00  0.00    +0.000 OA
ATOM     31  C   UNL     1     -36.993 106.172   1.362  0.00  0.00    +0.000 C 
ATOM     32  C   UNL     1     -37.404 104.967   0.480  0.00  0.00    +0.000 C 
ATOM     33  C   UNL     1     -36.325 107.205   0.449  0.00  0.00    +0.000 C 
ATOM     34  C   UNL     1     -35.415 106.570  -0.566  0.00  0.00    +0.000 A 
ATOM     35  C   UNL     1     -35.436 105.190  -0.789  0.00  0.00    +0.000 A 
ATOM     36  C   UNL     1     -34.529 107.353  -1.316  0.00  0.00    +0.000 A 
ATOM     37  C   UNL     1     -34.562 104.599  -1.705  0.00  0.00    +0.000 A 
ATOM     38  C   UNL     1     -33.664 106.778  -2.245  0.00  0.00    +0.000 A 
ATOM     39  C   UNL     1     -33.685 105.401  -2.426  0.00  0.00    +0.000 A 
BRANCH  32  40
ATOM     40  C   UNL     1     -38.138 103.912   1.297  0.00  0.00    +0.000 A 
ATOM     41  C   UNL     1     -37.538 103.324   2.421  0.00  0.00    +0.000 A 
ATOM     42  C   UNL     1     -39.466 103.575   0.977  0.00  0.00    +0.000 A 
ATOM     43  C   UNL     1     -38.274 102.458   3.228  0.00  0.00    +0.000 A 
ATOM     44  C   UNL     1     -40.192 102.691   1.779  0.00  0.00    +0.000 A 
ATOM     45  C   UNL     1     -39.595 102.148   2.913  0.00  0.00    +0.000 A 
BRANCH  43  46
ATOM     46  O   UNL     1     -37.728 101.958   4.376  0.00  0.00    +0.000 OA
ATOM     47  H   UNL     1     -38.096 102.435   5.138  0.00  0.00    +0.000 HD
ENDBRANCH  43  46
BRANCH  45  48
ATOM     48  O   UNL     1     -40.306 101.332   3.746  0.00  0.00    +0.000 OA
ATOM     49  H   UNL     1     -40.604 101.846   4.515  0.00  0.00    +0.000 HD
ENDBRANCH  45  48
ENDBRANCH  32  40
BRANCH  36  50
ATOM     50  O   UNL     1     -34.524 108.705  -1.118  0.00  0.00    +0.000 OA
ATOM     51  H   UNL     1     -34.856 108.894  -0.224  0.00  0.00    +0.000 HD
ENDBRANCH  36  50
BRANCH  39  52
ATOM     52  O   UNL     1     -32.821 104.868  -3.337  0.00  0.00    +0.000 OA
ATOM     53  H   UNL     1     -31.915 104.944  -2.990  0.00  0.00    +0.000 HD
ENDBRANCH  39  52
ENDBRANCH  29  31
ENDBRANCH   2  29
TORSDOF 14
ENDMDL
MODEL 7
REMARK VINA RESULT:      -6.0     20.308     23.239
REMARK  Name = 
REMARK  14 active torsions:
REMARK  status: ('A' for Active; 'I' for Inactive)
REMARK    1  A    between atoms: O_1  and  C_14
REMARK    2  A    between atoms: O_1  and  C_15
REMARK    3  A    between atoms: O_4  and  C_16
REMARK    4  A    between atoms: O_5  and  C_18
REMARK    5  A    between atoms: O_6  and  C_26
REMARK    6  A    between atoms: O_7  and  C_29
REMARK    7  A    between atoms: O_8  and  C_35
REMARK    8  A    between atoms: O_9  and  C_36
REMARK    9  A    between atoms: O_10  and  C_39
REMARK   10  A    between atoms: O_11  and  C_40
REMARK   11  A    between atoms: O_12  and  C_41
REMARK   12  A    between atoms: O_13  and  C_43
REMARK   13  A    between atoms: C_14  and  C_20
REMARK   14  A    between atoms: C_17  and  C_24
REMARK                            x       y       z     vdW  Elec       q    Type
REMARK                         _______ _______ _______ _____ _____    ______ ____
ROOT
ATOM      1  O   UNL     1     -18.574  87.577   5.676  0.00  0.00    +0.000 OA
ATOM      2  C   UNL     1     -19.948  87.971   5.800  0.00  0.00    +0.000 C 
ATOM      3  C   UNL     1     -20.195  88.734   7.136  0.00  0.00    +0.000 C 
ATOM      4  C   UNL     1     -19.742  87.891   8.325  0.00  0.00    +0.000 C 
ATOM      5  C   UNL     1     -18.372  87.324   8.099  0.00  0.00    +0.000 A 
ATOM      6  C   UNL     1     -17.887  87.194   6.794  0.00  0.00    +0.000 A 
ATOM      7  C   UNL     1     -17.565  86.873   9.154  0.00  0.00    +0.000 A 
ATOM      8  C   UNL     1     -16.624  86.647   6.558  0.00  0.00    +0.000 A 
ATOM      9  C   UNL     1     -16.314  86.307   8.927  0.00  0.00    +0.000 A 
ATOM     10  C   UNL     1     -15.850  86.203   7.624  0.00  0.00    +0.000 A 
ENDROOT
BRANCH   2  11
ATOM     11  C   UNL     1     -20.927  86.791   5.648  0.00  0.00    +0.000 A 
ATOM     12  C   UNL     1     -22.230  86.863   6.190  0.00  0.00    +0.000 A 
ATOM     13  C   UNL     1     -20.561  85.617   4.956  0.00  0.00    +0.000 A 
ATOM     14  C   UNL     1     -23.110  85.794   6.047  0.00  0.00    +0.000 A 
ATOM     15  C   UNL     1     -21.448  84.543   4.831  0.00  0.00    +0.000 A 
ATOM     16  C   UNL     1     -22.711  84.640   5.384  0.00  0.00    +0.000 A 
BRANCH  14  17
ATOM     17  O   UNL     1     -24.386  85.825   6.535  0.00  0.00    +0.000 OA
ATOM     18  H   UNL     1     -24.367  85.715   7.507  0.00  0.00    +0.000 HD
ENDBRANCH  14  17
BRANCH  16  19
ATOM     19  O   UNL     1     -23.579  83.593   5.258  0.00  0.00    +0.000 OA
ATOM     20  H   UNL     1     -23.513  83.119   6.111  0.00  0.00    +0.000 HD
ENDBRANCH  16  19
ENDBRANCH   2  11
BRANCH   3  21
ATOM     21  O   UNL     1     -19.487  90.005   7.179  0.00  0.00    +0.000 OA
ATOM     22  H   UNL     1     -19.729  90.455   6.344  0.00  0.00    +0.000 HD
ENDBRANCH   3  21
BRANCH   4  23
ATOM     23  O   UNL     1     -19.732  88.703   9.512  0.00  0.00    +0.000 OA
ATOM     24  H   UNL     1     -20.252  89.499   9.262  0.00  0.00    +0.000 HD
ENDBRANCH   4  23
BRANCH   7  25
ATOM     25  O   UNL     1     -17.962  86.985  10.460  0.00  0.00    +0.000 OA
ATOM     26  H   UNL     1     -18.285  86.100  10.740  0.00  0.00    +0.000 HD
ENDBRANCH   7  25
BRANCH  10  27
ATOM     27  O   UNL     1     -14.628  85.665   7.344  0.00  0.00    +0.000 OA
ATOM     28  H   UNL     1     -14.755  84.908   6.749  0.00  0.00    +0.000 HD
ENDBRANCH  10  27
BRANCH   2  29
ATOM     29  O   UNL     1     -20.223  88.981   4.789  0.00  0.00    +0.000 OA
BRANCH  29  31
ATOM     30  O   UNL     1     -19.280  89.207   1.212  0.00  0.00    +0.000 OA
ATOM     31  C   UNL     1     -19.304  89.069   3.682  0.00  0.00    +0.000 C 
ATOM     32  C   UNL     1     -20.123  89.191   2.373  0.00  0.00    +0.000 C 
ATOM     33  C   UNL     1     -18.412  90.311   3.784  0.00  0.00    +0.000 C 
ATOM     34  C   UNL     1     -17.811  90.696   2.460  0.00  0.00    +0.000 A 
ATOM     35  C   UNL     1     -18.270  90.128   1.268  0.00  0.00    +0.000 A 
ATOM     36  C   UNL     1     -16.779  91.640   2.395  0.00  0.00    +0.000 A 
ATOM     37  C   UNL     1     -17.683  90.459   0.045  0.00  0.00    +0.000 A 
ATOM     38  C   UNL     1     -16.196  91.991   1.179  0.00  0.00    +0.000 A 
ATOM     39  C   UNL     1     -16.651  91.390   0.013  0.00  0.00    +0.000 A 
BRANCH  32  40
ATOM     40  C   UNL     1     -21.090  88.024   2.220  0.00  0.00    +0.000 A 
ATOM     41  C   UNL     1     -22.362  88.057   2.814  0.00  0.00    +0.000 A 
ATOM     42  C   UNL     1     -20.746  86.930   1.406  0.00  0.00    +0.000 A 
ATOM     43  C   UNL     1     -23.277  87.040   2.554  0.00  0.00    +0.000 A 
ATOM     44  C   UNL     1     -21.662  85.903   1.165  0.00  0.00    +0.000 A 
ATOM     45  C   UNL     1     -22.932  85.971   1.729  0.00  0.00    +0.000 A 
BRANCH  43  46
ATOM     46  O   UNL     1     -24.547  87.114   3.051  0.00  0.00    +0.000 OA
ATOM     47  H   UNL     1     -24.916  86.218   3.115  0.00  0.00    +0.000 HD
ENDBRANCH  43  46
BRANCH  45  48
ATOM     48  O   UNL     1     -23.863  85.011   1.456  0.00  0.00    +0.000 OA
ATOM     49  H   UNL     1     -24.596  85.091   2.089  0.00  0.00    +0.000 HD
ENDBRANCH  45  48
ENDBRANCH  32  40
BRANCH  36  50
ATOM     50  O   UNL     1     -16.344  92.215   3.556  0.00  0.00    +0.000 OA
ATOM     51  H   UNL     1     -17.115  92.532   4.058  0.00  0.00    +0.000 HD
ENDBRANCH  36  50
BRANCH  39  52
ATOM     52  O   UNL     1     -16.055  91.749  -1.161  0.00  0.00    +0.000 OA
ATOM     53  H   UNL     1     -16.707  91.676  -1.878  0.00  0.00    +0.000 HD
ENDBRANCH  39  52
ENDBRANCH  29  31
ENDBRANCH   2  29
TORSDOF 14
ENDMDL
MODEL 8
REMARK VINA RESULT:      -5.9      2.045      6.227
REMARK  Name = 
REMARK  14 active torsions:
REMARK  status: ('A' for Active; 'I' for Inactive)
REMARK    1  A    between atoms: O_1  and  C_14
REMARK    2  A    between atoms: O_1  and  C_15
REMARK    3  A    between atoms: O_4  and  C_16
REMARK    4  A    between atoms: O_5  and  C_18
REMARK    5  A    between atoms: O_6  and  C_26
REMARK    6  A    between atoms: O_7  and  C_29
REMARK    7  A    between atoms: O_8  and  C_35
REMARK    8  A    between atoms: O_9  and  C_36
REMARK    9  A    between atoms: O_10  and  C_39
REMARK   10  A    between atoms: O_11  and  C_40
REMARK   11  A    between atoms: O_12  and  C_41
REMARK   12  A    between atoms: O_13  and  C_43
REMARK   13  A    between atoms: C_14  and  C_20
REMARK   14  A    between atoms: C_17  and  C_24
REMARK                            x       y       z     vdW  Elec       q    Type
REMARK                         _______ _______ _______ _____ _____    ______ ____
ROOT
ATOM      1  O   UNL     1     -36.192 100.541  16.009  0.00  0.00    +0.000 OA
ATOM      2  C   UNL     1     -35.181 101.346  16.631  0.00  0.00    +0.000 C 
ATOM      3  C   UNL     1     -35.704 102.789  16.906  0.00  0.00    +0.000 C 
ATOM      4  C   UNL     1     -36.219 103.426  15.619  0.00  0.00    +0.000 C 
ATOM      5  C   UNL     1     -37.129 102.493  14.877  0.00  0.00    +0.000 A 
ATOM      6  C   UNL     1     -37.047 101.118  15.112  0.00  0.00    +0.000 A 
ATOM      7  C   UNL     1     -38.042 102.948  13.913  0.00  0.00    +0.000 A 
ATOM      8  C   UNL     1     -37.869 100.228  14.416  0.00  0.00    +0.000 A 
ATOM      9  C   UNL     1     -38.851 102.067  13.200  0.00  0.00    +0.000 A 
ATOM     10  C   UNL     1     -38.759 100.708  13.462  0.00  0.00    +0.000 A 
ENDROOT
BRANCH   2  11
ATOM     11  C   UNL     1     -33.864 101.379  15.832  0.00  0.00    +0.000 A 
ATOM     12  C   UNL     1     -32.815 102.247  16.210  0.00  0.00    +0.000 A 
ATOM     13  C   UNL     1     -33.661 100.540  14.716  0.00  0.00    +0.000 A 
ATOM     14  C   UNL     1     -31.627 102.269  15.485  0.00  0.00    +0.000 A 
ATOM     15  C   UNL     1     -32.469 100.580  13.986  0.00  0.00    +0.000 A 
ATOM     16  C   UNL     1     -31.466 101.450  14.374  0.00  0.00    +0.000 A 
BRANCH  14  17
ATOM     17  O   UNL     1     -30.577 103.075  15.824  0.00  0.00    +0.000 OA
ATOM     18  H   UNL     1     -29.773 102.530  15.946  0.00  0.00    +0.000 HD
ENDBRANCH  14  17
BRANCH  16  19
ATOM     19  O   UNL     1     -30.301 101.487  13.664  0.00  0.00    +0.000 OA
ATOM     20  H   UNL     1     -30.485 100.950  12.866  0.00  0.00    +0.000 HD
ENDBRANCH  16  19
ENDBRANCH   2  11
BRANCH   3  21
ATOM     21  O   UNL     1     -36.780 102.803  17.887  0.00  0.00    +0.000 OA
ATOM     22  H   UNL     1     -36.859 101.874  18.185  0.00  0.00    +0.000 HD
ENDBRANCH   3  21
BRANCH   4  23
ATOM     23  O   UNL     1     -36.929 104.636  15.934  0.00  0.00    +0.000 OA
ATOM     24  H   UNL     1     -36.447 105.333  15.436  0.00  0.00    +0.000 HD
ENDBRANCH   4  23
BRANCH   7  25
ATOM     25  O   UNL     1     -38.195 104.281  13.642  0.00  0.00    +0.000 OA
ATOM     26  H   UNL     1     -37.457 104.542  13.048  0.00  0.00    +0.000 HD
ENDBRANCH   7  25
BRANCH  10  27
ATOM     27  O   UNL     1     -39.534  99.802  12.799  0.00  0.00    +0.000 OA
ATOM     28  H   UNL     1     -40.354  99.671  13.304  0.00  0.00    +0.000 HD
ENDBRANCH  10  27
BRANCH   2  29
ATOM     29  O   UNL     1     -34.942 100.822  17.967  0.00  0.00    +0.000 OA
BRANCH  29  31
ATOM     30  O   UNL     1     -34.482  97.411  19.340  0.00  0.00    +0.000 OA
ATOM     31  C   UNL     1     -35.311  99.451  18.210  0.00  0.00    +0.000 C 
ATOM     32  C   UNL     1     -34.229  98.805  19.112  0.00  0.00    +0.000 C 
ATOM     33  C   UNL     1     -36.649  99.345  18.949  0.00  0.00    +0.000 C 
ATOM     34  C   UNL     1     -36.823  98.018  19.634  0.00  0.00    +0.000 A 
ATOM     35  C   UNL     1     -35.746  97.139  19.786  0.00  0.00    +0.000 A 
ATOM     36  C   UNL     1     -38.071  97.638  20.143  0.00  0.00    +0.000 A 
ATOM     37  C   UNL     1     -35.921  95.891  20.389  0.00  0.00    +0.000 A 
ATOM     38  C   UNL     1     -38.254  96.403  20.761  0.00  0.00    +0.000 A 
ATOM     39  C   UNL     1     -37.175  95.536  20.873  0.00  0.00    +0.000 A 
BRANCH  32  40
ATOM     40  C   UNL     1     -32.847  98.922  18.483  0.00  0.00    +0.000 A 
ATOM     41  C   UNL     1     -32.504  98.170  17.348  0.00  0.00    +0.000 A 
ATOM     42  C   UNL     1     -31.923  99.854  18.988  0.00  0.00    +0.000 A 
ATOM     43  C   UNL     1     -31.283  98.387  16.713  0.00  0.00    +0.000 A 
ATOM     44  C   UNL     1     -30.693 100.054  18.358  0.00  0.00    +0.000 A 
ATOM     45  C   UNL     1     -30.385  99.329  17.211  0.00  0.00    +0.000 A 
BRANCH  43  46
ATOM     46  O   UNL     1     -30.984  97.728  15.555  0.00  0.00    +0.000 OA
ATOM     47  H   UNL     1     -30.061  97.914  15.313  0.00  0.00    +0.000 HD
ENDBRANCH  43  46
BRANCH  45  48
ATOM     48  O   UNL     1     -29.215  99.553  16.543  0.00  0.00    +0.000 OA
ATOM     49  H   UNL     1     -28.893  98.713  16.176  0.00  0.00    +0.000 HD
ENDBRANCH  45  48
ENDBRANCH  32  40
BRANCH  36  50
ATOM     50  O   UNL     1     -39.119  98.506  20.019  0.00  0.00    +0.000 OA
ATOM     51  H   UNL     1     -39.890  98.137  20.483  0.00  0.00    +0.000 HD
ENDBRANCH  36  50
BRANCH  39  52
ATOM     52  O   UNL     1     -37.388  94.331  21.476  0.00  0.00    +0.000 OA
ATOM     53  H   UNL     1     -36.763  93.683  21.109  0.00  0.00    +0.000 HD
ENDBRANCH  39  52
ENDBRANCH  29  31
ENDBRANCH   2  29
TORSDOF 14
ENDMDL
MODEL 9
REMARK VINA RESULT:      -5.9     16.063     19.314
REMARK  Name = 
REMARK  14 active torsions:
REMARK  status: ('A' for Active; 'I' for Inactive)
REMARK    1  A    between atoms: O_1  and  C_14
REMARK    2  A    between atoms: O_1  and  C_15
REMARK    3  A    between atoms: O_4  and  C_16
REMARK    4  A    between atoms: O_5  and  C_18
REMARK    5  A    between atoms: O_6  and  C_26
REMARK    6  A    between atoms: O_7  and  C_29
REMARK    7  A    between atoms: O_8  and  C_35
REMARK    8  A    between atoms: O_9  and  C_36
REMARK    9  A    between atoms: O_10  and  C_39
REMARK   10  A    between atoms: O_11  and  C_40
REMARK   11  A    between atoms: O_12  and  C_41
REMARK   12  A    between atoms: O_13  and  C_43
REMARK   13  A    between atoms: C_14  and  C_20
REMARK   14  A    between atoms: C_17  and  C_24
REMARK                            x       y       z     vdW  Elec       q    Type
REMARK                         _______ _______ _______ _____ _____    ______ ____
ROOT
ATOM      1  O   UNL     1     -16.699  92.498  19.047  0.00  0.00    +0.000 OA
ATOM      2  C   UNL     1     -16.907  91.096  19.272  0.00  0.00    +0.000 C 
ATOM      3  C   UNL     1     -15.653  90.269  18.855  0.00  0.00    +0.000 C 
ATOM      4  C   UNL     1     -15.280  90.558  17.404  0.00  0.00    +0.000 C 
ATOM      5  C   UNL     1     -15.255  92.033  17.132  0.00  0.00    +0.000 A 
ATOM      6  C   UNL     1     -15.972  92.899  17.962  0.00  0.00    +0.000 A 
ATOM      7  C   UNL     1     -14.565  92.581  16.040  0.00  0.00    +0.000 A 
ATOM      8  C   UNL     1     -15.982  94.274  17.714  0.00  0.00    +0.000 A 
ATOM      9  C   UNL     1     -14.585  93.947  15.773  0.00  0.00    +0.000 A 
ATOM     10  C   UNL     1     -15.294  94.786  16.621  0.00  0.00    +0.000 A 
ENDROOT
BRANCH   2  11
ATOM     11  C   UNL     1     -18.177  90.559  18.583  0.00  0.00    +0.000 A 
ATOM     12  C   UNL     1     -19.186  91.445  18.144  0.00  0.00    +0.000 A 
ATOM     13  C   UNL     1     -18.362  89.179  18.358  0.00  0.00    +0.000 A 
ATOM     14  C   UNL     1     -20.329  90.953  17.521  0.00  0.00    +0.000 A 
ATOM     15  C   UNL     1     -19.521  88.694  17.744  0.00  0.00    +0.000 A 
ATOM     16  C   UNL     1     -20.496  89.586  17.337  0.00  0.00    +0.000 A 
BRANCH  14  17
ATOM     17  O   UNL     1     -21.322  91.771  17.060  0.00  0.00    +0.000 OA
ATOM     18  H   UNL     1     -21.625  92.356  17.783  0.00  0.00    +0.000 HD
ENDBRANCH  14  17
BRANCH  16  19
ATOM     19  O   UNL     1     -21.626  89.113  16.734  0.00  0.00    +0.000 OA
ATOM     20  H   UNL     1     -21.295  88.519  16.030  0.00  0.00    +0.000 HD
ENDBRANCH  16  19
ENDBRANCH   2  11
BRANCH   3  21
ATOM     21  O   UNL     1     -14.500  90.565  19.692  0.00  0.00    +0.000 OA
ATOM     22  H   UNL     1     -14.792  91.297  20.272  0.00  0.00    +0.000 HD
ENDBRANCH   3  21
BRANCH   4  23
ATOM     23  O   UNL     1     -13.987  89.998  17.121  0.00  0.00    +0.000 OA
ATOM     24  H   UNL     1     -13.408  90.784  16.995  0.00  0.00    +0.000 HD
ENDBRANCH   4  23
BRANCH   7  25
ATOM     25  O   UNL     1     -13.823  91.800  15.195  0.00  0.00    +0.000 OA
ATOM     26  H   UNL     1     -12.878  92.012  15.360  0.00  0.00    +0.000 HD
ENDBRANCH   7  25
BRANCH  10  27
ATOM     27  O   UNL     1     -15.341  96.133  16.411  0.00  0.00    +0.000 OA
ATOM     28  H   UNL     1     -15.911  96.305  15.643  0.00  0.00    +0.000 HD
ENDBRANCH  10  27
BRANCH   2  29
ATOM     29  O   UNL     1     -16.985  90.873  20.708  0.00  0.00    +0.000 OA
BRANCH  29  31
ATOM     30  O   UNL     1     -18.598  92.730  23.479  0.00  0.00    +0.000 OA
ATOM     31  C   UNL     1     -17.237  92.024  21.538  0.00  0.00    +0.000 C 
ATOM     32  C   UNL     1     -18.234  91.617  22.651  0.00  0.00    +0.000 C 
ATOM     33  C   UNL     1     -15.959  92.519  22.223  0.00  0.00    +0.000 C 
ATOM     34  C   UNL     1     -16.248  93.367  23.431  0.00  0.00    +0.000 A 
ATOM     35  C   UNL     1     -17.532  93.425  23.980  0.00  0.00    +0.000 A 
ATOM     36  C   UNL     1     -15.229  94.113  24.037  0.00  0.00    +0.000 A 
ATOM     37  C   UNL     1     -17.805  94.244  25.079  0.00  0.00    +0.000 A 
ATOM     38  C   UNL     1     -15.484  94.921  25.143  0.00  0.00    +0.000 A 
ATOM     39  C   UNL     1     -16.776  94.983  25.651  0.00  0.00    +0.000 A 
BRANCH  32  40
ATOM     40  C   UNL     1     -19.517  91.048  22.059  0.00  0.00    +0.000 A 
ATOM     41  C   UNL     1     -20.441  91.879  21.406  0.00  0.00    +0.000 A 
ATOM     42  C   UNL     1     -19.749  89.661  22.088  0.00  0.00    +0.000 A 
ATOM     43  C   UNL     1     -21.542  91.322  20.760  0.00  0.00    +0.000 A 
ATOM     44  C   UNL     1     -20.865  89.110  21.454  0.00  0.00    +0.000 A 
ATOM     45  C   UNL     1     -21.750  89.944  20.778  0.00  0.00    +0.000 A 
BRANCH  43  46
ATOM     46  O   UNL     1     -22.392  92.114  20.043  0.00  0.00    +0.000 OA
ATOM     47  H   UNL     1     -23.082  92.459  20.635  0.00  0.00    +0.000 HD
ENDBRANCH  43  46
BRANCH  45  48
ATOM     48  O   UNL     1     -22.813  89.421  20.099  0.00  0.00    +0.000 OA
ATOM     49  H   UNL     1     -23.636  89.753  20.492  0.00  0.00    +0.000 HD
ENDBRANCH  45  48
ENDBRANCH  32  40
BRANCH  36  50
ATOM     50  O   UNL     1     -13.967  94.038  23.518  0.00  0.00    +0.000 OA
ATOM     51  H   UNL     1     -13.854  93.174  23.087  0.00  0.00    +0.000 HD
ENDBRANCH  36  50
BRANCH  39  52
ATOM     52  O   UNL     1     -16.995  95.789  26.730  0.00  0.00    +0.000 OA
ATOM     53  H   UNL     1     -16.885  96.716  26.455  0.00  0.00    +0.000 HD
ENDBRANCH  39  52
ENDBRANCH  29  31
ENDBRANCH   2  29
TORSDOF 14
ENDMDL
