MODEL 1
REMARK VINA RESULT:      -6.5      0.000      0.000
REMARK  Name = Progesterone.pdbqt.pdb
REMARK  1 active torsions:
REMARK  status: ('A' for Active; 'I' for Inactive)
REMARK    1  A    between atoms: C_7  and  C_21
REMARK                            x       y       z     vdW  Elec       q    Type
REMARK                         _______ _______ _______ _____ _____    ______ ____
ROOT
ATOM      1  O   UNL     1     -39.794 101.061  17.321  0.00  0.00    +0.000 OA
ATOM      2  C   UNL     1     -32.688  99.777  14.777  0.00  0.00    +0.000 C 
ATOM      3  C   UNL     1     -31.406  99.760  15.775  0.00  0.00    +0.000 C 
ATOM      4  C   UNL     1     -34.052  99.446  15.235  0.00  0.00    +0.000 C 
ATOM      5  C   UNL     1     -34.500  99.321  16.665  0.00  0.00    +0.000 C 
ATOM      6  C   UNL     1     -35.910  98.857  17.090  0.00  0.00    +0.000 C 
ATOM      7  C   UNL     1     -30.656 100.997  15.377  0.00  0.00    +0.000 C 
ATOM      8  C   UNL     1     -31.997  99.793  17.113  0.00  0.00    +0.000 C 
ATOM      9  C   UNL     1     -33.421  99.568  17.558  0.00  0.00    +0.000 C 
ATOM     10  C   UNL     1     -32.480 100.836  13.838  0.00  0.00    +0.000 C 
ATOM     11  C   UNL     1     -35.127  99.351  14.321  0.00  0.00    +0.000 C 
ATOM     12  C   UNL     1     -31.243 101.601  14.229  0.00  0.00    +0.000 C 
ATOM     13  C   UNL     1     -37.082  99.018  15.930  0.00  0.00    +0.000 C 
ATOM     14  C   UNL     1     -30.609  98.475  15.449  0.00  0.00    +0.000 C 
ATOM     15  C   UNL     1     -36.584  99.148  14.610  0.00  0.00    +0.000 C 
ATOM     16  C   UNL     1     -36.428  99.718  18.205  0.00  0.00    +0.000 C 
ATOM     17  C   UNL     1     -35.871  97.358  17.489  0.00  0.00    +0.000 C 
ATOM     18  C   UNL     1     -37.749 100.495  18.403  0.00  0.00    +0.000 C 
ATOM     19  C   UNL     1     -38.171  99.686  16.246  0.00  0.00    +0.000 C 
ATOM     20  C   UNL     1     -38.728 100.478  17.333  0.00  0.00    +0.000 C 
ENDROOT
BRANCH   7  21
ATOM     21  C   UNL     1     -29.472 101.472  16.048  0.00  0.00    +0.000 C 
ATOM     22  O   UNL     1     -29.454 102.041  17.127  0.00  0.00    +0.000 OA
ATOM     23  C   UNL     1     -28.083 101.243  15.550  0.00  0.00    +0.000 C 
ENDBRANCH   7  21
TORSDOF 1
ENDMDL
MODEL 2
REMARK VINA RESULT:      -6.4     12.212     14.964
REMARK  Name = Progesterone.pdbqt.pdb
REMARK  1 active torsions:
REMARK  status: ('A' for Active; 'I' for Inactive)
REMARK    1  A    between atoms: C_7  and  C_21
REMARK                            x       y       z     vdW  Elec       q    Type
REMARK                         _______ _______ _______ _____ _____    ______ ____
ROOT
ATOM      1  O   UNL     1     -27.927  85.058   9.865  0.00  0.00    +0.000 OA
ATOM      2  C   UNL     1     -28.997  88.637  16.549  0.00  0.00    +0.000 C 
ATOM      3  C   UNL     1     -30.082  88.117  17.639  0.00  0.00    +0.000 C 
ATOM      4  C   UNL     1     -28.356  87.731  15.575  0.00  0.00    +0.000 C 
ATOM      5  C   UNL     1     -28.780  86.322  15.265  0.00  0.00    +0.000 C 
ATOM      6  C   UNL     1     -28.003  85.373  14.325  0.00  0.00    +0.000 C 
ATOM      7  C   UNL     1     -31.129  89.191  17.608  0.00  0.00    +0.000 C 
ATOM      8  C   UNL     1     -30.509  86.816  17.123  0.00  0.00    +0.000 C 
ATOM      9  C   UNL     1     -29.910  85.949  16.043  0.00  0.00    +0.000 C 
ATOM     10  C   UNL     1     -29.390  89.955  16.155  0.00  0.00    +0.000 C 
ATOM     11  C   UNL     1     -27.327  88.187  14.719  0.00  0.00    +0.000 C 
ATOM     12  C   UNL     1     -30.717  90.279  16.787  0.00  0.00    +0.000 C 
ATOM     13  C   UNL     1     -26.992  86.126  13.249  0.00  0.00    +0.000 C 
ATOM     14  C   UNL     1     -29.351  88.067  19.001  0.00  0.00    +0.000 C 
ATOM     15  C   UNL     1     -26.650  87.456  13.599  0.00  0.00    +0.000 C 
ATOM     16  C   UNL     1     -28.953  84.638  13.426  0.00  0.00    +0.000 C 
ATOM     17  C   UNL     1     -27.131  84.401  15.163  0.00  0.00    +0.000 C 
ATOM     18  C   UNL     1     -29.008  84.439  11.895  0.00  0.00    +0.000 C 
ATOM     19  C   UNL     1     -27.134  85.841  11.972  0.00  0.00    +0.000 C 
ATOM     20  C   UNL     1     -28.002  85.089  11.078  0.00  0.00    +0.000 C 
ENDROOT
BRANCH   7  21
ATOM     21  C   UNL     1     -32.363  89.136  18.352  0.00  0.00    +0.000 C 
ATOM     22  O   UNL     1     -32.545  89.633  19.451  0.00  0.00    +0.000 OA
ATOM     23  C   UNL     1     -33.626  88.536  17.829  0.00  0.00    +0.000 C 
ENDBRANCH   7  21
TORSDOF 1
ENDMDL
MODEL 3
REMARK VINA RESULT:      -5.9     13.141     14.590
REMARK  Name = Progesterone.pdbqt.pdb
REMARK  1 active torsions:
REMARK  status: ('A' for Active; 'I' for Inactive)
REMARK    1  A    between atoms: C_7  and  C_21
REMARK                            x       y       z     vdW  Elec       q    Type
REMARK                         _______ _______ _______ _____ _____    ______ ____
ROOT
ATOM      1  O   UNL     1     -45.805 103.737   3.909  0.00  0.00    +0.000 OA
ATOM      2  C   UNL     1     -38.396 103.431   2.004  0.00  0.00    +0.000 C 
ATOM      3  C   UNL     1     -37.218 103.471   3.121  0.00  0.00    +0.000 C 
ATOM      4  C   UNL     1     -39.749 102.921   2.298  0.00  0.00    +0.000 C 
ATOM      5  C   UNL     1     -40.309 102.633   3.664  0.00  0.00    +0.000 C 
ATOM      6  C   UNL     1     -41.690 101.987   3.912  0.00  0.00    +0.000 C 
ATOM      7  C   UNL     1     -36.581 104.809   2.888  0.00  0.00    +0.000 C 
ATOM      8  C   UNL     1     -37.929 103.332   4.392  0.00  0.00    +0.000 C 
ATOM      9  C   UNL     1     -39.352 102.921   4.675  0.00  0.00    +0.000 C 
ATOM     10  C   UNL     1     -38.225 104.580   1.167  0.00  0.00    +0.000 C 
ATOM     11  C   UNL     1     -40.718 102.785   1.277  0.00  0.00    +0.000 C 
ATOM     12  C   UNL     1     -37.125 105.438   1.733  0.00  0.00    +0.000 C 
ATOM     13  C   UNL     1     -42.761 102.116   2.655  0.00  0.00    +0.000 C 
ATOM     14  C   UNL     1     -36.253 102.309   2.787  0.00  0.00    +0.000 C 
ATOM     15  C   UNL     1     -42.163 102.406   1.404  0.00  0.00    +0.000 C 
ATOM     16  C   UNL     1     -42.403 102.694   5.027  0.00  0.00    +0.000 C 
ATOM     17  C   UNL     1     -41.517 100.474   4.207  0.00  0.00    +0.000 C 
ATOM     18  C   UNL     1     -43.817 103.308   5.147  0.00  0.00    +0.000 C 
ATOM     19  C   UNL     1     -43.944 102.636   2.907  0.00  0.00    +0.000 C 
ATOM     20  C   UNL     1     -44.685 103.272   3.986  0.00  0.00    +0.000 C 
ENDROOT
BRANCH   7  21
ATOM     21  C   UNL     1     -35.525 105.352   3.706  0.00  0.00    +0.000 C 
ATOM     22  O   UNL     1     -34.336 105.317   3.436  0.00  0.00    +0.000 OA
ATOM     23  C   UNL     1     -35.757 106.124   4.964  0.00  0.00    +0.000 C 
ENDBRANCH   7  21
TORSDOF 1
ENDMDL
MODEL 4
REMARK VINA RESULT:      -5.8     14.439     16.255
REMARK  Name = Progesterone.pdbqt.pdb
REMARK  1 active torsions:
REMARK  status: ('A' for Active; 'I' for Inactive)
REMARK    1  A    between atoms: C_7  and  C_21
REMARK                            x       y       z     vdW  Elec       q    Type
REMARK                         _______ _______ _______ _____ _____    ______ ____
ROOT
ATOM      1  O   UNL     1     -24.413 104.562   0.422  0.00  0.00    +0.000 OA
ATOM      2  C   UNL     1     -21.208 101.056   6.426  0.00  0.00    +0.000 C 
ATOM      3  C   UNL     1     -21.773 101.246   7.937  0.00  0.00    +0.000 C 
ATOM      4  C   UNL     1     -22.066 101.206   5.234  0.00  0.00    +0.000 C 
ATOM      5  C   UNL     1     -23.448 101.797   5.208  0.00  0.00    +0.000 C 
ATOM      6  C   UNL     1     -24.353 101.823   3.956  0.00  0.00    +0.000 C 
ATOM      7  C   UNL     1     -20.684 102.031   8.605  0.00  0.00    +0.000 C 
ATOM      8  C   UNL     1     -23.036 101.962   7.755  0.00  0.00    +0.000 C 
ATOM      9  C   UNL     1     -23.848 102.210   6.509  0.00  0.00    +0.000 C 
ATOM     10  C   UNL     1     -19.863 101.546   6.412  0.00  0.00    +0.000 C 
ATOM     11  C   UNL     1     -21.577 100.917   3.940  0.00  0.00    +0.000 C 
ATOM     12  C   UNL     1     -19.557 102.171   7.747  0.00  0.00    +0.000 C 
ATOM     13  C   UNL     1     -23.555 101.670   2.512  0.00  0.00    +0.000 C 
ATOM     14  C   UNL     1     -21.911  99.828   8.538  0.00  0.00    +0.000 C 
ATOM     15  C   UNL     1     -22.252 101.123   2.617  0.00  0.00    +0.000 C 
ATOM     16  C   UNL     1     -25.022 103.160   3.824  0.00  0.00    +0.000 C 
ATOM     17  C   UNL     1     -25.384 100.666   4.029  0.00  0.00    +0.000 C 
ATOM     18  C   UNL     1     -25.131 104.168   2.658  0.00  0.00    +0.000 C 
ATOM     19  C   UNL     1     -23.764 102.592   1.595  0.00  0.00    +0.000 C 
ATOM     20  C   UNL     1     -24.451 103.862   1.415  0.00  0.00    +0.000 C 
ENDROOT
BRANCH   7  21
ATOM     21  C   UNL     1     -20.763 102.531   9.956  0.00  0.00    +0.000 C 
ATOM     22  O   UNL     1     -20.524 101.883  10.961  0.00  0.00    +0.000 OA
ATOM     23  C   UNL     1     -21.061 103.953  10.302  0.00  0.00    +0.000 C 
ENDBRANCH   7  21
TORSDOF 1
ENDMDL
MODEL 5
REMARK VINA RESULT:      -5.5     14.157     15.890
REMARK  Name = Progesterone.pdbqt.pdb
REMARK  1 active torsions:
REMARK  status: ('A' for Active; 'I' for Inactive)
REMARK    1  A    between atoms: C_7  and  C_21
REMARK                            x       y       z     vdW  Elec       q    Type
REMARK                         _______ _______ _______ _____ _____    ______ ____
ROOT
ATOM      1  O   UNL     1     -25.505  99.803   4.301  0.00  0.00    +0.000 OA
ATOM      2  C   UNL     1     -24.816 107.319   5.586  0.00  0.00    +0.000 C 
ATOM      3  C   UNL     1     -23.984 107.903   6.852  0.00  0.00    +0.000 C 
ATOM      4  C   UNL     1     -24.517 106.008   4.979  0.00  0.00    +0.000 C 
ATOM      5  C   UNL     1     -23.636 104.940   5.566  0.00  0.00    +0.000 C 
ATOM      6  C   UNL     1     -23.259 103.632   4.835  0.00  0.00    +0.000 C 
ATOM      7  C   UNL     1     -25.059 108.486   7.720  0.00  0.00    +0.000 C 
ATOM      8  C   UNL     1     -23.306 106.730   7.404  0.00  0.00    +0.000 C 
ATOM      9  C   UNL     1     -23.107 105.353   6.820  0.00  0.00    +0.000 C 
ATOM     10  C   UNL     1     -26.172 107.751   5.736  0.00  0.00    +0.000 C 
ATOM     11  C   UNL     1     -25.177 105.578   3.804  0.00  0.00    +0.000 C 
ATOM     12  C   UNL     1     -26.322 108.444   7.064  0.00  0.00    +0.000 C 
ATOM     13  C   UNL     1     -24.284 103.194   3.610  0.00  0.00    +0.000 C 
ATOM     14  C   UNL     1     -23.041 108.995   6.295  0.00  0.00    +0.000 C 
ATOM     15  C   UNL     1     -25.095 104.247   3.119  0.00  0.00    +0.000 C 
ATOM     16  C   UNL     1     -23.349 102.466   5.775  0.00  0.00    +0.000 C 
ATOM     17  C   UNL     1     -21.843 103.767   4.216  0.00  0.00    +0.000 C 
ATOM     18  C   UNL     1     -24.063 101.098   5.684  0.00  0.00    +0.000 C 
ATOM     19  C   UNL     1     -24.802 101.984   3.646  0.00  0.00    +0.000 C 
ATOM     20  C   UNL     1     -24.860 100.812   4.508  0.00  0.00    +0.000 C 
ENDROOT
BRANCH   7  21
ATOM     21  C   UNL     1     -24.823 109.053   9.026  0.00  0.00    +0.000 C 
ATOM     22  O   UNL     1     -24.447 110.193   9.240  0.00  0.00    +0.000 OA
ATOM     23  C   UNL     1     -25.102 108.339  10.307  0.00  0.00    +0.000 C 
ENDBRANCH   7  21
TORSDOF 1
ENDMDL
MODEL 6
REMARK VINA RESULT:      -5.5     15.183     17.631
REMARK  Name = Progesterone.pdbqt.pdb
REMARK  1 active torsions:
REMARK  status: ('A' for Active; 'I' for Inactive)
REMARK    1  A    between atoms: C_7  and  C_21
REMARK                            x       y       z     vdW  Elec       q    Type
REMARK                         _______ _______ _______ _____ _____    ______ ____
ROOT
ATOM      1  O   UNL     1     -15.810  99.120   8.134  0.00  0.00    +0.000 OA
ATOM      2  C   UNL     1     -22.967 101.064   6.233  0.00  0.00    +0.000 C 
ATOM      3  C   UNL     1     -23.415 101.295   4.689  0.00  0.00    +0.000 C 
ATOM      4  C   UNL     1     -21.851 100.174   6.609  0.00  0.00    +0.000 C 
ATOM      5  C   UNL     1     -20.830  99.590   5.672  0.00  0.00    +0.000 C 
ATOM      6  C   UNL     1     -19.752  98.569   6.097  0.00  0.00    +0.000 C 
ATOM      7  C   UNL     1     -23.662 102.774   4.631  0.00  0.00    +0.000 C 
ATOM      8  C   UNL     1     -22.268 100.824   3.913  0.00  0.00    +0.000 C 
ATOM      9  C   UNL     1     -21.070 100.010   4.335  0.00  0.00    +0.000 C 
ATOM     10  C   UNL     1     -23.163 102.303   6.921  0.00  0.00    +0.000 C 
ATOM     11  C   UNL     1     -21.561  99.897   7.965  0.00  0.00    +0.000 C 
ATOM     12  C   UNL     1     -23.563 103.358   5.925  0.00  0.00    +0.000 C 
ATOM     13  C   UNL     1     -19.410  98.544   7.718  0.00  0.00    +0.000 C 
ATOM     14  C   UNL     1     -24.716 100.487   4.481  0.00  0.00    +0.000 C 
ATOM     15  C   UNL     1     -20.409  99.126   8.536  0.00  0.00    +0.000 C 
ATOM     16  C   UNL     1     -18.428  98.922   5.486  0.00  0.00    +0.000 C 
ATOM     17  C   UNL     1     -20.204  97.136   5.707  0.00  0.00    +0.000 C 
ATOM     18  C   UNL     1     -17.014  99.110   6.080  0.00  0.00    +0.000 C 
ATOM     19  C   UNL     1     -18.153  98.689   8.082  0.00  0.00    +0.000 C 
ATOM     20  C   UNL     1     -16.844  98.972   7.513  0.00  0.00    +0.000 C 
ENDROOT
BRANCH   7  21
ATOM     21  C   UNL     1     -23.999 103.487   3.423  0.00  0.00    +0.000 C 
ATOM     22  O   UNL     1     -23.317 103.524   2.413  0.00  0.00    +0.000 OA
ATOM     23  C   UNL     1     -25.291 104.206   3.214  0.00  0.00    +0.000 C 
ENDBRANCH   7  21
TORSDOF 1
ENDMDL
MODEL 7
REMARK VINA RESULT:      -5.3      3.700      6.844
REMARK  Name = Progesterone.pdbqt.pdb
REMARK  1 active torsions:
REMARK  status: ('A' for Active; 'I' for Inactive)
REMARK    1  A    between atoms: C_7  and  C_21
REMARK                            x       y       z     vdW  Elec       q    Type
REMARK                         _______ _______ _______ _____ _____    ______ ____
ROOT
ATOM      1  O   UNL     1     -28.424 105.632  16.577  0.00  0.00    +0.000 OA
ATOM      2  C   UNL     1     -30.932  98.460  17.520  0.00  0.00    +0.000 C 
ATOM      3  C   UNL     1     -32.341  98.130  18.257  0.00  0.00    +0.000 C 
ATOM      4  C   UNL     1     -30.683  99.735  16.821  0.00  0.00    +0.000 C 
ATOM      5  C   UNL     1     -31.534 100.973  16.907  0.00  0.00    +0.000 C 
ATOM      6  C   UNL     1     -31.296 102.244  16.061  0.00  0.00    +0.000 C 
ATOM      7  C   UNL     1     -31.906  97.484  19.539  0.00  0.00    +0.000 C 
ATOM      8  C   UNL     1     -32.979  99.439  18.405  0.00  0.00    +0.000 C 
ATOM      9  C   UNL     1     -32.643 100.766  17.772  0.00  0.00    +0.000 C 
ATOM     10  C   UNL     1     -29.896  97.850  18.297  0.00  0.00    +0.000 C 
ATOM     11  C   UNL     1     -29.494  99.947  16.086  0.00  0.00    +0.000 C 
ATOM     12  C   UNL     1     -30.498  97.276  19.551  0.00  0.00    +0.000 C 
ATOM     13  C   UNL     1     -29.764 102.406  15.453  0.00  0.00    +0.000 C 
ATOM     14  C   UNL     1     -33.097  97.139  17.342  0.00  0.00    +0.000 C 
ATOM     15  C   UNL     1     -29.017 101.202  15.419  0.00  0.00    +0.000 C 
ATOM     16  C   UNL     1     -31.446 103.471  16.912  0.00  0.00    +0.000 C 
ATOM     17  C   UNL     1     -32.268 102.259  14.852  0.00  0.00    +0.000 C 
ATOM     18  C   UNL     1     -30.543 104.703  17.144  0.00  0.00    +0.000 C 
ATOM     19  C   UNL     1     -29.118 103.525  15.707  0.00  0.00    +0.000 C 
ATOM     20  C   UNL     1     -29.258 104.753  16.474  0.00  0.00    +0.000 C 
ENDROOT
BRANCH   7  21
ATOM     21  C   UNL     1     -32.811  97.088  20.590  0.00  0.00    +0.000 C 
ATOM     22  O   UNL     1     -33.328  95.989  20.697  0.00  0.00    +0.000 OA
ATOM     23  C   UNL     1     -33.165  97.953  21.755  0.00  0.00    +0.000 C 
ENDBRANCH   7  21
TORSDOF 1
ENDMDL
MODEL 8
REMARK VINA RESULT:      -4.9     25.477     27.525
REMARK  Name = Progesterone.pdbqt.pdb
REMARK  1 active torsions:
REMARK  status: ('A' for Active; 'I' for Inactive)
REMARK    1  A    between atoms: C_7  and  C_21
REMARK                            x       y       z     vdW  Elec       q    Type
REMARK                         _______ _______ _______ _____ _____    ______ ____
ROOT
ATOM      1  O   UNL     1     -34.805  88.473 -14.256  0.00  0.00    +0.000 OA
ATOM      2  C   UNL     1     -36.579  89.920  -6.950  0.00  0.00    +0.000 C 
ATOM      3  C   UNL     1     -35.906  89.098  -5.722  0.00  0.00    +0.000 C 
ATOM      4  C   UNL     1     -35.901  90.099  -8.249  0.00  0.00    +0.000 C 
ATOM      5  C   UNL     1     -34.677  89.363  -8.718  0.00  0.00    +0.000 C 
ATOM      6  C   UNL     1     -33.935  89.672 -10.037  0.00  0.00    +0.000 C 
ATOM      7  C   UNL     1     -37.053  88.291  -5.190  0.00  0.00    +0.000 C 
ATOM      8  C   UNL     1     -34.839  88.323  -6.356  0.00  0.00    +0.000 C 
ATOM      9  C   UNL     1     -34.232  88.440  -7.732  0.00  0.00    +0.000 C 
ATOM     10  C   UNL     1     -37.988  89.675  -6.901  0.00  0.00    +0.000 C 
ATOM     11  C   UNL     1     -36.458  90.920  -9.257  0.00  0.00    +0.000 C 
ATOM     12  C   UNL     1     -38.270  88.650  -5.835  0.00  0.00    +0.000 C 
ATOM     13  C   UNL     1     -34.836  90.469 -11.177  0.00  0.00    +0.000 C 
ATOM     14  C   UNL     1     -35.421  90.152  -4.699  0.00  0.00    +0.000 C 
ATOM     15  C   UNL     1     -35.983  91.124 -10.664  0.00  0.00    +0.000 C 
ATOM     16  C   UNL     1     -33.567  88.398 -10.739  0.00  0.00    +0.000 C 
ATOM     17  C   UNL     1     -32.691  90.552  -9.746  0.00  0.00    +0.000 C 
ATOM     18  C   UNL     1     -33.787  87.894 -12.183  0.00  0.00    +0.000 C 
ATOM     19  C   UNL     1     -34.916  89.936 -12.378  0.00  0.00    +0.000 C 
ATOM     20  C   UNL     1     -34.521  88.738 -13.104  0.00  0.00    +0.000 C 
ENDROOT
BRANCH   7  21
ATOM     21  C   UNL     1     -36.931  87.317  -4.133  0.00  0.00    +0.000 C 
ATOM     22  O   UNL     1     -35.912  87.084  -3.505  0.00  0.00    +0.000 OA
ATOM     23  C   UNL     1     -38.076  86.523  -3.596  0.00  0.00    +0.000 C 
ENDBRANCH   7  21
TORSDOF 1
ENDMDL
MODEL 9
REMARK VINA RESULT:      -4.9     15.941     18.550
REMARK  Name = Progesterone.pdbqt.pdb
REMARK  1 active torsions:
REMARK  status: ('A' for Active; 'I' for Inactive)
REMARK    1  A    between atoms: C_7  and  C_21
REMARK                            x       y       z     vdW  Elec       q    Type
REMARK                         _______ _______ _______ _____ _____    ______ ____
ROOT
ATOM      1  O   UNL     1     -19.540 107.411   7.765  0.00  0.00    +0.000 OA
ATOM      2  C   UNL     1     -24.067 103.475   3.008  0.00  0.00    +0.000 C 
ATOM      3  C   UNL     1     -23.537 102.920   1.577  0.00  0.00    +0.000 C 
ATOM      4  C   UNL     1     -23.164 103.702   4.153  0.00  0.00    +0.000 C 
ATOM      5  C   UNL     1     -21.661 103.725   4.104  0.00  0.00    +0.000 C 
ATOM      6  C   UNL     1     -20.759 103.849   5.352  0.00  0.00    +0.000 C 
ATOM      7  C   UNL     1     -24.287 103.767   0.591  0.00  0.00    +0.000 C 
ATOM      8  C   UNL     1     -22.092 103.148   1.621  0.00  0.00    +0.000 C 
ATOM      9  C   UNL     1     -21.193 103.496   2.781  0.00  0.00    +0.000 C 
ATOM     10  C   UNL     1     -25.134 104.390   2.739  0.00  0.00    +0.000 C 
ATOM     11  C   UNL     1     -23.669 104.069   5.422  0.00  0.00    +0.000 C 
ATOM     12  C   UNL     1     -25.245 104.587   1.251  0.00  0.00    +0.000 C 
ATOM     13  C   UNL     1     -21.494 104.497   6.688  0.00  0.00    +0.000 C 
ATOM     14  C   UNL     1     -23.957 101.435   1.495  0.00  0.00    +0.000 C 
ATOM     15  C   UNL     1     -22.909 104.456   6.655  0.00  0.00    +0.000 C 
ATOM     16  C   UNL     1     -19.638 104.813   5.091  0.00  0.00    +0.000 C 
ATOM     17  C   UNL     1     -20.231 102.448   5.759  0.00  0.00    +0.000 C 
ATOM     18  C   UNL     1     -19.115 106.047   5.861  0.00  0.00    +0.000 C 
ATOM     19  C   UNL     1     -20.920 105.535   7.261  0.00  0.00    +0.000 C 
ATOM     20  C   UNL     1     -19.806 106.451   7.069  0.00  0.00    +0.000 C 
ENDROOT
BRANCH   7  21
ATOM     21  C   UNL     1     -24.086 103.711  -0.836  0.00  0.00    +0.000 C 
ATOM     22  O   UNL     1     -23.473 102.838  -1.427  0.00  0.00    +0.000 OA
ATOM     23  C   UNL     1     -24.691 104.677  -1.801  0.00  0.00    +0.000 C 
ENDBRANCH   7  21
TORSDOF 1
ENDMDL
