MODEL 1
REMARK VINA RESULT:      -6.9      0.000      0.000
REMARK  Name = Quercetin.pdbqt.pdb
REMARK  6 active torsions:
REMARK  status: ('A' for Active; 'I' for Inactive)
REMARK    1  A    between atoms: C_5  and  C_12
REMARK    2  A    between atoms: C_6  and  O_22
REMARK    3  A    between atoms: C_8  and  O_24
REMARK    4  A    between atoms: C_10  and  O_26
REMARK    5  A    between atoms: C_15  and  O_18
REMARK    6  A    between atoms: C_17  and  O_20
REMARK                            x       y       z     vdW  Elec       q    Type
REMARK                         _______ _______ _______ _____ _____    ______ ____
ROOT
ATOM      1  O   UNL     1     -34.207  99.080  15.346  0.00  0.00    +0.000 OA
ATOM      2  O   UNL     1     -31.268 101.310  13.638  0.00  0.00    +0.000 OA
ATOM      3  C   UNL     1     -31.859  99.663  15.178  0.00  0.00    +0.000 A 
ATOM      4  C   UNL     1     -32.903  98.930  15.732  0.00  0.00    +0.000 A 
ATOM      5  C   UNL     1     -34.509  99.992  14.345  0.00  0.00    +0.000 A 
ATOM      6  C   UNL     1     -33.601 100.779  13.728  0.00  0.00    +0.000 A 
ATOM      7  C   UNL     1     -32.173 100.643  14.134  0.00  0.00    +0.000 A 
ATOM      8  C   UNL     1     -30.547  99.458  15.623  0.00  0.00    +0.000 A 
ATOM      9  C   UNL     1     -32.646  97.990  16.728  0.00  0.00    +0.000 A 
ATOM     10  C   UNL     1     -31.339  97.793  17.163  0.00  0.00    +0.000 A 
ATOM     11  C   UNL     1     -30.286  98.520  16.618  0.00  0.00    +0.000 A 
ENDROOT
BRANCH   5  12
ATOM     12  C   UNL     1     -35.946 100.013  14.034  0.00  0.00    +0.000 A 
ATOM     13  C   UNL     1     -36.902  99.846  15.040  0.00  0.00    +0.000 A 
ATOM     14  C   UNL     1     -36.367 100.266  12.722  0.00  0.00    +0.000 A 
ATOM     15  C   UNL     1     -38.254  99.908  14.724  0.00  0.00    +0.000 A 
ATOM     16  C   UNL     1     -37.723 100.344  12.410  0.00  0.00    +0.000 A 
ATOM     17  C   UNL     1     -38.660 100.181  13.422  0.00  0.00    +0.000 A 
BRANCH  15  18
ATOM     18  O   UNL     1     -39.169  99.662  15.704  0.00  0.00    +0.000 OA
ATOM     19  H   UNL     1     -38.734  99.091  16.365  0.00  0.00    +0.000 HD
ENDBRANCH  15  18
BRANCH  17  20
ATOM     20  O   UNL     1     -39.985 100.314  13.126  0.00  0.00    +0.000 OA
ATOM     21  H   UNL     1     -40.151 101.269  13.017  0.00  0.00    +0.000 HD
ENDBRANCH  17  20
ENDBRANCH   5  12
BRANCH   6  22
ATOM     22  O   UNL     1     -33.887 101.721  12.758  0.00  0.00    +0.000 OA
ATOM     23  H   UNL     1     -34.053 102.585  13.167  0.00  0.00    +0.000 HD
ENDBRANCH   6  22
BRANCH   8  24
ATOM     24  O   UNL     1     -29.473 100.144  15.126  0.00  0.00    +0.000 OA
ATOM     25  H   UNL     1     -29.536 100.147  14.142  0.00  0.00    +0.000 HD
ENDBRANCH   8  24
BRANCH  10  26
ATOM     26  O   UNL     1     -31.113  96.868  18.140  0.00  0.00    +0.000 OA
ATOM     27  H   UNL     1     -31.875  96.261  18.164  0.00  0.00    +0.000 HD
ENDBRANCH  10  26
TORSDOF 6
ENDMDL
MODEL 2
REMARK VINA RESULT:      -6.8      1.708      3.093
REMARK  Name = Quercetin.pdbqt.pdb
REMARK  6 active torsions:
REMARK  status: ('A' for Active; 'I' for Inactive)
REMARK    1  A    between atoms: C_5  and  C_12
REMARK    2  A    between atoms: C_6  and  O_22
REMARK    3  A    between atoms: C_8  and  O_24
REMARK    4  A    between atoms: C_10  and  O_26
REMARK    5  A    between atoms: C_15  and  O_18
REMARK    6  A    between atoms: C_17  and  O_20
REMARK                            x       y       z     vdW  Elec       q    Type
REMARK                         _______ _______ _______ _____ _____    ______ ____
ROOT
ATOM      1  O   UNL     1     -33.723 100.095  14.630  0.00  0.00    +0.000 OA
ATOM      2  O   UNL     1     -34.001  97.398  17.659  0.00  0.00    +0.000 OA
ATOM      3  C   UNL     1     -32.634  98.632  16.229  0.00  0.00    +0.000 A 
ATOM      4  C   UNL     1     -32.597  99.555  15.189  0.00  0.00    +0.000 A 
ATOM      5  C   UNL     1     -34.963  99.724  15.128  0.00  0.00    +0.000 A 
ATOM      6  C   UNL     1     -35.151  98.831  16.124  0.00  0.00    +0.000 A 
ATOM      7  C   UNL     1     -33.942  98.220  16.747  0.00  0.00    +0.000 A 
ATOM      8  C   UNL     1     -31.441  98.119  16.752  0.00  0.00    +0.000 A 
ATOM      9  C   UNL     1     -31.374  99.971  14.667  0.00  0.00    +0.000 A 
ATOM     10  C   UNL     1     -30.194  99.456  15.195  0.00  0.00    +0.000 A 
ATOM     11  C   UNL     1     -30.217  98.532  16.234  0.00  0.00    +0.000 A 
ENDROOT
BRANCH   5  12
ATOM     12  C   UNL     1     -36.063 100.411  14.436  0.00  0.00    +0.000 A 
ATOM     13  C   UNL     1     -36.444 101.706  14.799  0.00  0.00    +0.000 A 
ATOM     14  C   UNL     1     -36.701  99.785  13.357  0.00  0.00    +0.000 A 
ATOM     15  C   UNL     1     -37.462 102.346  14.104  0.00  0.00    +0.000 A 
ATOM     16  C   UNL     1     -37.711 100.436  12.650  0.00  0.00    +0.000 A 
ATOM     17  C   UNL     1     -38.073 101.724  13.021  0.00  0.00    +0.000 A 
BRANCH  15  18
ATOM     18  O   UNL     1     -37.873 103.576  14.526  0.00  0.00    +0.000 OA
ATOM     19  H   UNL     1     -37.277 103.844  15.250  0.00  0.00    +0.000 HD
ENDBRANCH  15  18
BRANCH  17  20
ATOM     20  O   UNL     1     -39.022 102.381  12.293  0.00  0.00    +0.000 OA
ATOM     21  H   UNL     1     -38.621 103.224  12.010  0.00  0.00    +0.000 HD
ENDBRANCH  17  20
ENDBRANCH   5  12
BRANCH   6  22
ATOM     22  O   UNL     1     -36.378  98.418  16.607  0.00  0.00    +0.000 OA
ATOM     23  H   UNL     1     -37.091  98.745  16.035  0.00  0.00    +0.000 HD
ENDBRANCH   6  22
BRANCH   8  24
ATOM     24  O   UNL     1     -31.403  97.208  17.773  0.00  0.00    +0.000 OA
ATOM     25  H   UNL     1     -32.264  97.242  18.250  0.00  0.00    +0.000 HD
ENDBRANCH   8  24
BRANCH  10  26
ATOM     26  O   UNL     1     -29.009  99.878  14.667  0.00  0.00    +0.000 OA
ATOM     27  H   UNL     1     -28.389  99.127  14.673  0.00  0.00    +0.000 HD
ENDBRANCH  10  26
TORSDOF 6
ENDMDL
MODEL 3
REMARK VINA RESULT:      -6.5     15.019     17.716
REMARK  Name = Quercetin.pdbqt.pdb
REMARK  6 active torsions:
REMARK  status: ('A' for Active; 'I' for Inactive)
REMARK    1  A    between atoms: C_5  and  C_12
REMARK    2  A    between atoms: C_6  and  O_22
REMARK    3  A    between atoms: C_8  and  O_24
REMARK    4  A    between atoms: C_10  and  O_26
REMARK    5  A    between atoms: C_15  and  O_18
REMARK    6  A    between atoms: C_17  and  O_20
REMARK                            x       y       z     vdW  Elec       q    Type
REMARK                         _______ _______ _______ _____ _____    ______ ____
ROOT
ATOM      1  O   UNL     1     -24.001 103.002   1.171  0.00  0.00    +0.000 OA
ATOM      2  O   UNL     1     -26.110 106.455   0.779  0.00  0.00    +0.000 OA
ATOM      3  C   UNL     1     -24.846 104.782  -0.242  0.00  0.00    +0.000 A 
ATOM      4  C   UNL     1     -24.134 103.604  -0.050  0.00  0.00    +0.000 A 
ATOM      5  C   UNL     1     -24.617 103.578   2.273  0.00  0.00    +0.000 A 
ATOM      6  C   UNL     1     -25.329 104.725   2.238  0.00  0.00    +0.000 A 
ATOM      7  C   UNL     1     -25.483 105.408   0.921  0.00  0.00    +0.000 A 
ATOM      8  C   UNL     1     -24.940 105.344  -1.521  0.00  0.00    +0.000 A 
ATOM      9  C   UNL     1     -23.511 102.980  -1.130  0.00  0.00    +0.000 A 
ATOM     10  C   UNL     1     -23.611 103.546  -2.397  0.00  0.00    +0.000 A 
ATOM     11  C   UNL     1     -24.320 104.724  -2.603  0.00  0.00    +0.000 A 
ENDROOT
BRANCH   5  12
ATOM     12  C   UNL     1     -24.397 102.797   3.498  0.00  0.00    +0.000 A 
ATOM     13  C   UNL     1     -24.890 101.493   3.619  0.00  0.00    +0.000 A 
ATOM     14  C   UNL     1     -23.632 103.340   4.538  0.00  0.00    +0.000 A 
ATOM     15  C   UNL     1     -24.635 100.764   4.773  0.00  0.00    +0.000 A 
ATOM     16  C   UNL     1     -23.364 102.599   5.689  0.00  0.00    +0.000 A 
ATOM     17  C   UNL     1     -23.856 101.305   5.790  0.00  0.00    +0.000 A 
BRANCH  15  18
ATOM     18  O   UNL     1     -25.193  99.526   4.904  0.00  0.00    +0.000 OA
ATOM     19  H   UNL     1     -24.714  99.071   5.621  0.00  0.00    +0.000 HD
ENDBRANCH  15  18
BRANCH  17  20
ATOM     20  O   UNL     1     -23.546 100.562   6.892  0.00  0.00    +0.000 OA
ATOM     21  H   UNL     1     -24.358 100.086   7.143  0.00  0.00    +0.000 HD
ENDBRANCH  17  20
ENDBRANCH   5  12
BRANCH   6  22
ATOM     22  O   UNL     1     -25.916 105.335   3.330  0.00  0.00    +0.000 OA
ATOM     23  H   UNL     1     -25.472 106.175   3.524  0.00  0.00    +0.000 HD
ENDBRANCH   6  22
BRANCH   8  24
ATOM     24  O   UNL     1     -25.622 106.502  -1.782  0.00  0.00    +0.000 OA
ATOM     25  H   UNL     1     -26.268 106.323  -2.505  0.00  0.00    +0.000 HD
ENDBRANCH   8  24
BRANCH  10  26
ATOM     26  O   UNL     1     -22.993 102.916  -3.438  0.00  0.00    +0.000 OA
ATOM     27  H   UNL     1     -23.652 102.360  -3.891  0.00  0.00    +0.000 HD
ENDBRANCH  10  26
TORSDOF 6
ENDMDL
MODEL 4
REMARK VINA RESULT:      -6.4     11.918     15.595
REMARK  Name = Quercetin.pdbqt.pdb
REMARK  6 active torsions:
REMARK  status: ('A' for Active; 'I' for Inactive)
REMARK    1  A    between atoms: C_5  and  C_12
REMARK    2  A    between atoms: C_6  and  O_22
REMARK    3  A    between atoms: C_8  and  O_24
REMARK    4  A    between atoms: C_10  and  O_26
REMARK    5  A    between atoms: C_15  and  O_18
REMARK    6  A    between atoms: C_17  and  O_20
REMARK                            x       y       z     vdW  Elec       q    Type
REMARK                         _______ _______ _______ _____ _____    ______ ____
ROOT
ATOM      1  O   UNL     1     -42.250 101.754   3.794  0.00  0.00    +0.000 OA
ATOM      2  O   UNL     1     -43.675 101.347   0.009  0.00  0.00    +0.000 OA
ATOM      3  C   UNL     1     -44.095 101.261   2.300  0.00  0.00    +0.000 A 
ATOM      4  C   UNL     1     -43.555 101.409   3.573  0.00  0.00    +0.000 A 
ATOM      5  C   UNL     1     -41.423 101.984   2.704  0.00  0.00    +0.000 A 
ATOM      6  C   UNL     1     -41.808 101.865   1.414  0.00  0.00    +0.000 A 
ATOM      7  C   UNL     1     -43.223 101.482   1.143  0.00  0.00    +0.000 A 
ATOM      8  C   UNL     1     -45.441 100.904   2.149  0.00  0.00    +0.000 A 
ATOM      9  C   UNL     1     -44.351 101.205   4.698  0.00  0.00    +0.000 A 
ATOM     10  C   UNL     1     -45.687 100.852   4.537  0.00  0.00    +0.000 A 
ATOM     11  C   UNL     1     -46.240 100.699   3.270  0.00  0.00    +0.000 A 
ENDROOT
BRANCH   5  12
ATOM     12  C   UNL     1     -40.064 102.367   3.113  0.00  0.00    +0.000 A 
ATOM     13  C   UNL     1     -39.847 103.116   4.273  0.00  0.00    +0.000 A 
ATOM     14  C   UNL     1     -38.965 101.925   2.365  0.00  0.00    +0.000 A 
ATOM     15  C   UNL     1     -38.549 103.432   4.657  0.00  0.00    +0.000 A 
ATOM     16  C   UNL     1     -37.664 102.229   2.762  0.00  0.00    +0.000 A 
ATOM     17  C   UNL     1     -37.465 102.969   3.919  0.00  0.00    +0.000 A 
BRANCH  15  18
ATOM     18  O   UNL     1     -38.363 104.232   5.746  0.00  0.00    +0.000 OA
ATOM     19  H   UNL     1     -38.871 105.050   5.590  0.00  0.00    +0.000 HD
ENDBRANCH  15  18
BRANCH  17  20
ATOM     20  O   UNL     1     -36.190 103.217   4.336  0.00  0.00    +0.000 OA
ATOM     21  H   UNL     1     -35.602 102.701   3.754  0.00  0.00    +0.000 HD
ENDBRANCH  17  20
ENDBRANCH   5  12
BRANCH   6  22
ATOM     22  O   UNL     1     -40.990 102.051   0.316  0.00  0.00    +0.000 OA
ATOM     23  H   UNL     1     -40.796 102.994   0.198  0.00  0.00    +0.000 HD
ENDBRANCH   6  22
BRANCH   8  24
ATOM     24  O   UNL     1     -46.038 100.739   0.928  0.00  0.00    +0.000 OA
ATOM     25  H   UNL     1     -46.788 101.375   0.861  0.00  0.00    +0.000 HD
ENDBRANCH   8  24
BRANCH  10  26
ATOM     26  O   UNL     1     -46.446 100.657   5.654  0.00  0.00    +0.000 OA
ATOM     27  H   UNL     1     -46.896 101.494   5.865  0.00  0.00    +0.000 HD
ENDBRANCH  10  26
TORSDOF 6
ENDMDL
MODEL 5
REMARK VINA RESULT:      -6.3     27.016     28.798
REMARK  Name = Quercetin.pdbqt.pdb
REMARK  6 active torsions:
REMARK  status: ('A' for Active; 'I' for Inactive)
REMARK    1  A    between atoms: C_5  and  C_12
REMARK    2  A    between atoms: C_6  and  O_22
REMARK    3  A    between atoms: C_8  and  O_24
REMARK    4  A    between atoms: C_10  and  O_26
REMARK    5  A    between atoms: C_15  and  O_18
REMARK    6  A    between atoms: C_17  and  O_20
REMARK                            x       y       z     vdW  Elec       q    Type
REMARK                         _______ _______ _______ _____ _____    ______ ____
ROOT
ATOM      1  O   UNL     1     -32.927  96.171 -13.787  0.00  0.00    +0.000 OA
ATOM      2  O   UNL     1     -29.044  97.091 -14.561  0.00  0.00    +0.000 OA
ATOM      3  C   UNL     1     -30.757  95.513 -14.646  0.00  0.00    +0.000 A 
ATOM      4  C   UNL     1     -32.092  95.250 -14.357  0.00  0.00    +0.000 A 
ATOM      5  C   UNL     1     -32.433  97.435 -13.496  0.00  0.00    +0.000 A 
ATOM      6  C   UNL     1     -31.158  97.825 -13.711  0.00  0.00    +0.000 A 
ATOM      7  C   UNL     1     -30.223  96.839 -14.323  0.00  0.00    +0.000 A 
ATOM      8  C   UNL     1     -29.959  94.520 -15.229  0.00  0.00    +0.000 A 
ATOM      9  C   UNL     1     -32.637  94.000 -14.646  0.00  0.00    +0.000 A 
ATOM     10  C   UNL     1     -31.836  93.022 -15.226  0.00  0.00    +0.000 A 
ATOM     11  C   UNL     1     -30.499  93.271 -15.520  0.00  0.00    +0.000 A 
ENDROOT
BRANCH   5  12
ATOM     12  C   UNL     1     -33.462  98.308 -12.913  0.00  0.00    +0.000 A 
ATOM     13  C   UNL     1     -33.817  98.200 -11.565  0.00  0.00    +0.000 A 
ATOM     14  C   UNL     1     -34.052  99.305 -13.700  0.00  0.00    +0.000 A 
ATOM     15  C   UNL     1     -34.765  99.062 -11.030  0.00  0.00    +0.000 A 
ATOM     16  C   UNL     1     -34.991 100.181 -13.156  0.00  0.00    +0.000 A 
ATOM     17  C   UNL     1     -35.329 100.062 -11.815  0.00  0.00    +0.000 A 
BRANCH  15  18
ATOM     18  O   UNL     1     -35.157  98.887  -9.735  0.00  0.00    +0.000 OA
ATOM     19  H   UNL     1     -34.351  98.919  -9.186  0.00  0.00    +0.000 HD
ENDBRANCH  15  18
BRANCH  17  20
ATOM     20  O   UNL     1     -36.205 100.956 -11.271  0.00  0.00    +0.000 OA
ATOM     21  H   UNL     1     -36.978 100.983 -11.865  0.00  0.00    +0.000 HD
ENDBRANCH  17  20
ENDBRANCH   5  12
BRANCH   6  22
ATOM     22  O   UNL     1     -30.637  99.065 -13.392  0.00  0.00    +0.000 OA
ATOM     23  H   UNL     1     -30.167  99.024 -12.545  0.00  0.00    +0.000 HD
ENDBRANCH   6  22
BRANCH   8  24
ATOM     24  O   UNL     1     -28.639  94.708 -15.539  0.00  0.00    +0.000 OA
ATOM     25  H   UNL     1     -28.162  93.860 -15.386  0.00  0.00    +0.000 HD
ENDBRANCH   8  24
BRANCH  10  26
ATOM     26  O   UNL     1     -32.392  91.806 -15.499  0.00  0.00    +0.000 OA
ATOM     27  H   UNL     1     -31.694  91.225 -15.849  0.00  0.00    +0.000 HD
ENDBRANCH  10  26
TORSDOF 6
ENDMDL
MODEL 6
REMARK VINA RESULT:      -6.2      2.748      7.096
REMARK  Name = Quercetin.pdbqt.pdb
REMARK  6 active torsions:
REMARK  status: ('A' for Active; 'I' for Inactive)
REMARK    1  A    between atoms: C_5  and  C_12
REMARK    2  A    between atoms: C_6  and  O_22
REMARK    3  A    between atoms: C_8  and  O_24
REMARK    4  A    between atoms: C_10  and  O_26
REMARK    5  A    between atoms: C_15  and  O_18
REMARK    6  A    between atoms: C_17  and  O_20
REMARK                            x       y       z     vdW  Elec       q    Type
REMARK                         _______ _______ _______ _____ _____    ______ ____
ROOT
ATOM      1  O   UNL     1     -35.300 102.190  14.629  0.00  0.00    +0.000 OA
ATOM      2  O   UNL     1     -38.417 100.519  12.626  0.00  0.00    +0.000 OA
ATOM      3  C   UNL     1     -37.514 102.401  13.663  0.00  0.00    +0.000 A 
ATOM      4  C   UNL     1     -36.422 102.921  14.348  0.00  0.00    +0.000 A 
ATOM      5  C   UNL     1     -35.234 100.873  14.200  0.00  0.00    +0.000 A 
ATOM      6  C   UNL     1     -36.222 100.234  13.537  0.00  0.00    +0.000 A 
ATOM      7  C   UNL     1     -37.460 101.003  13.224  0.00  0.00    +0.000 A 
ATOM      8  C   UNL     1     -38.632 103.208  13.412  0.00  0.00    +0.000 A 
ATOM      9  C   UNL     1     -36.436 104.245  14.785  0.00  0.00    +0.000 A 
ATOM     10  C   UNL     1     -37.550 105.038  14.529  0.00  0.00    +0.000 A 
ATOM     11  C   UNL     1     -38.650 104.530  13.846  0.00  0.00    +0.000 A 
ENDROOT
BRANCH   5  12
ATOM     12  C   UNL     1     -33.957 100.239  14.560  0.00  0.00    +0.000 A 
ATOM     13  C   UNL     1     -33.921  99.115  15.391  0.00  0.00    +0.000 A 
ATOM     14  C   UNL     1     -32.763 100.728  14.016  0.00  0.00    +0.000 A 
ATOM     15  C   UNL     1     -32.704  98.514  15.686  0.00  0.00    +0.000 A 
ATOM     16  C   UNL     1     -31.545 100.113  14.299  0.00  0.00    +0.000 A 
ATOM     17  C   UNL     1     -31.527  98.995  15.122  0.00  0.00    +0.000 A 
BRANCH  15  18
ATOM     18  O   UNL     1     -32.683  97.470  16.563  0.00  0.00    +0.000 OA
ATOM     19  H   UNL     1     -31.949  96.886  16.295  0.00  0.00    +0.000 HD
ENDBRANCH  15  18
BRANCH  17  20
ATOM     20  O   UNL     1     -30.342  98.360  15.353  0.00  0.00    +0.000 OA
ATOM     21  H   UNL     1     -30.555  97.422  15.513  0.00  0.00    +0.000 HD
ENDBRANCH  17  20
ENDBRANCH   5  12
BRANCH   6  22
ATOM     22  O   UNL     1     -36.191  98.912  13.136  0.00  0.00    +0.000 OA
ATOM     23  H   UNL     1     -35.895  98.346  13.867  0.00  0.00    +0.000 HD
ENDBRANCH   6  22
BRANCH   8  24
ATOM     24  O   UNL     1     -39.741 102.762  12.746  0.00  0.00    +0.000 OA
ATOM     25  H   UNL     1     -40.403 103.492  12.724  0.00  0.00    +0.000 HD
ENDBRANCH   8  24
BRANCH  10  26
ATOM     26  O   UNL     1     -37.540 106.330  14.967  0.00  0.00    +0.000 OA
ATOM     27  H   UNL     1     -37.915 106.349  15.866  0.00  0.00    +0.000 HD
ENDBRANCH  10  26
TORSDOF 6
ENDMDL
MODEL 7
REMARK VINA RESULT:      -6.1     14.118     17.142
REMARK  Name = Quercetin.pdbqt.pdb
REMARK  6 active torsions:
REMARK  status: ('A' for Active; 'I' for Inactive)
REMARK    1  A    between atoms: C_5  and  C_12
REMARK    2  A    between atoms: C_6  and  O_22
REMARK    3  A    between atoms: C_8  and  O_24
REMARK    4  A    between atoms: C_10  and  O_26
REMARK    5  A    between atoms: C_15  and  O_18
REMARK    6  A    between atoms: C_17  and  O_20
REMARK                            x       y       z     vdW  Elec       q    Type
REMARK                         _______ _______ _______ _____ _____    ______ ____
ROOT
ATOM      1  O   UNL     1     -20.347  98.702   6.396  0.00  0.00    +0.000 OA
ATOM      2  O   UNL     1     -23.639 100.923   5.527  0.00  0.00    +0.000 OA
ATOM      3  C   UNL     1     -22.174 100.109   7.147  0.00  0.00    +0.000 A 
ATOM      4  C   UNL     1     -21.045  99.335   7.389  0.00  0.00    +0.000 A 
ATOM      5  C   UNL     1     -20.769  98.849   5.083  0.00  0.00    +0.000 A 
ATOM      6  C   UNL     1     -21.853  99.558   4.703  0.00  0.00    +0.000 A 
ATOM      7  C   UNL     1     -22.638 100.252   5.764  0.00  0.00    +0.000 A 
ATOM      8  C   UNL     1     -22.840 100.727   8.213  0.00  0.00    +0.000 A 
ATOM      9  C   UNL     1     -20.574  99.172   8.690  0.00  0.00    +0.000 A 
ATOM     10  C   UNL     1     -21.242  99.791   9.742  0.00  0.00    +0.000 A 
ATOM     11  C   UNL     1     -22.373 100.567   9.515  0.00  0.00    +0.000 A 
ENDROOT
BRANCH   5  12
ATOM     12  C   UNL     1     -19.900  98.128   4.141  0.00  0.00    +0.000 A 
ATOM     13  C   UNL     1     -20.280  96.890   3.614  0.00  0.00    +0.000 A 
ATOM     14  C   UNL     1     -18.701  98.716   3.716  0.00  0.00    +0.000 A 
ATOM     15  C   UNL     1     -19.457  96.249   2.697  0.00  0.00    +0.000 A 
ATOM     16  C   UNL     1     -17.885  98.077   2.783  0.00  0.00    +0.000 A 
ATOM     17  C   UNL     1     -18.280  96.851   2.266  0.00  0.00    +0.000 A 
BRANCH  15  18
ATOM     18  O   UNL     1     -19.807  95.006   2.258  0.00  0.00    +0.000 OA
ATOM     19  H   UNL     1     -19.043  94.650   1.767  0.00  0.00    +0.000 HD
ENDBRANCH  15  18
BRANCH  17  20
ATOM     20  O   UNL     1     -17.509  96.255   1.311  0.00  0.00    +0.000 OA
ATOM     21  H   UNL     1     -16.733  96.831   1.181  0.00  0.00    +0.000 HD
ENDBRANCH  17  20
ENDBRANCH   5  12
BRANCH   6  22
ATOM     22  O   UNL     1     -22.312  99.684   3.405  0.00  0.00    +0.000 OA
ATOM     23  H   UNL     1     -23.121 100.218   3.386  0.00  0.00    +0.000 HD
ENDBRANCH   6  22
BRANCH   8  24
ATOM     24  O   UNL     1     -23.957 101.500   8.050  0.00  0.00    +0.000 OA
ATOM     25  H   UNL     1     -24.417 101.566   8.919  0.00  0.00    +0.000 HD
ENDBRANCH   8  24
BRANCH  10  26
ATOM     26  O   UNL     1     -20.761  99.616  11.007  0.00  0.00    +0.000 OA
ATOM     27  H   UNL     1     -21.388  99.051  11.494  0.00  0.00    +0.000 HD
ENDBRANCH  10  26
TORSDOF 6
ENDMDL
MODEL 8
REMARK VINA RESULT:      -6.0     12.065     14.799
REMARK  Name = Quercetin.pdbqt.pdb
REMARK  6 active torsions:
REMARK  status: ('A' for Active; 'I' for Inactive)
REMARK    1  A    between atoms: C_5  and  C_12
REMARK    2  A    between atoms: C_6  and  O_22
REMARK    3  A    between atoms: C_8  and  O_24
REMARK    4  A    between atoms: C_10  and  O_26
REMARK    5  A    between atoms: C_15  and  O_18
REMARK    6  A    between atoms: C_17  and  O_20
REMARK                            x       y       z     vdW  Elec       q    Type
REMARK                         _______ _______ _______ _____ _____    ______ ____
ROOT
ATOM      1  O   UNL     1     -38.646 103.512   1.519  0.00  0.00    +0.000 OA
ATOM      2  O   UNL     1     -39.579 104.332   5.389  0.00  0.00    +0.000 OA
ATOM      3  C   UNL     1     -37.974 104.334   3.698  0.00  0.00    +0.000 A 
ATOM      4  C   UNL     1     -37.708 104.032   2.368  0.00  0.00    +0.000 A 
ATOM      5  C   UNL     1     -39.930 103.289   1.994  0.00  0.00    +0.000 A 
ATOM      6  C   UNL     1     -40.327 103.523   3.264  0.00  0.00    +0.000 A 
ATOM      7  C   UNL     1     -39.323 104.082   4.214  0.00  0.00    +0.000 A 
ATOM      8  C   UNL     1     -36.964 104.864   4.511  0.00  0.00    +0.000 A 
ATOM      9  C   UNL     1     -36.437 104.255   1.841  0.00  0.00    +0.000 A 
ATOM     10  C   UNL     1     -35.440 104.782   2.656  0.00  0.00    +0.000 A 
ATOM     11  C   UNL     1     -35.693 105.088   3.989  0.00  0.00    +0.000 A 
ENDROOT
BRANCH   5  12
ATOM     12  C   UNL     1     -40.818 102.753   0.952  0.00  0.00    +0.000 A 
ATOM     13  C   UNL     1     -41.364 103.588  -0.027  0.00  0.00    +0.000 A 
ATOM     14  C   UNL     1     -41.074 101.376   0.901  0.00  0.00    +0.000 A 
ATOM     15  C   UNL     1     -42.170 103.048  -1.022  0.00  0.00    +0.000 A 
ATOM     16  C   UNL     1     -41.869 100.836  -0.108  0.00  0.00    +0.000 A 
ATOM     17  C   UNL     1     -42.400 101.678  -1.076  0.00  0.00    +0.000 A 
BRANCH  15  18
ATOM     18  O   UNL     1     -42.759 103.891  -1.919  0.00  0.00    +0.000 OA
ATOM     19  H   UNL     1     -43.108 103.339  -2.643  0.00  0.00    +0.000 HD
ENDBRANCH  15  18
BRANCH  17  20
ATOM     20  O   UNL     1     -43.131 101.140  -2.094  0.00  0.00    +0.000 OA
ATOM     21  H   UNL     1     -43.644 101.872  -2.485  0.00  0.00    +0.000 HD
ENDBRANCH  17  20
ENDBRANCH   5  12
BRANCH   6  22
ATOM     22  O   UNL     1     -41.589 103.270   3.766  0.00  0.00    +0.000 OA
ATOM     23  H   UNL     1     -42.124 102.798   3.109  0.00  0.00    +0.000 HD
ENDBRANCH   6  22
BRANCH   8  24
ATOM     24  O   UNL     1     -37.154 105.182   5.829  0.00  0.00    +0.000 OA
ATOM     25  H   UNL     1     -36.558 105.934   6.054  0.00  0.00    +0.000 HD
ENDBRANCH   8  24
BRANCH  10  26
ATOM     26  O   UNL     1     -34.205 104.991   2.117  0.00  0.00    +0.000 OA
ATOM     27  H   UNL     1     -34.138 105.929   1.866  0.00  0.00    +0.000 HD
ENDBRANCH  10  26
TORSDOF 6
ENDMDL
MODEL 9
REMARK VINA RESULT:      -6.0     21.919     23.961
REMARK  Name = Quercetin.pdbqt.pdb
REMARK  6 active torsions:
REMARK  status: ('A' for Active; 'I' for Inactive)
REMARK    1  A    between atoms: C_5  and  C_12
REMARK    2  A    between atoms: C_6  and  O_22
REMARK    3  A    between atoms: C_8  and  O_24
REMARK    4  A    between atoms: C_10  and  O_26
REMARK    5  A    between atoms: C_15  and  O_18
REMARK    6  A    between atoms: C_17  and  O_20
REMARK                            x       y       z     vdW  Elec       q    Type
REMARK                         _______ _______ _______ _____ _____    ______ ____
ROOT
ATOM      1  O   UNL     1     -37.473  88.936  -5.443  0.00  0.00    +0.000 OA
ATOM      2  O   UNL     1     -34.705  89.928  -8.251  0.00  0.00    +0.000 OA
ATOM      3  C   UNL     1     -36.857  90.224  -7.403  0.00  0.00    +0.000 A 
ATOM      4  C   UNL     1     -37.766  89.846  -6.422  0.00  0.00    +0.000 A 
ATOM      5  C   UNL     1     -36.206  88.371  -5.411  0.00  0.00    +0.000 A 
ATOM      6  C   UNL     1     -35.229  88.634  -6.305  0.00  0.00    +0.000 A 
ATOM      7  C   UNL     1     -35.523  89.616  -7.388  0.00  0.00    +0.000 A 
ATOM      8  C   UNL     1     -37.226  91.162  -8.376  0.00  0.00    +0.000 A 
ATOM      9  C   UNL     1     -39.045  90.398  -6.404  0.00  0.00    +0.000 A 
ATOM     10  C   UNL     1     -39.402  91.330  -7.374  0.00  0.00    +0.000 A 
ATOM     11  C   UNL     1     -38.503  91.716  -8.361  0.00  0.00    +0.000 A 
ENDROOT
BRANCH   5  12
ATOM     12  C   UNL     1     -36.048  87.436  -4.288  0.00  0.00    +0.000 A 
ATOM     13  C   UNL     1     -36.410  87.803  -2.989  0.00  0.00    +0.000 A 
ATOM     14  C   UNL     1     -35.586  86.135  -4.529  0.00  0.00    +0.000 A 
ATOM     15  C   UNL     1     -36.285  86.887  -1.952  0.00  0.00    +0.000 A 
ATOM     16  C   UNL     1     -35.477  85.212  -3.490  0.00  0.00    +0.000 A 
ATOM     17  C   UNL     1     -35.845  85.592  -2.207  0.00  0.00    +0.000 A 
BRANCH  15  18
ATOM     18  O   UNL     1     -36.566  87.292  -0.680  0.00  0.00    +0.000 OA
ATOM     19  H   UNL     1     -36.397  86.531  -0.094  0.00  0.00    +0.000 HD
ENDBRANCH  15  18
BRANCH  17  20
ATOM     20  O   UNL     1     -35.792  84.671  -1.202  0.00  0.00    +0.000 OA
ATOM     21  H   UNL     1     -36.667  84.679  -0.771  0.00  0.00    +0.000 HD
ENDBRANCH  17  20
ENDBRANCH   5  12
BRANCH   6  22
ATOM     22  O   UNL     1     -33.975  88.053  -6.313  0.00  0.00    +0.000 OA
ATOM     23  H   UNL     1     -33.413  88.477  -6.981  0.00  0.00    +0.000 HD
ENDBRANCH   6  22
BRANCH   8  24
ATOM     24  O   UNL     1     -36.384  91.578  -9.371  0.00  0.00    +0.000 OA
ATOM     25  H   UNL     1     -36.582  91.054 -10.182  0.00  0.00    +0.000 HD
ENDBRANCH   8  24
BRANCH  10  26
ATOM     26  O   UNL     1     -40.660  91.856  -7.335  0.00  0.00    +0.000 OA
ATOM     27  H   UNL     1     -41.283  91.139  -7.121  0.00  0.00    +0.000 HD
ENDBRANCH  10  26
TORSDOF 6
ENDMDL
