MODEL 1
REMARK VINA RESULT:      -6.6      0.000      0.000
REMARK  Name = 
REMARK  14 active torsions:
REMARK  status: ('A' for Active; 'I' for Inactive)
REMARK    1  A    between atoms: O_1  and  C_24
REMARK    2  A    between atoms: O_1  and  C_36
REMARK    3  A    between atoms: O_4  and  C_30
REMARK    4  A    between atoms: O_4  and  C_37
REMARK    5  A    between atoms: O_7  and  C_33
REMARK    6  A    between atoms: O_7  and  C_38
REMARK    7  A    between atoms: N_10  and  C_23
REMARK    8  A    between atoms: C_15  and  C_26
REMARK    9  A    between atoms: C_16  and  C_24
REMARK   10  A    between atoms: C_31  and  C_34
REMARK   11  A    between atoms: C_32  and  C_35
REMARK   12  A    between atoms: C_36  and  C_39
REMARK   13  A    between atoms: C_39  and  C_40
REMARK   14  A    between atoms: C_41  and  C_42
REMARK                            x       y       z     vdW  Elec       q    Type
REMARK                         _______ _______ _______ _____ _____    ______ ____
ROOT
ATOM      1  O   UNL     1     -33.620 104.246  17.141  0.00  0.00    +0.000 OA
ATOM      2  O   UNL     1     -30.355 101.520  13.951  0.00  0.00    +0.000 OA
ATOM      3  O   UNL     1     -35.675 101.857  20.578  0.00  0.00    +0.000 OA
ATOM      4  O   UNL     1     -36.099  96.909  18.676  0.00  0.00    +0.000 OA
ATOM      5  N   UNL     1     -34.794  99.927  15.966  0.00  0.00    +0.000 NA
ATOM      6  N   UNL     1     -35.337 102.081  14.045  0.00  0.00    +0.000 NA
ATOM      7  C   UNL     1     -35.374 101.233  16.374  0.00  0.00    +0.000 C 
ATOM      8  C   UNL     1     -34.889 102.412  15.428  0.00  0.00    +0.000 C 
ATOM      9  C   UNL     1     -34.632 100.853  13.596  0.00  0.00    +0.000 C 
ATOM     10  C   UNL     1     -35.039  99.641  14.515  0.00  0.00    +0.000 C 
ATOM     11  C   UNL     1     -35.085  98.770  16.858  0.00  0.00    +0.000 C 
ATOM     12  C   UNL     1     -35.059 101.535  17.854  0.00  0.00    +0.000 C 
ATOM     13  C   UNL     1     -33.089 101.038  13.574  0.00  0.00    +0.000 C 
ATOM     14  C   UNL     1     -33.379 102.594  15.494  0.00  0.00    +0.000 C 
ATOM     15  C   UNL     1     -32.558 101.945  14.655  0.00  0.00    +0.000 C 
ATOM     16  C   UNL     1     -35.467  99.139  18.282  0.00  0.00    +0.000 C 
ATOM     17  C   UNL     1     -35.434 100.393  18.749  0.00  0.00    +0.000 C 
ATOM     18  C   UNL     1     -35.236 103.201  13.113  0.00  0.00    +0.000 C 
ATOM     19  C   UNL     1     -32.845 103.564  16.477  0.00  0.00    +0.000 C 
ATOM     20  C   UNL     1     -31.092 102.114  14.730  0.00  0.00    +0.000 C 
ATOM     21  C   UNL     1     -35.763 100.709  20.156  0.00  0.00    +0.000 C 
ATOM     22  C   UNL     1     -35.944  98.030  19.150  0.00  0.00    +0.000 C 
ATOM     23  C   UNL     1     -31.356 103.672  16.622  0.00  0.00    +0.000 C 
ATOM     24  C   UNL     1     -30.545 103.007  15.784  0.00  0.00    +0.000 C 
ATOM     25  C   UNL     1     -36.166  99.593  21.047  0.00  0.00    +0.000 C 
ATOM     26  C   UNL     1     -36.234  98.332  20.591  0.00  0.00    +0.000 C 
ATOM     27  C   UNL     1     -29.047 103.097  15.819  0.00  0.00    +0.000 C 
ATOM     28  C   UNL     1     -36.477  99.993  22.461  0.00  0.00    +0.000 C 
ENDROOT
BRANCH  23  29
ATOM     29  O   UNL     1     -30.792 104.506  17.580  0.00  0.00    +0.000 OA
ATOM     30  C   UNL     1     -30.699 103.959  18.893  0.00  0.00    +0.000 C 
ENDBRANCH  23  29
BRANCH  26  31
ATOM     31  O   UNL     1     -36.640  97.323  21.458  0.00  0.00    +0.000 OA
ATOM     32  C   UNL     1     -35.583  96.537  22.005  0.00  0.00    +0.000 C 
ENDBRANCH  26  31
BRANCH  10  34
ATOM     33  N   UNL     1     -37.543  98.976  13.948  0.00  0.00    +0.000 NA
ATOM     34  C   UNL     1     -36.441  99.248  14.190  0.00  0.00    +0.000 C 
ENDBRANCH  10  34
BRANCH  11  35
ATOM     35  C   UNL     1     -33.822  97.858  16.866  0.00  0.00    +0.000 C 
BRANCH  35  36
ATOM     36  O   UNL     1     -32.642  98.683  16.961  0.00  0.00    +0.000 OA
BRANCH  36  38
ATOM     37  O   UNL     1     -31.394  97.476  15.467  0.00  0.00    +0.000 OA
ATOM     38  C   UNL     1     -31.506  98.106  16.506  0.00  0.00    +0.000 C 
BRANCH  38  39
ATOM     39  C   UNL     1     -30.351  98.456  17.383  0.00  0.00    +0.000 C 
ATOM     40  C   UNL     1     -29.492  99.554  16.823  0.00  0.00    +0.000 C 
ATOM     41  C   UNL     1     -30.066  97.859  18.558  0.00  0.00    +0.000 C 
ATOM     42  C   UNL     1     -30.754  96.696  19.199  0.00  0.00    +0.000 C 
ENDBRANCH  38  39
ENDBRANCH  36  38
ENDBRANCH  35  36
ENDBRANCH  11  35
TORSDOF 7
ENDMDL
MODEL 2
REMARK VINA RESULT:      -6.2      3.038      5.831
REMARK  Name = 
REMARK  14 active torsions:
REMARK  status: ('A' for Active; 'I' for Inactive)
REMARK    1  A    between atoms: O_1  and  C_24
REMARK    2  A    between atoms: O_1  and  C_36
REMARK    3  A    between atoms: O_4  and  C_30
REMARK    4  A    between atoms: O_4  and  C_37
REMARK    5  A    between atoms: O_7  and  C_33
REMARK    6  A    between atoms: O_7  and  C_38
REMARK    7  A    between atoms: N_10  and  C_23
REMARK    8  A    between atoms: C_15  and  C_26
REMARK    9  A    between atoms: C_16  and  C_24
REMARK   10  A    between atoms: C_31  and  C_34
REMARK   11  A    between atoms: C_32  and  C_35
REMARK   12  A    between atoms: C_36  and  C_39
REMARK   13  A    between atoms: C_39  and  C_40
REMARK   14  A    between atoms: C_41  and  C_42
REMARK                            x       y       z     vdW  Elec       q    Type
REMARK                         _______ _______ _______ _____ _____    ______ ____
ROOT
ATOM      1  O   UNL     1     -33.106 100.101  18.827  0.00  0.00    +0.000 OA
ATOM      2  O   UNL     1     -29.920 101.320  14.749  0.00  0.00    +0.000 OA
ATOM      3  O   UNL     1     -37.697 100.269  18.027  0.00  0.00    +0.000 OA
ATOM      4  O   UNL     1     -38.245 103.972  14.250  0.00  0.00    +0.000 OA
ATOM      5  N   UNL     1     -34.380 103.528  15.989  0.00  0.00    +0.000 NA
ATOM      6  N   UNL     1     -32.406 104.123  18.081  0.00  0.00    +0.000 NA
ATOM      7  C   UNL     1     -34.527 103.043  17.386  0.00  0.00    +0.000 C 
ATOM      8  C   UNL     1     -33.116 102.812  18.079  0.00  0.00    +0.000 C 
ATOM      9  C   UNL     1     -32.134 104.521  16.676  0.00  0.00    +0.000 C 
ATOM     10  C   UNL     1     -33.495 104.734  15.911  0.00  0.00    +0.000 C 
ATOM     11  C   UNL     1     -35.638 103.661  15.203  0.00  0.00    +0.000 C 
ATOM     12  C   UNL     1     -35.392 101.766  17.436  0.00  0.00    +0.000 C 
ATOM     13  C   UNL     1     -31.240 103.487  15.936  0.00  0.00    +0.000 C 
ATOM     14  C   UNL     1     -32.308 101.744  17.355  0.00  0.00    +0.000 C 
ATOM     15  C   UNL     1     -31.466 102.057  16.360  0.00  0.00    +0.000 C 
ATOM     16  C   UNL     1     -36.803 102.826  15.711  0.00  0.00    +0.000 C 
ATOM     17  C   UNL     1     -36.691 101.943  16.711  0.00  0.00    +0.000 C 
ATOM     18  C   UNL     1     -31.231 104.151  18.946  0.00  0.00    +0.000 C 
ATOM     19  C   UNL     1     -32.435 100.347  17.829  0.00  0.00    +0.000 C 
ATOM     20  C   UNL     1     -30.692 101.017  15.651  0.00  0.00    +0.000 C 
ATOM     21  C   UNL     1     -37.833 101.110  17.145  0.00  0.00    +0.000 C 
ATOM     22  C   UNL     1     -38.123 103.069  15.072  0.00  0.00    +0.000 C 
ATOM     23  C   UNL     1     -31.725  99.275  17.057  0.00  0.00    +0.000 C 
ATOM     24  C   UNL     1     -30.894  99.601  16.054  0.00  0.00    +0.000 C 
ATOM     25  C   UNL     1     -39.135 101.296  16.457  0.00  0.00    +0.000 C 
ATOM     26  C   UNL     1     -39.276 102.196  15.471  0.00  0.00    +0.000 C 
ATOM     27  C   UNL     1     -30.101  98.601  15.263  0.00  0.00    +0.000 C 
ATOM     28  C   UNL     1     -40.243 100.409  16.949  0.00  0.00    +0.000 C 
ENDROOT
BRANCH  23  29
ATOM     29  O   UNL     1     -31.865  97.936  17.404  0.00  0.00    +0.000 OA
ATOM     30  C   UNL     1     -31.022  97.484  18.461  0.00  0.00    +0.000 C 
ENDBRANCH  23  29
BRANCH  26  31
ATOM     31  O   UNL     1     -40.522 102.351  14.873  0.00  0.00    +0.000 OA
ATOM     32  C   UNL     1     -41.323 103.400  15.412  0.00  0.00    +0.000 C 
ENDBRANCH  26  31
BRANCH  10  34
ATOM     33  N   UNL     1     -34.592 106.996  16.758  0.00  0.00    +0.000 NA
ATOM     34  C   UNL     1     -34.123 105.995  16.402  0.00  0.00    +0.000 C 
ENDBRANCH  10  34
BRANCH  11  35
ATOM     35  C   UNL     1     -35.311 103.276  13.729  0.00  0.00    +0.000 C 
BRANCH  35  36
ATOM     36  O   UNL     1     -34.461 102.110  13.722  0.00  0.00    +0.000 OA
BRANCH  36  38
ATOM     37  O   UNL     1     -34.742 100.998  11.739  0.00  0.00    +0.000 OA
ATOM     38  C   UNL     1     -34.900 101.092  12.945  0.00  0.00    +0.000 C 
BRANCH  38  39
ATOM     39  C   UNL     1     -35.495 100.011  13.783  0.00  0.00    +0.000 C 
ATOM     40  C   UNL     1     -34.501  99.354  14.698  0.00  0.00    +0.000 C 
ATOM     41  C   UNL     1     -36.785  99.624  13.740  0.00  0.00    +0.000 C 
ATOM     42  C   UNL     1     -37.868 100.101  12.824  0.00  0.00    +0.000 C 
ENDBRANCH  38  39
ENDBRANCH  36  38
ENDBRANCH  35  36
ENDBRANCH  11  35
TORSDOF 7
ENDMDL
MODEL 3
REMARK VINA RESULT:      -6.2      2.697      6.280
REMARK  Name = 
REMARK  14 active torsions:
REMARK  status: ('A' for Active; 'I' for Inactive)
REMARK    1  A    between atoms: O_1  and  C_24
REMARK    2  A    between atoms: O_1  and  C_36
REMARK    3  A    between atoms: O_4  and  C_30
REMARK    4  A    between atoms: O_4  and  C_37
REMARK    5  A    between atoms: O_7  and  C_33
REMARK    6  A    between atoms: O_7  and  C_38
REMARK    7  A    between atoms: N_10  and  C_23
REMARK    8  A    between atoms: C_15  and  C_26
REMARK    9  A    between atoms: C_16  and  C_24
REMARK   10  A    between atoms: C_31  and  C_34
REMARK   11  A    between atoms: C_32  and  C_35
REMARK   12  A    between atoms: C_36  and  C_39
REMARK   13  A    between atoms: C_39  and  C_40
REMARK   14  A    between atoms: C_41  and  C_42
REMARK                            x       y       z     vdW  Elec       q    Type
REMARK                         _______ _______ _______ _____ _____    ______ ____
ROOT
ATOM      1  O   UNL     1     -31.966  97.474  15.580  0.00  0.00    +0.000 OA
ATOM      2  O   UNL     1     -30.447  99.654  20.185  0.00  0.00    +0.000 OA
ATOM      3  O   UNL     1     -35.882  99.130  13.664  0.00  0.00    +0.000 OA
ATOM      4  O   UNL     1     -38.798 100.745  17.807  0.00  0.00    +0.000 OA
ATOM      5  N   UNL     1     -35.228  98.583  18.669  0.00  0.00    +0.000 NA
ATOM      6  N   UNL     1     -33.761  96.067  19.047  0.00  0.00    +0.000 NA
ATOM      7  C   UNL     1     -34.940  97.652  17.548  0.00  0.00    +0.000 C 
ATOM      8  C   UNL     1     -33.592  96.845  17.786  0.00  0.00    +0.000 C 
ATOM      9  C   UNL     1     -33.899  97.018  20.180  0.00  0.00    +0.000 C 
ATOM     10  C   UNL     1     -35.202  97.882  19.993  0.00  0.00    +0.000 C 
ATOM     11  C   UNL     1     -36.405  99.480  18.493  0.00  0.00    +0.000 C 
ATOM     12  C   UNL     1     -34.911  98.406  16.201  0.00  0.00    +0.000 C 
ATOM     13  C   UNL     1     -32.649  97.928  20.337  0.00  0.00    +0.000 C 
ATOM     14  C   UNL     1     -32.392  97.778  17.866  0.00  0.00    +0.000 C 
ATOM     15  C   UNL     1     -31.977  98.288  19.035  0.00  0.00    +0.000 C 
ATOM     16  C   UNL     1     -36.830  99.705  17.051  0.00  0.00    +0.000 C 
ATOM     17  C   UNL     1     -36.141  99.239  16.003  0.00  0.00    +0.000 C 
ATOM     18  C   UNL     1     -32.737  95.047  19.246  0.00  0.00    +0.000 C 
ATOM     19  C   UNL     1     -31.652  98.057  16.614  0.00  0.00    +0.000 C 
ATOM     20  C   UNL     1     -30.819  99.202  19.108  0.00  0.00    +0.000 C 
ATOM     21  C   UNL     1     -36.556  99.520  14.611  0.00  0.00    +0.000 C 
ATOM     22  C   UNL     1     -38.106 100.439  16.841  0.00  0.00    +0.000 C 
ATOM     23  C   UNL     1     -30.535  99.055  16.664  0.00  0.00    +0.000 C 
ATOM     24  C   UNL     1     -30.137  99.568  17.839  0.00  0.00    +0.000 C 
ATOM     25  C   UNL     1     -37.789 100.318  14.397  0.00  0.00    +0.000 C 
ATOM     26  C   UNL     1     -38.510 100.770  15.435  0.00  0.00    +0.000 C 
ATOM     27  C   UNL     1     -28.994 100.530  17.992  0.00  0.00    +0.000 C 
ATOM     28  C   UNL     1     -38.139 100.568  12.958  0.00  0.00    +0.000 C 
ENDROOT
BRANCH  23  29
ATOM     29  O   UNL     1     -29.852  99.418  15.508  0.00  0.00    +0.000 OA
ATOM     30  C   UNL     1     -30.487 100.410  14.706  0.00  0.00    +0.000 C 
ENDBRANCH  23  29
BRANCH  26  31
ATOM     31  O   UNL     1     -39.671 101.494  15.185  0.00  0.00    +0.000 OA
ATOM     32  C   UNL     1     -39.523 102.911  15.243  0.00  0.00    +0.000 C 
ENDBRANCH  26  31
BRANCH  10  34
ATOM     33  N   UNL     1     -37.323  96.349  20.428  0.00  0.00    +0.000 NA
ATOM     34  C   UNL     1     -36.388  97.016  20.258  0.00  0.00    +0.000 C 
ENDBRANCH  10  34
BRANCH  11  35
ATOM     35  C   UNL     1     -36.057 100.843  19.163  0.00  0.00    +0.000 C 
BRANCH  35  36
ATOM     36  O   UNL     1     -34.837 101.356  18.588  0.00  0.00    +0.000 OA
BRANCH  36  38
ATOM     37  O   UNL     1     -34.219 103.483  19.173  0.00  0.00    +0.000 OA
ATOM     38  C   UNL     1     -34.800 102.701  18.438  0.00  0.00    +0.000 C 
BRANCH  38  39
ATOM     39  C   UNL     1     -35.458 103.105  17.163  0.00  0.00    +0.000 C 
ATOM     40  C   UNL     1     -36.734 103.871  17.370  0.00  0.00    +0.000 C 
ATOM     41  C   UNL     1     -34.993 102.819  15.930  0.00  0.00    +0.000 C 
ATOM     42  C   UNL     1     -33.806 101.989  15.556  0.00  0.00    +0.000 C 
ENDBRANCH  38  39
ENDBRANCH  36  38
ENDBRANCH  35  36
ENDBRANCH  11  35
TORSDOF 7
ENDMDL
MODEL 4
REMARK VINA RESULT:      -6.1      2.818      5.798
REMARK  Name = 
REMARK  14 active torsions:
REMARK  status: ('A' for Active; 'I' for Inactive)
REMARK    1  A    between atoms: O_1  and  C_24
REMARK    2  A    between atoms: O_1  and  C_36
REMARK    3  A    between atoms: O_4  and  C_30
REMARK    4  A    between atoms: O_4  and  C_37
REMARK    5  A    between atoms: O_7  and  C_33
REMARK    6  A    between atoms: O_7  and  C_38
REMARK    7  A    between atoms: N_10  and  C_23
REMARK    8  A    between atoms: C_15  and  C_26
REMARK    9  A    between atoms: C_16  and  C_24
REMARK   10  A    between atoms: C_31  and  C_34
REMARK   11  A    between atoms: C_32  and  C_35
REMARK   12  A    between atoms: C_36  and  C_39
REMARK   13  A    between atoms: C_39  and  C_40
REMARK   14  A    between atoms: C_41  and  C_42
REMARK                            x       y       z     vdW  Elec       q    Type
REMARK                         _______ _______ _______ _____ _____    ______ ____
ROOT
ATOM      1  O   UNL     1     -31.787 103.667  19.882  0.00  0.00    +0.000 OA
ATOM      2  O   UNL     1     -28.721  99.323  19.829  0.00  0.00    +0.000 OA
ATOM      3  O   UNL     1     -35.334 103.770  16.857  0.00  0.00    +0.000 OA
ATOM      4  O   UNL     1     -33.664 100.815  12.763  0.00  0.00    +0.000 OA
ATOM      5  N   UNL     1     -30.814 101.712  15.801  0.00  0.00    +0.000 NA
ATOM      6  N   UNL     1     -28.796 103.470  17.011  0.00  0.00    +0.000 NA
ATOM      7  C   UNL     1     -31.163 103.013  16.428  0.00  0.00    +0.000 C 
ATOM      8  C   UNL     1     -30.162 103.386  17.604  0.00  0.00    +0.000 C 
ATOM      9  C   UNL     1     -28.404 102.123  16.524  0.00  0.00    +0.000 C 
ATOM     10  C   UNL     1     -29.379 101.669  15.374  0.00  0.00    +0.000 C 
ATOM     11  C   UNL     1     -31.760 101.205  14.768  0.00  0.00    +0.000 C 
ATOM     12  C   UNL     1     -32.627 103.014  16.916  0.00  0.00    +0.000 C 
ATOM     13  C   UNL     1     -28.371 101.072  17.668  0.00  0.00    +0.000 C 
ATOM     14  C   UNL     1     -30.217 102.361  18.728  0.00  0.00    +0.000 C 
ATOM     15  C   UNL     1     -29.409 101.291  18.740  0.00  0.00    +0.000 C 
ATOM     16  C   UNL     1     -33.166 101.776  14.849  0.00  0.00    +0.000 C 
ATOM     17  C   UNL     1     -33.574 102.581  15.838  0.00  0.00    +0.000 C 
ATOM     18  C   UNL     1     -27.814 104.095  17.891  0.00  0.00    +0.000 C 
ATOM     19  C   UNL     1     -31.154 102.616  19.846  0.00  0.00    +0.000 C 
ATOM     20  C   UNL     1     -29.473 100.291  19.827  0.00  0.00    +0.000 C 
ATOM     21  C   UNL     1     -34.966 103.077  15.914  0.00  0.00    +0.000 C 
ATOM     22  C   UNL     1     -34.085 101.442  13.730  0.00  0.00    +0.000 C 
ATOM     23  C   UNL     1     -31.292 101.561  20.903  0.00  0.00    +0.000 C 
ATOM     24  C   UNL     1     -30.484 100.488  20.898  0.00  0.00    +0.000 C 
ATOM     25  C   UNL     1     -35.908 102.683  14.838  0.00  0.00    +0.000 C 
ATOM     26  C   UNL     1     -35.510 101.900  13.822  0.00  0.00    +0.000 C 
ATOM     27  C   UNL     1     -30.513  99.411  21.944  0.00  0.00    +0.000 C 
ATOM     28  C   UNL     1     -37.302 103.220  14.989  0.00  0.00    +0.000 C 
ENDROOT
BRANCH  23  29
ATOM     29  O   UNL     1     -32.209 101.704  21.938  0.00  0.00    +0.000 OA
ATOM     30  C   UNL     1     -33.551 101.342  21.623  0.00  0.00    +0.000 C 
ENDBRANCH  23  29
BRANCH  26  31
ATOM     31  O   UNL     1     -36.424 101.576  12.824  0.00  0.00    +0.000 OA
ATOM     32  C   UNL     1     -36.915 100.238  12.867  0.00  0.00    +0.000 C 
ENDBRANCH  26  31
BRANCH  10  34
ATOM     33  N   UNL     1     -28.874 103.101  13.198  0.00  0.00    +0.000 NA
ATOM     34  C   UNL     1     -29.075 102.467  14.150  0.00  0.00    +0.000 C 
ENDBRANCH  10  34
BRANCH  11  35
ATOM     35  C   UNL     1     -31.808  99.653  14.900  0.00  0.00    +0.000 C 
BRANCH  35  36
ATOM     36  O   UNL     1     -31.440  99.281  16.245  0.00  0.00    +0.000 OA
BRANCH  36  38
ATOM     37  O   UNL     1     -32.344  97.177  16.173  0.00  0.00    +0.000 OA
ATOM     38  C   UNL     1     -32.125  98.229  16.752  0.00  0.00    +0.000 C 
BRANCH  38  39
ATOM     39  C   UNL     1     -32.473  98.468  18.182  0.00  0.00    +0.000 C 
ATOM     40  C   UNL     1     -33.372  99.656  18.384  0.00  0.00    +0.000 C 
ATOM     41  C   UNL     1     -32.033  97.726  19.217  0.00  0.00    +0.000 C 
ATOM     42  C   UNL     1     -31.063  96.587  19.197  0.00  0.00    +0.000 C 
ENDBRANCH  38  39
ENDBRANCH  36  38
ENDBRANCH  35  36
ENDBRANCH  11  35
TORSDOF 7
ENDMDL
MODEL 5
REMARK VINA RESULT:      -6.0     26.002     28.520
REMARK  Name = 
REMARK  14 active torsions:
REMARK  status: ('A' for Active; 'I' for Inactive)
REMARK    1  A    between atoms: O_1  and  C_24
REMARK    2  A    between atoms: O_1  and  C_36
REMARK    3  A    between atoms: O_4  and  C_30
REMARK    4  A    between atoms: O_4  and  C_37
REMARK    5  A    between atoms: O_7  and  C_33
REMARK    6  A    between atoms: O_7  and  C_38
REMARK    7  A    between atoms: N_10  and  C_23
REMARK    8  A    between atoms: C_15  and  C_26
REMARK    9  A    between atoms: C_16  and  C_24
REMARK   10  A    between atoms: C_31  and  C_34
REMARK   11  A    between atoms: C_32  and  C_35
REMARK   12  A    between atoms: C_36  and  C_39
REMARK   13  A    between atoms: C_39  and  C_40
REMARK   14  A    between atoms: C_41  and  C_42
REMARK                            x       y       z     vdW  Elec       q    Type
REMARK                         _______ _______ _______ _____ _____    ______ ____
ROOT
ATOM      1  O   UNL     1     -28.276  89.174  -7.117  0.00  0.00    +0.000 OA
ATOM      2  O   UNL     1     -23.415  87.069  -7.567  0.00  0.00    +0.000 OA
ATOM      3  O   UNL     1     -31.461  86.636  -4.845  0.00  0.00    +0.000 OA
ATOM      4  O   UNL     1     -29.983  81.599  -5.691  0.00  0.00    +0.000 OA
ATOM      5  N   UNL     1     -27.913  84.622  -7.866  0.00  0.00    +0.000 NA
ATOM      6  N   UNL     1     -27.654  86.429 -10.167  0.00  0.00    +0.000 NA
ATOM      7  C   UNL     1     -28.821  85.779  -8.077  0.00  0.00    +0.000 C 
ATOM      8  C   UNL     1     -28.093  86.963  -8.846  0.00  0.00    +0.000 C 
ATOM      9  C   UNL     1     -26.634  85.374  -9.939  0.00  0.00    +0.000 C 
ATOM     10  C   UNL     1     -27.277  84.175  -9.147  0.00  0.00    +0.000 C 
ATOM     11  C   UNL     1     -28.454  83.501  -7.047  0.00  0.00    +0.000 C 
ATOM     12  C   UNL     1     -29.417  86.261  -6.738  0.00  0.00    +0.000 C 
ATOM     13  C   UNL     1     -25.382  85.920  -9.198  0.00  0.00    +0.000 C 
ATOM     14  C   UNL     1     -26.916  87.505  -8.047  0.00  0.00    +0.000 C 
ATOM     15  C   UNL     1     -25.680  87.008  -8.197  0.00  0.00    +0.000 C 
ATOM     16  C   UNL     1     -29.605  83.877  -6.127  0.00  0.00    +0.000 C 
ATOM     17  C   UNL     1     -30.031  85.135  -5.964  0.00  0.00    +0.000 C 
ATOM     18  C   UNL     1     -27.242  87.464 -11.109  0.00  0.00    +0.000 C 
ATOM     19  C   UNL     1     -27.168  88.648  -7.139  0.00  0.00    +0.000 C 
ATOM     20  C   UNL     1     -24.541  87.528  -7.412  0.00  0.00    +0.000 C 
ATOM     21  C   UNL     1     -31.120  85.472  -5.020  0.00  0.00    +0.000 C 
ATOM     22  C   UNL     1     -30.293  82.758  -5.433  0.00  0.00    +0.000 C 
ATOM     23  C   UNL     1     -26.039  89.119  -6.271  0.00  0.00    +0.000 C 
ATOM     24  C   UNL     1     -24.808  88.605  -6.423  0.00  0.00    +0.000 C 
ATOM     25  C   UNL     1     -31.760  84.364  -4.268  0.00  0.00    +0.000 C 
ATOM     26  C   UNL     1     -31.366  83.092  -4.440  0.00  0.00    +0.000 C 
ATOM     27  C   UNL     1     -23.609  89.052  -5.639  0.00  0.00    +0.000 C 
ATOM     28  C   UNL     1     -32.851  84.786  -3.327  0.00  0.00    +0.000 C 
ENDROOT
BRANCH  23  29
ATOM     29  O   UNL     1     -26.231  90.136  -5.343  0.00  0.00    +0.000 OA
ATOM     30  C   UNL     1     -26.482  89.708  -4.007  0.00  0.00    +0.000 C 
ENDBRANCH  23  29
BRANCH  26  31
ATOM     31  O   UNL     1     -32.012  82.085  -3.730  0.00  0.00    +0.000 OA
ATOM     32  C   UNL     1     -33.073  81.438  -4.431  0.00  0.00    +0.000 C 
ENDBRANCH  26  31
BRANCH  10  34
ATOM     33  N   UNL     1     -28.902  82.888 -10.802  0.00  0.00    +0.000 NA
ATOM     34  C   UNL     1     -28.190  83.434 -10.065  0.00  0.00    +0.000 C 
ENDBRANCH  10  34
BRANCH  11  35
ATOM     35  C   UNL     1     -27.273  82.921  -6.212  0.00  0.00    +0.000 C 
BRANCH  35  36
ATOM     36  O   UNL     1     -26.398  83.998  -5.816  0.00  0.00    +0.000 OA
BRANCH  36  38
ATOM     37  O   UNL     1     -26.034  83.135  -3.726  0.00  0.00    +0.000 OA
ATOM     38  C   UNL     1     -26.164  84.081  -4.486  0.00  0.00    +0.000 C 
BRANCH  38  39
ATOM     39  C   UNL     1     -25.946  85.498  -4.078  0.00  0.00    +0.000 C 
ATOM     40  C   UNL     1     -27.225  86.267  -3.896  0.00  0.00    +0.000 C 
ATOM     41  C   UNL     1     -24.740  86.072  -3.896  0.00  0.00    +0.000 C 
ATOM     42  C   UNL     1     -23.386  85.482  -4.131  0.00  0.00    +0.000 C 
ENDBRANCH  38  39
ENDBRANCH  36  38
ENDBRANCH  35  36
ENDBRANCH  11  35
TORSDOF 7
ENDMDL
MODEL 6
REMARK VINA RESULT:      -5.9     26.585     29.742
REMARK  Name = 
REMARK  14 active torsions:
REMARK  status: ('A' for Active; 'I' for Inactive)
REMARK    1  A    between atoms: O_1  and  C_24
REMARK    2  A    between atoms: O_1  and  C_36
REMARK    3  A    between atoms: O_4  and  C_30
REMARK    4  A    between atoms: O_4  and  C_37
REMARK    5  A    between atoms: O_7  and  C_33
REMARK    6  A    between atoms: O_7  and  C_38
REMARK    7  A    between atoms: N_10  and  C_23
REMARK    8  A    between atoms: C_15  and  C_26
REMARK    9  A    between atoms: C_16  and  C_24
REMARK   10  A    between atoms: C_31  and  C_34
REMARK   11  A    between atoms: C_32  and  C_35
REMARK   12  A    between atoms: C_36  and  C_39
REMARK   13  A    between atoms: C_39  and  C_40
REMARK   14  A    between atoms: C_41  and  C_42
REMARK                            x       y       z     vdW  Elec       q    Type
REMARK                         _______ _______ _______ _____ _____    ______ ____
ROOT
ATOM      1  O   UNL     1     -22.687  87.274  -6.208  0.00  0.00    +0.000 OA
ATOM      2  O   UNL     1     -26.820  88.967  -3.323  0.00  0.00    +0.000 OA
ATOM      3  O   UNL     1     -23.619  85.740 -10.512  0.00  0.00    +0.000 OA
ATOM      4  O   UNL     1     -28.572  83.834 -10.191  0.00  0.00    +0.000 OA
ATOM      5  N   UNL     1     -26.690  84.976  -6.543  0.00  0.00    +0.000 NA
ATOM      6  N   UNL     1     -24.953  84.405  -4.244  0.00  0.00    +0.000 NA
ATOM      7  C   UNL     1     -25.221  84.802  -6.677  0.00  0.00    +0.000 C 
ATOM      8  C   UNL     1     -24.453  85.255  -5.362  0.00  0.00    +0.000 C 
ATOM      9  C   UNL     1     -26.392  84.702  -4.025  0.00  0.00    +0.000 C 
ATOM     10  C   UNL     1     -27.217  84.310  -5.308  0.00  0.00    +0.000 C 
ATOM     11  C   UNL     1     -27.500  84.698  -7.761  0.00  0.00    +0.000 C 
ATOM     12  C   UNL     1     -24.691  85.547  -7.921  0.00  0.00    +0.000 C 
ATOM     13  C   UNL     1     -26.632  86.190  -3.647  0.00  0.00    +0.000 C 
ATOM     14  C   UNL     1     -24.667  86.734  -5.074  0.00  0.00    +0.000 C 
ATOM     15  C   UNL     1     -25.681  87.158  -4.304  0.00  0.00    +0.000 C 
ATOM     16  C   UNL     1     -26.735  84.783  -9.073  0.00  0.00    +0.000 C 
ATOM     17  C   UNL     1     -25.463  85.192  -9.154  0.00  0.00    +0.000 C 
ATOM     18  C   UNL     1     -24.137  84.487  -3.036  0.00  0.00    +0.000 C 
ATOM     19  C   UNL     1     -23.680  87.692  -5.621  0.00  0.00    +0.000 C 
ATOM     20  C   UNL     1     -25.893  88.596  -4.036  0.00  0.00    +0.000 C 
ATOM     21  C   UNL     1     -24.766  85.312 -10.453  0.00  0.00    +0.000 C 
ATOM     22  C   UNL     1     -27.456  84.332 -10.292  0.00  0.00    +0.000 C 
ATOM     23  C   UNL     1     -23.941  89.157  -5.431  0.00  0.00    +0.000 C 
ATOM     24  C   UNL     1     -24.966  89.569  -4.668  0.00  0.00    +0.000 C 
ATOM     25  C   UNL     1     -25.508  84.935 -11.682  0.00  0.00    +0.000 C 
ATOM     26  C   UNL     1     -26.775  84.495 -11.619  0.00  0.00    +0.000 C 
ATOM     27  C   UNL     1     -25.270  91.010  -4.379  0.00  0.00    +0.000 C 
ATOM     28  C   UNL     1     -24.735  85.092 -12.960  0.00  0.00    +0.000 C 
ENDROOT
BRANCH  23  29
ATOM     29  O   UNL     1     -23.093  90.109  -5.987  0.00  0.00    +0.000 OA
ATOM     30  C   UNL     1     -21.812  90.222  -5.373  0.00  0.00    +0.000 C 
ENDBRANCH  23  29
BRANCH  26  31
ATOM     31  O   UNL     1     -27.421  84.131 -12.796  0.00  0.00    +0.000 OA
ATOM     32  C   UNL     1     -28.321  85.107 -13.316  0.00  0.00    +0.000 C 
ENDBRANCH  26  31
BRANCH  10  34
ATOM     33  N   UNL     1     -27.362  81.667  -5.488  0.00  0.00    +0.000 NA
ATOM     34  C   UNL     1     -27.287  82.822  -5.391  0.00  0.00    +0.000 C 
ENDBRANCH  10  34
BRANCH  11  35
ATOM     35  C   UNL     1     -28.688  85.705  -7.773  0.00  0.00    +0.000 C 
BRANCH  35  36
ATOM     36  O   UNL     1     -28.174  87.043  -7.941  0.00  0.00    +0.000 OA
BRANCH  36  38
ATOM     37  O   UNL     1     -29.122  87.779  -5.991  0.00  0.00    +0.000 OA
ATOM     38  C   UNL     1     -28.730  87.972  -7.130  0.00  0.00    +0.000 C 
BRANCH  38  39
ATOM     39  C   UNL     1     -28.680  89.321  -7.764  0.00  0.00    +0.000 C 
ATOM     40  C   UNL     1     -27.442  90.098  -7.412  0.00  0.00    +0.000 C 
ATOM     41  C   UNL     1     -29.635  89.832  -8.566  0.00  0.00    +0.000 C 
ATOM     42  C   UNL     1     -30.959  89.236  -8.929  0.00  0.00    +0.000 C 
ENDBRANCH  38  39
ENDBRANCH  36  38
ENDBRANCH  35  36
ENDBRANCH  11  35
TORSDOF 7
ENDMDL
MODEL 7
REMARK VINA RESULT:      -5.7      3.074      7.532
REMARK  Name = 
REMARK  14 active torsions:
REMARK  status: ('A' for Active; 'I' for Inactive)
REMARK    1  A    between atoms: O_1  and  C_24
REMARK    2  A    between atoms: O_1  and  C_36
REMARK    3  A    between atoms: O_4  and  C_30
REMARK    4  A    between atoms: O_4  and  C_37
REMARK    5  A    between atoms: O_7  and  C_33
REMARK    6  A    between atoms: O_7  and  C_38
REMARK    7  A    between atoms: N_10  and  C_23
REMARK    8  A    between atoms: C_15  and  C_26
REMARK    9  A    between atoms: C_16  and  C_24
REMARK   10  A    between atoms: C_31  and  C_34
REMARK   11  A    between atoms: C_32  and  C_35
REMARK   12  A    between atoms: C_36  and  C_39
REMARK   13  A    between atoms: C_39  and  C_40
REMARK   14  A    between atoms: C_41  and  C_42
REMARK                            x       y       z     vdW  Elec       q    Type
REMARK                         _______ _______ _______ _____ _____    ______ ____
ROOT
ATOM      1  O   UNL     1     -34.391 101.413  18.995  0.00  0.00    +0.000 OA
ATOM      2  O   UNL     1     -32.457  97.583  15.856  0.00  0.00    +0.000 OA
ATOM      3  O   UNL     1     -32.042 105.440  19.085  0.00  0.00    +0.000 OA
ATOM      4  O   UNL     1     -27.006 104.053  18.095  0.00  0.00    +0.000 OA
ATOM      5  N   UNL     1     -29.800 100.899  18.729  0.00  0.00    +0.000 NA
ATOM      6  N   UNL     1     -31.296  99.092  20.495  0.00  0.00    +0.000 NA
ATOM      7  C   UNL     1     -30.879 101.378  19.632  0.00  0.00    +0.000 C 
ATOM      8  C   UNL     1     -31.981 100.261  19.874  0.00  0.00    +0.000 C 
ATOM      9  C   UNL     1     -30.326  98.533  19.519  0.00  0.00    +0.000 C 
ATOM     10  C   UNL     1     -29.215  99.604  19.202  0.00  0.00    +0.000 C 
ATOM     11  C   UNL     1     -28.776 101.907  18.335  0.00  0.00    +0.000 C 
ATOM     12  C   UNL     1     -31.508 102.680  19.093  0.00  0.00    +0.000 C 
ATOM     13  C   UNL     1     -31.018  98.051  18.215  0.00  0.00    +0.000 C 
ATOM     14  C   UNL     1     -32.675  99.872  18.575  0.00  0.00    +0.000 C 
ATOM     15  C   UNL     1     -32.215  98.872  17.808  0.00  0.00    +0.000 C 
ATOM     16  C   UNL     1     -29.220 103.356  18.459  0.00  0.00    +0.000 C 
ATOM     17  C   UNL     1     -30.469 103.714  18.781  0.00  0.00    +0.000 C 
ATOM     18  C   UNL     1     -32.215  98.104  21.054  0.00  0.00    +0.000 C 
ATOM     19  C   UNL     1     -33.915 100.596  18.214  0.00  0.00    +0.000 C 
ATOM     20  C   UNL     1     -32.883  98.505  16.542  0.00  0.00    +0.000 C 
ATOM     21  C   UNL     1     -30.880 105.134  18.842  0.00  0.00    +0.000 C 
ATOM     22  C   UNL     1     -28.174 104.391  18.256  0.00  0.00    +0.000 C 
ATOM     23  C   UNL     1     -34.545 100.293  16.887  0.00  0.00    +0.000 C 
ATOM     24  C   UNL     1     -34.069  99.297  16.123  0.00  0.00    +0.000 C 
ATOM     25  C   UNL     1     -29.856 106.171  18.564  0.00  0.00    +0.000 C 
ATOM     26  C   UNL     1     -28.590 105.832  18.269  0.00  0.00    +0.000 C 
ATOM     27  C   UNL     1     -34.668  98.888  14.808  0.00  0.00    +0.000 C 
ATOM     28  C   UNL     1     -30.351 107.586  18.639  0.00  0.00    +0.000 C 
ENDROOT
BRANCH  23  29
ATOM     29  O   UNL     1     -35.667 100.992  16.455  0.00  0.00    +0.000 OA
ATOM     30  C   UNL     1     -36.912 100.537  16.979  0.00  0.00    +0.000 C 
ENDBRANCH  23  29
BRANCH  26  31
ATOM     31  O   UNL     1     -27.660 106.840  18.040  0.00  0.00    +0.000 OA
ATOM     32  C   UNL     1     -26.874 107.204  19.173  0.00  0.00    +0.000 C 
ENDBRANCH  26  31
BRANCH  10  34
ATOM     33  N   UNL     1     -27.617  99.785  21.312  0.00  0.00    +0.000 NA
ATOM     34  C   UNL     1     -28.321  99.727  20.390  0.00  0.00    +0.000 C 
ENDBRANCH  10  34
BRANCH  11  35
ATOM     35  C   UNL     1     -28.362 101.602  16.864  0.00  0.00    +0.000 C 
BRANCH  35  36
ATOM     36  O   UNL     1     -29.528 101.187  16.121  0.00  0.00    +0.000 OA
BRANCH  36  38
ATOM     37  O   UNL     1     -29.427 103.100  14.866  0.00  0.00    +0.000 OA
ATOM     38  C   UNL     1     -30.026 102.120  15.277  0.00  0.00    +0.000 C 
BRANCH  38  39
ATOM     39  C   UNL     1     -31.381 101.724  14.797  0.00  0.00    +0.000 C 
ATOM     40  C   UNL     1     -31.369 100.493  13.934  0.00  0.00    +0.000 C 
ATOM     41  C   UNL     1     -32.522 102.385  15.074  0.00  0.00    +0.000 C 
ATOM     42  C   UNL     1     -32.692 103.668  15.824  0.00  0.00    +0.000 C 
ENDBRANCH  38  39
ENDBRANCH  36  38
ENDBRANCH  35  36
ENDBRANCH  11  35
TORSDOF 7
ENDMDL
MODEL 8
REMARK VINA RESULT:      -5.5     13.582     17.161
REMARK  Name = 
REMARK  14 active torsions:
REMARK  status: ('A' for Active; 'I' for Inactive)
REMARK    1  A    between atoms: O_1  and  C_24
REMARK    2  A    between atoms: O_1  and  C_36
REMARK    3  A    between atoms: O_4  and  C_30
REMARK    4  A    between atoms: O_4  and  C_37
REMARK    5  A    between atoms: O_7  and  C_33
REMARK    6  A    between atoms: O_7  and  C_38
REMARK    7  A    between atoms: N_10  and  C_23
REMARK    8  A    between atoms: C_15  and  C_26
REMARK    9  A    between atoms: C_16  and  C_24
REMARK   10  A    between atoms: C_31  and  C_34
REMARK   11  A    between atoms: C_32  and  C_35
REMARK   12  A    between atoms: C_36  and  C_39
REMARK   13  A    between atoms: C_39  and  C_40
REMARK   14  A    between atoms: C_41  and  C_42
REMARK                            x       y       z     vdW  Elec       q    Type
REMARK                         _______ _______ _______ _____ _____    ______ ____
ROOT
ATOM      1  O   UNL     1     -42.494 105.971   0.742  0.00  0.00    +0.000 OA
ATOM      2  O   UNL     1     -42.288 100.776   1.854  0.00  0.00    +0.000 OA
ATOM      3  O   UNL     1     -38.729 108.501   1.822  0.00  0.00    +0.000 OA
ATOM      4  O   UNL     1     -36.596 105.980   5.990  0.00  0.00    +0.000 OA
ATOM      5  N   UNL     1     -40.415 104.642   4.657  0.00  0.00    +0.000 NA
ATOM      6  N   UNL     1     -43.347 104.812   4.635  0.00  0.00    +0.000 NA
ATOM      7  C   UNL     1     -41.144 105.782   4.042  0.00  0.00    +0.000 C 
ATOM      8  C   UNL     1     -42.562 105.338   3.481  0.00  0.00    +0.000 C 
ATOM      9  C   UNL     1     -42.684 103.584   5.143  0.00  0.00    +0.000 C 
ATOM     10  C   UNL     1     -41.249 103.942   5.686  0.00  0.00    +0.000 C 
ATOM     11  C   UNL     1     -39.022 104.917   5.106  0.00  0.00    +0.000 C 
ATOM     12  C   UNL     1     -40.290 106.450   2.943  0.00  0.00    +0.000 C 
ATOM     13  C   UNL     1     -42.605 102.470   4.063  0.00  0.00    +0.000 C 
ATOM     14  C   UNL     1     -42.425 104.295   2.381  0.00  0.00    +0.000 C 
ATOM     15  C   UNL     1     -42.424 102.983   2.656  0.00  0.00    +0.000 C 
ATOM     16  C   UNL     1     -38.356 106.109   4.438  0.00  0.00    +0.000 C 
ATOM     17  C   UNL     1     -38.918 106.796   3.436  0.00  0.00    +0.000 C 
ATOM     18  C   UNL     1     -44.769 104.646   4.348  0.00  0.00    +0.000 C 
ATOM     19  C   UNL     1     -42.356 104.776   0.982  0.00  0.00    +0.000 C 
ATOM     20  C   UNL     1     -42.279 101.973   1.587  0.00  0.00    +0.000 C 
ATOM     21  C   UNL     1     -38.219 107.919   2.773  0.00  0.00    +0.000 C 
ATOM     22  C   UNL     1     -37.041 106.530   4.988  0.00  0.00    +0.000 C 
ATOM     23  C   UNL     1     -42.115 103.764  -0.098  0.00  0.00    +0.000 C 
ATOM     24  C   UNL     1     -42.104 102.453   0.192  0.00  0.00    +0.000 C 
ATOM     25  C   UNL     1     -36.872 108.294   3.270  0.00  0.00    +0.000 C 
ATOM     26  C   UNL     1     -36.303 107.636   4.293  0.00  0.00    +0.000 C 
ATOM     27  C   UNL     1     -41.925 101.369  -0.831  0.00  0.00    +0.000 C 
ATOM     28  C   UNL     1     -36.225 109.437   2.542  0.00  0.00    +0.000 C 
ENDROOT
BRANCH  23  29
ATOM     29  O   UNL     1     -41.963 104.159  -1.423  0.00  0.00    +0.000 OA
ATOM     30  C   UNL     1     -43.175 104.412  -2.130  0.00  0.00    +0.000 C 
ENDBRANCH  23  29
BRANCH  26  31
ATOM     31  O   UNL     1     -35.049 108.039   4.738  0.00  0.00    +0.000 OA
ATOM     32  C   UNL     1     -33.970 107.191   4.351  0.00  0.00    +0.000 C 
ENDBRANCH  26  31
BRANCH  10  34
ATOM     33  N   UNL     1     -41.550 105.247   7.976  0.00  0.00    +0.000 NA
ATOM     34  C   UNL     1     -41.400 104.686   6.971  0.00  0.00    +0.000 C 
ENDBRANCH  10  34
BRANCH  11  35
ATOM     35  C   UNL     1     -38.185 103.628   4.849  0.00  0.00    +0.000 C 
BRANCH  35  36
ATOM     36  O   UNL     1     -38.437 103.159   3.508  0.00  0.00    +0.000 OA
BRANCH  36  38
ATOM     37  O   UNL     1     -36.421 102.322   2.816  0.00  0.00    +0.000 OA
ATOM     38  C   UNL     1     -37.346 103.110   2.708  0.00  0.00    +0.000 C 
BRANCH  38  39
ATOM     39  C   UNL     1     -37.482 104.069   1.575  0.00  0.00    +0.000 C 
ATOM     40  C   UNL     1     -38.788 103.943   0.843  0.00  0.00    +0.000 C 
ATOM     41  C   UNL     1     -36.544 104.963   1.205  0.00  0.00    +0.000 C 
ATOM     42  C   UNL     1     -35.166 105.146   1.758  0.00  0.00    +0.000 C 
ENDBRANCH  38  39
ENDBRANCH  36  38
ENDBRANCH  35  36
ENDBRANCH  11  35
TORSDOF 7
ENDMDL
MODEL 9
REMARK VINA RESULT:      -5.3     18.638     21.876
REMARK  Name = 
REMARK  14 active torsions:
REMARK  status: ('A' for Active; 'I' for Inactive)
REMARK    1  A    between atoms: O_1  and  C_24
REMARK    2  A    between atoms: O_1  and  C_36
REMARK    3  A    between atoms: O_4  and  C_30
REMARK    4  A    between atoms: O_4  and  C_37
REMARK    5  A    between atoms: O_7  and  C_33
REMARK    6  A    between atoms: O_7  and  C_38
REMARK    7  A    between atoms: N_10  and  C_23
REMARK    8  A    between atoms: C_15  and  C_26
REMARK    9  A    between atoms: C_16  and  C_24
REMARK   10  A    between atoms: C_31  and  C_34
REMARK   11  A    between atoms: C_32  and  C_35
REMARK   12  A    between atoms: C_36  and  C_39
REMARK   13  A    between atoms: C_39  and  C_40
REMARK   14  A    between atoms: C_41  and  C_42
REMARK                            x       y       z     vdW  Elec       q    Type
REMARK                         _______ _______ _______ _____ _____    ______ ____
ROOT
ATOM      1  O   UNL     1     -24.328  80.044   6.539  0.00  0.00    +0.000 OA
ATOM      2  O   UNL     1     -23.225  84.921   8.346  0.00  0.00    +0.000 OA
ATOM      3  O   UNL     1     -28.824  78.812   6.432  0.00  0.00    +0.000 OA
ATOM      4  O   UNL     1     -31.043  81.568  10.400  0.00  0.00    +0.000 OA
ATOM      5  N   UNL     1     -26.795  81.680  10.096  0.00  0.00    +0.000 NA
ATOM      6  N   UNL     1     -24.136  80.563  10.652  0.00  0.00    +0.000 NA
ATOM      7  C   UNL     1     -26.316  80.415   9.481  0.00  0.00    +0.000 C 
ATOM      8  C   UNL     1     -24.739  80.411   9.296  0.00  0.00    +0.000 C 
ATOM      9  C   UNL     1     -24.502  81.898  11.190  0.00  0.00    +0.000 C 
ATOM     10  C   UNL     1     -26.064  81.989  11.367  0.00  0.00    +0.000 C 
ATOM     11  C   UNL     1     -28.271  81.843  10.203  0.00  0.00    +0.000 C 
ATOM     12  C   UNL     1     -27.038  80.148   8.143  0.00  0.00    +0.000 C 
ATOM     13  C   UNL     1     -23.978  83.055  10.295  0.00  0.00    +0.000 C 
ATOM     14  C   UNL     1     -24.285  81.522   8.359  0.00  0.00    +0.000 C 
ATOM     15  C   UNL     1     -23.958  82.738   8.821  0.00  0.00    +0.000 C 
ATOM     16  C   UNL     1     -29.082  80.988   9.242  0.00  0.00    +0.000 C 
ATOM     17  C   UNL     1     -28.527  80.234   8.286  0.00  0.00    +0.000 C 
ATOM     18  C   UNL     1     -22.705  80.276  10.691  0.00  0.00    +0.000 C 
ATOM     19  C   UNL     1     -24.154  81.197   6.920  0.00  0.00    +0.000 C 
ATOM     20  C   UNL     1     -23.529  83.817   7.908  0.00  0.00    +0.000 C 
ATOM     21  C   UNL     1     -29.349  79.455   7.334  0.00  0.00    +0.000 C 
ATOM     22  C   UNL     1     -30.555  80.981   9.440  0.00  0.00    +0.000 C 
ATOM     23  C   UNL     1     -23.810  82.311   5.977  0.00  0.00    +0.000 C 
ATOM     24  C   UNL     1     -23.496  83.528   6.451  0.00  0.00    +0.000 C 
ATOM     25  C   UNL     1     -30.825  79.505   7.481  0.00  0.00    +0.000 C 
ATOM     26  C   UNL     1     -31.400  80.233   8.452  0.00  0.00    +0.000 C 
ATOM     27  C   UNL     1     -23.087  84.685   5.586  0.00  0.00    +0.000 C 
ATOM     28  C   UNL     1     -31.589  78.694   6.474  0.00  0.00    +0.000 C 
ENDROOT
BRANCH  23  29
ATOM     29  O   UNL     1     -23.748  82.089   4.605  0.00  0.00    +0.000 OA
ATOM     30  C   UNL     1     -22.532  81.516   4.131  0.00  0.00    +0.000 C 
ENDBRANCH  23  29
BRANCH  26  31
ATOM     31  O   UNL     1     -32.786  80.229   8.565  0.00  0.00    +0.000 OA
ATOM     32  C   UNL     1     -33.313  79.283   9.493  0.00  0.00    +0.000 C 
ENDBRANCH  26  31
BRANCH  10  34
ATOM     33  N   UNL     1     -26.791  80.512  13.447  0.00  0.00    +0.000 NA
ATOM     34  C   UNL     1     -26.461  81.142  12.530  0.00  0.00    +0.000 C 
ENDBRANCH  10  34
BRANCH  11  35
ATOM     35  C   UNL     1     -28.593  83.351   9.975  0.00  0.00    +0.000 C 
BRANCH  35  36
ATOM     36  O   UNL     1     -28.797  83.990  11.252  0.00  0.00    +0.000 OA
BRANCH  36  38
ATOM     37  O   UNL     1     -26.835  85.172  11.252  0.00  0.00    +0.000 OA
ATOM     38  C   UNL     1     -28.033  85.086  11.468  0.00  0.00    +0.000 C 
BRANCH  38  39
ATOM     39  C   UNL     1     -28.878  86.241  11.886  0.00  0.00    +0.000 C 
ATOM     40  C   UNL     1     -29.895  86.638  10.852  0.00  0.00    +0.000 C 
ATOM     41  C   UNL     1     -28.761  86.899  13.057  0.00  0.00    +0.000 C 
ATOM     42  C   UNL     1     -27.747  86.698  14.137  0.00  0.00    +0.000 C 
ENDBRANCH  38  39
ENDBRANCH  36  38
ENDBRANCH  35  36
ENDBRANCH  11  35
TORSDOF 7
ENDMDL
