MODEL 1
REMARK VINA RESULT:      -5.8      0.000      0.000
REMARK  Name = Resveratrol.pdbqt.pdb
REMARK  5 active torsions:
REMARK  status: ('A' for Active; 'I' for Inactive)
REMARK    1  A    between atoms: C_1  and  C_11
REMARK    2  A    between atoms: C_4  and  O_7
REMARK    3  A    between atoms: C_5  and  O_9
REMARK    4  A    between atoms: C_12  and  C_13
REMARK    5  A    between atoms: C_18  and  O_19
REMARK                            x       y       z     vdW  Elec       q    Type
REMARK                         _______ _______ _______ _____ _____    ______ ____
ROOT
ATOM      1  C   UNL     1     -43.921 101.145   3.536  0.00  0.00    +0.000 A 
ATOM      2  C   UNL     1     -44.717 101.120   4.680  0.00  0.00    +0.000 A 
ATOM      3  C   UNL     1     -44.467 100.820   2.294  0.00  0.00    +0.000 A 
ATOM      4  C   UNL     1     -45.813 100.473   2.208  0.00  0.00    +0.000 A 
ATOM      5  C   UNL     1     -46.059 100.770   4.573  0.00  0.00    +0.000 A 
ATOM      6  C   UNL     1     -46.619 100.445   3.341  0.00  0.00    +0.000 A 
ENDROOT
BRANCH   4   7
ATOM      7  O   UNL     1     -46.374 100.151   1.006  0.00  0.00    +0.000 OA
ATOM      8  H   UNL     1     -46.119  99.238   0.787  0.00  0.00    +0.000 HD
ENDBRANCH   4   7
BRANCH   5   9
ATOM      9  O   UNL     1     -46.819 100.753   5.707  0.00  0.00    +0.000 OA
ATOM     10  H   UNL     1     -47.389 101.543   5.698  0.00  0.00    +0.000 HD
ENDBRANCH   5   9
BRANCH   1  11
ATOM     11  C   UNL     1     -42.544 101.501   3.633  0.00  0.00    +0.000 C 
ATOM     12  C   UNL     1     -41.383 101.801   3.715  0.00  0.00    +0.000 C 
BRANCH  12  13
ATOM     13  C   UNL     1     -40.006 102.157   3.811  0.00  0.00    +0.000 A 
ATOM     14  C   UNL     1     -39.519 102.740   4.981  0.00  0.00    +0.000 A 
ATOM     15  C   UNL     1     -39.149 101.923   2.736  0.00  0.00    +0.000 A 
ATOM     16  C   UNL     1     -38.175 103.089   5.078  0.00  0.00    +0.000 A 
ATOM     17  C   UNL     1     -37.805 102.270   2.828  0.00  0.00    +0.000 A 
ATOM     18  C   UNL     1     -37.328 102.851   3.999  0.00  0.00    +0.000 A 
BRANCH  18  19
ATOM     19  O   UNL     1     -36.006 103.183   4.066  0.00  0.00    +0.000 OA
ATOM     20  H   UNL     1     -35.652 103.211   3.160  0.00  0.00    +0.000 HD
ENDBRANCH  18  19
ENDBRANCH  12  13
ENDBRANCH   1  11
TORSDOF 5
ENDMDL
MODEL 2
REMARK VINA RESULT:      -5.8      0.066      2.326
REMARK  Name = Resveratrol.pdbqt.pdb
REMARK  5 active torsions:
REMARK  status: ('A' for Active; 'I' for Inactive)
REMARK    1  A    between atoms: C_1  and  C_11
REMARK    2  A    between atoms: C_4  and  O_7
REMARK    3  A    between atoms: C_5  and  O_9
REMARK    4  A    between atoms: C_12  and  C_13
REMARK    5  A    between atoms: C_18  and  O_19
REMARK                            x       y       z     vdW  Elec       q    Type
REMARK                         _______ _______ _______ _____ _____    ______ ____
ROOT
ATOM      1  C   UNL     1     -43.932 101.168   3.598  0.00  0.00    +0.000 A 
ATOM      2  C   UNL     1     -44.493 100.828   2.368  0.00  0.00    +0.000 A 
ATOM      3  C   UNL     1     -44.716 101.169   4.751  0.00  0.00    +0.000 A 
ATOM      4  C   UNL     1     -46.063 100.827   4.663  0.00  0.00    +0.000 A 
ATOM      5  C   UNL     1     -45.841 100.490   2.301  0.00  0.00    +0.000 A 
ATOM      6  C   UNL     1     -46.636 100.485   3.442  0.00  0.00    +0.000 A 
ENDROOT
BRANCH   4   7
ATOM      7  O   UNL     1     -46.855 100.819   5.775  0.00  0.00    +0.000 OA
ATOM      8  H   UNL     1     -46.290 100.982   6.551  0.00  0.00    +0.000 HD
ENDBRANCH   4   7
BRANCH   5   9
ATOM      9  O   UNL     1     -46.368 100.161   1.086  0.00  0.00    +0.000 OA
ATOM     10  H   UNL     1     -45.721  99.602   0.619  0.00  0.00    +0.000 HD
ENDBRANCH   5   9
BRANCH   1  11
ATOM     11  C   UNL     1     -42.552 101.517   3.680  0.00  0.00    +0.000 C 
ATOM     12  C   UNL     1     -41.389 101.812   3.748  0.00  0.00    +0.000 C 
BRANCH  12  13
ATOM     13  C   UNL     1     -40.009 102.163   3.830  0.00  0.00    +0.000 A 
ATOM     14  C   UNL     1     -39.163 101.913   2.750  0.00  0.00    +0.000 A 
ATOM     15  C   UNL     1     -39.509 102.753   4.991  0.00  0.00    +0.000 A 
ATOM     16  C   UNL     1     -37.816 102.255   2.827  0.00  0.00    +0.000 A 
ATOM     17  C   UNL     1     -38.162 103.095   5.072  0.00  0.00    +0.000 A 
ATOM     18  C   UNL     1     -37.326 102.843   3.989  0.00  0.00    +0.000 A 
BRANCH  18  19
ATOM     19  O   UNL     1     -36.010 103.188   4.093  0.00  0.00    +0.000 OA
ATOM     20  H   UNL     1     -35.951 104.157   4.148  0.00  0.00    +0.000 HD
ENDBRANCH  18  19
ENDBRANCH  12  13
ENDBRANCH   1  11
TORSDOF 5
ENDMDL
MODEL 3
REMARK VINA RESULT:      -5.8     11.754     16.001
REMARK  Name = Resveratrol.pdbqt.pdb
REMARK  5 active torsions:
REMARK  status: ('A' for Active; 'I' for Inactive)
REMARK    1  A    between atoms: C_1  and  C_11
REMARK    2  A    between atoms: C_4  and  O_7
REMARK    3  A    between atoms: C_5  and  O_9
REMARK    4  A    between atoms: C_12  and  C_13
REMARK    5  A    between atoms: C_18  and  O_19
REMARK                            x       y       z     vdW  Elec       q    Type
REMARK                         _______ _______ _______ _____ _____    ______ ____
ROOT
ATOM      1  C   UNL     1     -31.566 100.493  15.061  0.00  0.00    +0.000 A 
ATOM      2  C   UNL     1     -31.019  99.771  16.121  0.00  0.00    +0.000 A 
ATOM      3  C   UNL     1     -30.767 101.362  14.318  0.00  0.00    +0.000 A 
ATOM      4  C   UNL     1     -29.421 101.501  14.642  0.00  0.00    +0.000 A 
ATOM      5  C   UNL     1     -29.671  99.925  16.429  0.00  0.00    +0.000 A 
ATOM      6  C   UNL     1     -28.861 100.787  15.697  0.00  0.00    +0.000 A 
ENDROOT
BRANCH   4   7
ATOM      7  O   UNL     1     -28.615 102.344  13.932  0.00  0.00    +0.000 OA
ATOM      8  H   UNL     1     -28.253 101.851  13.174  0.00  0.00    +0.000 HD
ENDBRANCH   4   7
BRANCH   5   9
ATOM      9  O   UNL     1     -29.157  99.208  17.471  0.00  0.00    +0.000 OA
ATOM     10  H   UNL     1     -29.902  98.836  17.976  0.00  0.00    +0.000 HD
ENDBRANCH   5   9
BRANCH   1  11
ATOM     11  C   UNL     1     -32.946 100.345  14.735  0.00  0.00    +0.000 C 
ATOM     12  C   UNL     1     -34.109 100.220  14.462  0.00  0.00    +0.000 C 
BRANCH  12  13
ATOM     13  C   UNL     1     -35.490 100.072  14.137  0.00  0.00    +0.000 A 
ATOM     14  C   UNL     1     -36.361  99.486  15.055  0.00  0.00    +0.000 A 
ATOM     15  C   UNL     1     -35.966 100.514  12.903  0.00  0.00    +0.000 A 
ATOM     16  C   UNL     1     -37.709  99.341  14.741  0.00  0.00    +0.000 A 
ATOM     17  C   UNL     1     -37.313 100.370  12.584  0.00  0.00    +0.000 A 
ATOM     18  C   UNL     1     -38.175  99.784  13.506  0.00  0.00    +0.000 A 
BRANCH  18  19
ATOM     19  O   UNL     1     -39.491  99.654  13.172  0.00  0.00    +0.000 OA
ATOM     20  H   UNL     1     -39.871  98.931  13.702  0.00  0.00    +0.000 HD
ENDBRANCH  18  19
ENDBRANCH  12  13
ENDBRANCH   1  11
TORSDOF 5
ENDMDL
MODEL 4
REMARK VINA RESULT:      -5.6     11.811     15.971
REMARK  Name = Resveratrol.pdbqt.pdb
REMARK  5 active torsions:
REMARK  status: ('A' for Active; 'I' for Inactive)
REMARK    1  A    between atoms: C_1  and  C_11
REMARK    2  A    between atoms: C_4  and  O_7
REMARK    3  A    between atoms: C_5  and  O_9
REMARK    4  A    between atoms: C_12  and  C_13
REMARK    5  A    between atoms: C_18  and  O_19
REMARK                            x       y       z     vdW  Elec       q    Type
REMARK                         _______ _______ _______ _____ _____    ______ ____
ROOT
ATOM      1  C   UNL     1     -32.027  99.791  15.277  0.00  0.00    +0.000 A 
ATOM      2  C   UNL     1     -31.096 100.611  14.640  0.00  0.00    +0.000 A 
ATOM      3  C   UNL     1     -31.624  98.933  16.299  0.00  0.00    +0.000 A 
ATOM      4  C   UNL     1     -30.284  98.902  16.677  0.00  0.00    +0.000 A 
ATOM      5  C   UNL     1     -29.763 100.564  15.033  0.00  0.00    +0.000 A 
ATOM      6  C   UNL     1     -29.344  99.714  16.051  0.00  0.00    +0.000 A 
ENDROOT
BRANCH   4   7
ATOM      7  O   UNL     1     -29.860  98.072  17.675  0.00  0.00    +0.000 OA
ATOM      8  H   UNL     1     -30.202  98.414  18.520  0.00  0.00    +0.000 HD
ENDBRANCH   4   7
BRANCH   5   9
ATOM      9  O   UNL     1     -28.869 101.376  14.395  0.00  0.00    +0.000 OA
ATOM     10  H   UNL     1     -29.364 101.937  13.773  0.00  0.00    +0.000 HD
ENDBRANCH   5   9
BRANCH   1  11
ATOM     11  C   UNL     1     -33.397  99.829  14.882  0.00  0.00    +0.000 C 
ATOM     12  C   UNL     1     -34.551  99.861  14.549  0.00  0.00    +0.000 C 
BRANCH  12  13
ATOM     13  C   UNL     1     -35.921  99.897  14.154  0.00  0.00    +0.000 A 
ATOM     14  C   UNL     1     -36.276 100.467  12.931  0.00  0.00    +0.000 A 
ATOM     15  C   UNL     1     -36.901  99.365  14.991  0.00  0.00    +0.000 A 
ATOM     16  C   UNL     1     -37.613 100.503  12.543  0.00  0.00    +0.000 A 
ATOM     17  C   UNL     1     -38.239  99.400  14.607  0.00  0.00    +0.000 A 
ATOM     18  C   UNL     1     -38.584  99.970  13.385  0.00  0.00    +0.000 A 
BRANCH  18  19
ATOM     19  O   UNL     1     -39.901  99.993  13.030  0.00  0.00    +0.000 OA
ATOM     20  H   UNL     1     -40.180 100.921  12.950  0.00  0.00    +0.000 HD
ENDBRANCH  18  19
ENDBRANCH  12  13
ENDBRANCH   1  11
TORSDOF 5
ENDMDL
MODEL 5
REMARK VINA RESULT:      -5.5     12.967     16.735
REMARK  Name = Resveratrol.pdbqt.pdb
REMARK  5 active torsions:
REMARK  status: ('A' for Active; 'I' for Inactive)
REMARK    1  A    between atoms: C_1  and  C_11
REMARK    2  A    between atoms: C_4  and  O_7
REMARK    3  A    between atoms: C_5  and  O_9
REMARK    4  A    between atoms: C_12  and  C_13
REMARK    5  A    between atoms: C_18  and  O_19
REMARK                            x       y       z     vdW  Elec       q    Type
REMARK                         _______ _______ _______ _____ _____    ______ ____
ROOT
ATOM      1  C   UNL     1     -32.056  98.768  16.755  0.00  0.00    +0.000 A 
ATOM      2  C   UNL     1     -30.933  99.580  16.602  0.00  0.00    +0.000 A 
ATOM      3  C   UNL     1     -32.028  97.690  17.639  0.00  0.00    +0.000 A 
ATOM      4  C   UNL     1     -30.869  97.432  18.367  0.00  0.00    +0.000 A 
ATOM      5  C   UNL     1     -29.785  99.304  17.338  0.00  0.00    +0.000 A 
ATOM      6  C   UNL     1     -29.741  98.233  18.224  0.00  0.00    +0.000 A 
ENDROOT
BRANCH   4   7
ATOM      7  O   UNL     1     -30.813  96.384  19.240  0.00  0.00    +0.000 OA
ATOM      8  H   UNL     1     -30.460  95.611  18.764  0.00  0.00    +0.000 HD
ENDBRANCH   4   7
BRANCH   5   9
ATOM      9  O   UNL     1     -28.697 100.113  17.171  0.00  0.00    +0.000 OA
ATOM     10  H   UNL     1     -28.706 100.778  17.882  0.00  0.00    +0.000 HD
ENDBRANCH   5   9
BRANCH   1  11
ATOM     11  C   UNL     1     -33.239  99.039  16.005  0.00  0.00    +0.000 C 
ATOM     12  C   UNL     1     -34.235  99.267  15.374  0.00  0.00    +0.000 C 
BRANCH  12  13
ATOM     13  C   UNL     1     -35.418  99.538  14.625  0.00  0.00    +0.000 A 
ATOM     14  C   UNL     1     -36.622  98.934  14.986  0.00  0.00    +0.000 A 
ATOM     15  C   UNL     1     -35.368 100.405  13.534  0.00  0.00    +0.000 A 
ATOM     16  C   UNL     1     -37.778  99.197  14.257  0.00  0.00    +0.000 A 
ATOM     17  C   UNL     1     -36.522 100.671  12.802  0.00  0.00    +0.000 A 
ATOM     18  C   UNL     1     -37.718 100.063  13.169  0.00  0.00    +0.000 A 
BRANCH  18  19
ATOM     19  O   UNL     1     -38.836 100.339  12.437  0.00  0.00    +0.000 OA
ATOM     20  H   UNL     1     -38.938  99.645  11.762  0.00  0.00    +0.000 HD
ENDBRANCH  18  19
ENDBRANCH  12  13
ENDBRANCH   1  11
TORSDOF 5
ENDMDL
MODEL 6
REMARK VINA RESULT:      -5.4     21.667     23.121
REMARK  Name = Resveratrol.pdbqt.pdb
REMARK  5 active torsions:
REMARK  status: ('A' for Active; 'I' for Inactive)
REMARK    1  A    between atoms: C_1  and  C_11
REMARK    2  A    between atoms: C_4  and  O_7
REMARK    3  A    between atoms: C_5  and  O_9
REMARK    4  A    between atoms: C_12  and  C_13
REMARK    5  A    between atoms: C_18  and  O_19
REMARK                            x       y       z     vdW  Elec       q    Type
REMARK                         _______ _______ _______ _____ _____    ______ ____
ROOT
ATOM      1  C   UNL     1     -27.757  86.239  12.558  0.00  0.00    +0.000 A 
ATOM      2  C   UNL     1     -28.634  85.710  11.611  0.00  0.00    +0.000 A 
ATOM      3  C   UNL     1     -26.391  85.971  12.477  0.00  0.00    +0.000 A 
ATOM      4  C   UNL     1     -25.911  85.172  11.442  0.00  0.00    +0.000 A 
ATOM      5  C   UNL     1     -28.133  84.913  10.586  0.00  0.00    +0.000 A 
ATOM      6  C   UNL     1     -26.773  84.638  10.491  0.00  0.00    +0.000 A 
ENDROOT
BRANCH   4   7
ATOM      7  O   UNL     1     -24.579  84.893  11.338  0.00  0.00    +0.000 OA
ATOM      8  H   UNL     1     -24.149  85.147  12.174  0.00  0.00    +0.000 HD
ENDBRANCH   4   7
BRANCH   5   9
ATOM      9  O   UNL     1     -29.010  84.406   9.671  0.00  0.00    +0.000 OA
ATOM     10  H   UNL     1     -29.088  83.449   9.827  0.00  0.00    +0.000 HD
ENDBRANCH   5   9
BRANCH   1  11
ATOM     11  C   UNL     1     -28.258  87.056  13.614  0.00  0.00    +0.000 C 
ATOM     12  C   UNL     1     -28.680  87.744  14.504  0.00  0.00    +0.000 C 
BRANCH  12  13
ATOM     13  C   UNL     1     -29.182  88.561  15.560  0.00  0.00    +0.000 A 
ATOM     14  C   UNL     1     -28.828  89.908  15.624  0.00  0.00    +0.000 A 
ATOM     15  C   UNL     1     -30.024  88.010  16.525  0.00  0.00    +0.000 A 
ATOM     16  C   UNL     1     -29.316  90.708  16.653  0.00  0.00    +0.000 A 
ATOM     17  C   UNL     1     -30.514  88.806  17.557  0.00  0.00    +0.000 A 
ATOM     18  C   UNL     1     -30.156  90.149  17.613  0.00  0.00    +0.000 A 
BRANCH  18  19
ATOM     19  O   UNL     1     -30.649  90.909  18.633  0.00  0.00    +0.000 OA
ATOM     20  H   UNL     1     -29.903  91.361  19.065  0.00  0.00    +0.000 HD
ENDBRANCH  18  19
ENDBRANCH  12  13
ENDBRANCH   1  11
TORSDOF 5
ENDMDL
MODEL 7
REMARK VINA RESULT:      -5.2     17.779     19.365
REMARK  Name = Resveratrol.pdbqt.pdb
REMARK  5 active torsions:
REMARK  status: ('A' for Active; 'I' for Inactive)
REMARK    1  A    between atoms: C_1  and  C_11
REMARK    2  A    between atoms: C_4  and  O_7
REMARK    3  A    between atoms: C_5  and  O_9
REMARK    4  A    between atoms: C_12  and  C_13
REMARK    5  A    between atoms: C_18  and  O_19
REMARK                            x       y       z     vdW  Elec       q    Type
REMARK                         _______ _______ _______ _____ _____    ______ ____
ROOT
ATOM      1  C   UNL     1     -23.769 102.046   2.669  0.00  0.00    +0.000 A 
ATOM      2  C   UNL     1     -22.801 102.486   3.572  0.00  0.00    +0.000 A 
ATOM      3  C   UNL     1     -24.697 101.079   3.052  0.00  0.00    +0.000 A 
ATOM      4  C   UNL     1     -24.649 100.556   4.342  0.00  0.00    +0.000 A 
ATOM      5  C   UNL     1     -22.770 101.950   4.855  0.00  0.00    +0.000 A 
ATOM      6  C   UNL     1     -23.689 100.985   5.252  0.00  0.00    +0.000 A 
ENDROOT
BRANCH   4   7
ATOM      7  O   UNL     1     -25.545  99.609   4.744  0.00  0.00    +0.000 OA
ATOM      8  H   UNL     1     -25.162  99.130   5.500  0.00  0.00    +0.000 HD
ENDBRANCH   4   7
BRANCH   5   9
ATOM      9  O   UNL     1     -21.813 102.396   5.722  0.00  0.00    +0.000 OA
ATOM     10  H   UNL     1     -21.220 102.995   5.233  0.00  0.00    +0.000 HD
ENDBRANCH   5   9
BRANCH   1  11
ATOM     11  C   UNL     1     -23.810 102.586   1.350  0.00  0.00    +0.000 C 
ATOM     12  C   UNL     1     -23.846 103.042   0.239  0.00  0.00    +0.000 C 
BRANCH  12  13
ATOM     13  C   UNL     1     -23.887 103.583  -1.080  0.00  0.00    +0.000 A 
ATOM     14  C   UNL     1     -22.895 103.246  -2.000  0.00  0.00    +0.000 A 
ATOM     15  C   UNL     1     -24.919 104.447  -1.446  0.00  0.00    +0.000 A 
ATOM     16  C   UNL     1     -22.933 103.773  -3.288  0.00  0.00    +0.000 A 
ATOM     17  C   UNL     1     -24.961 104.975  -2.733  0.00  0.00    +0.000 A 
ATOM     18  C   UNL     1     -23.967 104.634  -3.644  0.00  0.00    +0.000 A 
BRANCH  18  19
ATOM     19  O   UNL     1     -24.029 105.165  -4.900  0.00  0.00    +0.000 OA
ATOM     20  H   UNL     1     -24.837 105.704  -4.963  0.00  0.00    +0.000 HD
ENDBRANCH  18  19
ENDBRANCH  12  13
ENDBRANCH   1  11
TORSDOF 5
ENDMDL
MODEL 8
REMARK VINA RESULT:      -5.1     17.612     18.564
REMARK  Name = Resveratrol.pdbqt.pdb
REMARK  5 active torsions:
REMARK  status: ('A' for Active; 'I' for Inactive)
REMARK    1  A    between atoms: C_1  and  C_11
REMARK    2  A    between atoms: C_4  and  O_7
REMARK    3  A    between atoms: C_5  and  O_9
REMARK    4  A    between atoms: C_12  and  C_13
REMARK    5  A    between atoms: C_18  and  O_19
REMARK                            x       y       z     vdW  Elec       q    Type
REMARK                         _______ _______ _______ _____ _____    ______ ____
ROOT
ATOM      1  C   UNL     1     -24.348 102.851   3.559  0.00  0.00    +0.000 A 
ATOM      2  C   UNL     1     -23.573 103.403   4.578  0.00  0.00    +0.000 A 
ATOM      3  C   UNL     1     -24.825 101.545   3.670  0.00  0.00    +0.000 A 
ATOM      4  C   UNL     1     -24.520 100.799   4.806  0.00  0.00    +0.000 A 
ATOM      5  C   UNL     1     -23.279 102.641   5.704  0.00  0.00    +0.000 A 
ATOM      6  C   UNL     1     -23.748 101.337   5.830  0.00  0.00    +0.000 A 
ENDROOT
BRANCH   4   7
ATOM      7  O   UNL     1     -24.974  99.519   4.941  0.00  0.00    +0.000 OA
ATOM      8  H   UNL     1     -25.111  99.344   5.889  0.00  0.00    +0.000 HD
ENDBRANCH   4   7
BRANCH   5   9
ATOM      9  O   UNL     1     -22.518 103.203   6.689  0.00  0.00    +0.000 OA
ATOM     10  H   UNL     1     -21.964 102.503   7.077  0.00  0.00    +0.000 HD
ENDBRANCH   5   9
BRANCH   1  11
ATOM     11  C   UNL     1     -24.655 103.621   2.400  0.00  0.00    +0.000 C 
ATOM     12  C   UNL     1     -24.914 104.270   1.422  0.00  0.00    +0.000 C 
BRANCH  12  13
ATOM     13  C   UNL     1     -25.222 105.041   0.262  0.00  0.00    +0.000 A 
ATOM     14  C   UNL     1     -24.765 104.627  -0.989  0.00  0.00    +0.000 A 
ATOM     15  C   UNL     1     -25.979 106.206   0.382  0.00  0.00    +0.000 A 
ATOM     16  C   UNL     1     -25.065 105.377  -2.122  0.00  0.00    +0.000 A 
ATOM     17  C   UNL     1     -26.281 106.959  -0.749  0.00  0.00    +0.000 A 
ATOM     18  C   UNL     1     -25.820 106.539  -1.993  0.00  0.00    +0.000 A 
BRANCH  18  19
ATOM     19  O   UNL     1     -26.128 107.293  -3.087  0.00  0.00    +0.000 OA
ATOM     20  H   UNL     1     -26.493 108.142  -2.780  0.00  0.00    +0.000 HD
ENDBRANCH  18  19
ENDBRANCH  12  13
ENDBRANCH   1  11
TORSDOF 5
ENDMDL
MODEL 9
REMARK VINA RESULT:      -5.0      2.689      4.306
REMARK  Name = Resveratrol.pdbqt.pdb
REMARK  5 active torsions:
REMARK  status: ('A' for Active; 'I' for Inactive)
REMARK    1  A    between atoms: C_1  and  C_11
REMARK    2  A    between atoms: C_4  and  O_7
REMARK    3  A    between atoms: C_5  and  O_9
REMARK    4  A    between atoms: C_12  and  C_13
REMARK    5  A    between atoms: C_18  and  O_19
REMARK                            x       y       z     vdW  Elec       q    Type
REMARK                         _______ _______ _______ _____ _____    ______ ____
ROOT
ATOM      1  C   UNL     1     -40.523 102.000   2.073  0.00  0.00    +0.000 A 
ATOM      2  C   UNL     1     -40.706 101.569   0.760  0.00  0.00    +0.000 A 
ATOM      3  C   UNL     1     -41.490 101.730   3.041  0.00  0.00    +0.000 A 
ATOM      4  C   UNL     1     -42.637 101.026   2.685  0.00  0.00    +0.000 A 
ATOM      5  C   UNL     1     -41.859 100.868   0.424  0.00  0.00    +0.000 A 
ATOM      6  C   UNL     1     -42.832 100.589   1.379  0.00  0.00    +0.000 A 
ENDROOT
BRANCH   4   7
ATOM      7  O   UNL     1     -43.600 100.746   3.611  0.00  0.00    +0.000 OA
ATOM      8  H   UNL     1     -44.282 100.198   3.185  0.00  0.00    +0.000 HD
ENDBRANCH   4   7
BRANCH   5   9
ATOM      9  O   UNL     1     -42.016 100.455  -0.868  0.00  0.00    +0.000 OA
ATOM     10  H   UNL     1     -41.197 100.006  -1.141  0.00  0.00    +0.000 HD
ENDBRANCH   5   9
BRANCH   1  11
ATOM     11  C   UNL     1     -39.346 102.721   2.429  0.00  0.00    +0.000 C 
ATOM     12  C   UNL     1     -38.353 103.328   2.730  0.00  0.00    +0.000 C 
BRANCH  12  13
ATOM     13  C   UNL     1     -37.175 104.048   3.086  0.00  0.00    +0.000 A 
ATOM     14  C   UNL     1     -37.035 104.556   4.377  0.00  0.00    +0.000 A 
ATOM     15  C   UNL     1     -36.166 104.242   2.143  0.00  0.00    +0.000 A 
ATOM     16  C   UNL     1     -35.885 105.259   4.727  0.00  0.00    +0.000 A 
ATOM     17  C   UNL     1     -35.016 104.945   2.489  0.00  0.00    +0.000 A 
ATOM     18  C   UNL     1     -34.884 105.448   3.779  0.00  0.00    +0.000 A 
BRANCH  18  19
ATOM     19  O   UNL     1     -33.747 106.133   4.094  0.00  0.00    +0.000 OA
ATOM     20  H   UNL     1     -33.098 105.501   4.447  0.00  0.00    +0.000 HD
ENDBRANCH  18  19
ENDBRANCH  12  13
ENDBRANCH   1  11
TORSDOF 5
ENDMDL
