MODEL 1
REMARK VINA RESULT:      -6.6      0.000      0.000
REMARK  Name = RetinoicAcid.pdbqt.pdb
REMARK  6 active torsions:
REMARK  status: ('A' for Active; 'I' for Inactive)
REMARK    1  A    between atoms: C_1  and  C_3
REMARK    2  A    between atoms: C_1  and  C_5
REMARK    3  A    between atoms: C_3  and  C_15
REMARK    4  A    between atoms: C_4  and  C_9
REMARK    5  A    between atoms: C_16  and  C_17
REMARK    6  A    between atoms: C_21  and  O_22
REMARK                            x       y       z     vdW  Elec       q    Type
REMARK                         _______ _______ _______ _____ _____    ______ ____
ROOT
ATOM      1  C   UNL     1     -25.314 104.941   0.989  0.00  0.00    +0.000 C 
ATOM      2  C   UNL     1     -26.124 106.192   1.133  0.00  0.00    +0.000 C 
ENDROOT
BRANCH   1   4
ATOM      3  C   UNL     1     -24.535 103.620   3.112  0.00  0.00    +0.000 C 
ATOM      4  C   UNL     1     -24.897 104.229   2.140  0.00  0.00    +0.000 C 
BRANCH   3   8
ATOM      5  C   UNL     1     -24.030 101.325   4.229  0.00  0.00    +0.000 C 
ATOM      6  C   UNL     1     -23.542 100.841   5.542  0.00  0.00    +0.000 C 
ATOM      7  C   UNL     1     -23.090 101.341   6.900  0.00  0.00    +0.000 C 
ATOM      8  C   UNL     1     -24.094 102.888   4.276  0.00  0.00    +0.000 C 
ATOM      9  C   UNL     1     -23.296 102.792   6.525  0.00  0.00    +0.000 C 
ATOM     10  C   UNL     1     -23.730 103.551   5.402  0.00  0.00    +0.000 C 
ATOM     11  C   UNL     1     -25.454 100.769   3.958  0.00  0.00    +0.000 C 
ATOM     12  C   UNL     1     -23.039 100.900   3.108  0.00  0.00    +0.000 C 
ATOM     13  C   UNL     1     -23.741 105.048   5.548  0.00  0.00    +0.000 C 
ENDBRANCH   3   8
ENDBRANCH   1   4
BRANCH   1  14
ATOM     14  C   UNL     1     -24.952 104.536  -0.188  0.00  0.00    +0.000 C 
BRANCH  14  15
ATOM     15  C   UNL     1     -24.523 104.056  -1.580  0.00  0.00    +0.000 C 
ATOM     16  C   UNL     1     -24.189 103.678  -2.670  0.00  0.00    +0.000 C 
BRANCH  16  17
ATOM     17  C   UNL     1     -23.799 103.233  -3.956  0.00  0.00    +0.000 C 
ATOM     18  C   UNL     1     -22.384 103.418  -4.410  0.00  0.00    +0.000 C 
ATOM     19  C   UNL     1     -24.668 102.698  -4.746  0.00  0.00    +0.000 C 
ATOM     20  O   UNL     1     -25.956 100.929  -5.526  0.00  0.00    +0.000 OA
ATOM     21  C   UNL     1     -25.631 102.099  -5.601  0.00  0.00    +0.000 C 
BRANCH  21  22
ATOM     22  O   UNL     1     -26.172 102.946  -6.492  0.00  0.00    +0.000 OA
ATOM     23  H   UNL     1     -26.974 103.286  -6.044  0.00  0.00    +0.000 HD
ENDBRANCH  21  22
ENDBRANCH  16  17
ENDBRANCH  14  15
ENDBRANCH   1  14
TORSDOF 6
ENDMDL
MODEL 2
REMARK VINA RESULT:      -5.5     21.023     22.652
REMARK  Name = RetinoicAcid.pdbqt.pdb
REMARK  6 active torsions:
REMARK  status: ('A' for Active; 'I' for Inactive)
REMARK    1  A    between atoms: C_1  and  C_3
REMARK    2  A    between atoms: C_1  and  C_5
REMARK    3  A    between atoms: C_3  and  C_15
REMARK    4  A    between atoms: C_4  and  C_9
REMARK    5  A    between atoms: C_16  and  C_17
REMARK    6  A    between atoms: C_21  and  O_22
REMARK                            x       y       z     vdW  Elec       q    Type
REMARK                         _______ _______ _______ _____ _____    ______ ____
ROOT
ATOM      1  C   UNL     1     -46.744 100.708   1.073  0.00  0.00    +0.000 C 
ATOM      2  C   UNL     1     -47.366 101.629   0.069  0.00  0.00    +0.000 C 
ENDROOT
BRANCH   1   4
ATOM      3  C   UNL     1     -44.261 101.078   1.821  0.00  0.00    +0.000 C 
ATOM      4  C   UNL     1     -45.401 100.902   1.477  0.00  0.00    +0.000 C 
BRANCH   3   8
ATOM      5  C   UNL     1     -41.808 101.643   1.165  0.00  0.00    +0.000 C 
ATOM      6  C   UNL     1     -40.512 101.819   1.862  0.00  0.00    +0.000 C 
ATOM      7  C   UNL     1     -39.890 101.777   3.244  0.00  0.00    +0.000 C 
ATOM      8  C   UNL     1     -42.896 101.296   2.236  0.00  0.00    +0.000 C 
ATOM      9  C   UNL     1     -41.202 101.433   3.914  0.00  0.00    +0.000 C 
ATOM     10  C   UNL     1     -42.558 101.206   3.546  0.00  0.00    +0.000 C 
ATOM     11  C   UNL     1     -41.706 100.473   0.150  0.00  0.00    +0.000 C 
ATOM     12  C   UNL     1     -42.211 102.968   0.457  0.00  0.00    +0.000 C 
ATOM     13  C   UNL     1     -43.526 100.892   4.654  0.00  0.00    +0.000 C 
ENDBRANCH   3   8
ENDBRANCH   1   4
BRANCH   1  14
ATOM     14  C   UNL     1     -47.421  99.704   1.536  0.00  0.00    +0.000 C 
BRANCH  14  15
ATOM     15  C   UNL     1     -48.221  98.515   2.081  0.00  0.00    +0.000 C 
ATOM     16  C   UNL     1     -48.846  97.583   2.508  0.00  0.00    +0.000 C 
BRANCH  16  17
ATOM     17  C   UNL     1     -49.579  96.483   3.015  0.00  0.00    +0.000 C 
ATOM     18  C   UNL     1     -49.346  96.017   4.419  0.00  0.00    +0.000 C 
ATOM     19  C   UNL     1     -50.422  95.864   2.259  0.00  0.00    +0.000 C 
ATOM     20  O   UNL     1     -52.491  95.599   1.236  0.00  0.00    +0.000 OA
ATOM     21  C   UNL     1     -51.357  95.199   1.422  0.00  0.00    +0.000 C 
BRANCH  21  22
ATOM     22  O   UNL     1     -50.871  94.096   0.829  0.00  0.00    +0.000 OA
ATOM     23  H   UNL     1     -51.075  94.224  -0.121  0.00  0.00    +0.000 HD
ENDBRANCH  21  22
ENDBRANCH  16  17
ENDBRANCH  14  15
ENDBRANCH   1  14
TORSDOF 6
ENDMDL
MODEL 3
REMARK VINA RESULT:      -5.3      1.921      2.375
REMARK  Name = RetinoicAcid.pdbqt.pdb
REMARK  6 active torsions:
REMARK  status: ('A' for Active; 'I' for Inactive)
REMARK    1  A    between atoms: C_1  and  C_3
REMARK    2  A    between atoms: C_1  and  C_5
REMARK    3  A    between atoms: C_3  and  C_15
REMARK    4  A    between atoms: C_4  and  C_9
REMARK    5  A    between atoms: C_16  and  C_17
REMARK    6  A    between atoms: C_21  and  O_22
REMARK                            x       y       z     vdW  Elec       q    Type
REMARK                         _______ _______ _______ _____ _____    ______ ____
ROOT
ATOM      1  C   UNL     1     -25.071 105.020  -0.239  0.00  0.00    +0.000 C 
ATOM      2  C   UNL     1     -25.993 106.060   0.320  0.00  0.00    +0.000 C 
ENDROOT
BRANCH   1   4
ATOM      3  C   UNL     1     -23.704 103.467   1.367  0.00  0.00    +0.000 C 
ATOM      4  C   UNL     1     -24.332 104.185   0.634  0.00  0.00    +0.000 C 
BRANCH   3   8
ATOM      5  C   UNL     1     -23.660 101.398   2.944  0.00  0.00    +0.000 C 
ATOM      6  C   UNL     1     -22.657 100.683   3.768  0.00  0.00    +0.000 C 
ATOM      7  C   UNL     1     -21.192 100.722   4.157  0.00  0.00    +0.000 C 
ATOM      8  C   UNL     1     -22.948 102.602   2.241  0.00  0.00    +0.000 C 
ATOM      9  C   UNL     1     -20.917 101.948   3.314  0.00  0.00    +0.000 C 
ATOM     10  C   UNL     1     -21.627 102.827   2.448  0.00  0.00    +0.000 C 
ATOM     11  C   UNL     1     -24.797 101.943   3.851  0.00  0.00    +0.000 C 
ATOM     12  C   UNL     1     -24.222 100.445   1.851  0.00  0.00    +0.000 C 
ATOM     13  C   UNL     1     -20.845 103.944   1.813  0.00  0.00    +0.000 C 
ENDBRANCH   3   8
ENDBRANCH   1   4
BRANCH   1  14
ATOM     14  C   UNL     1     -24.914 104.918  -1.521  0.00  0.00    +0.000 C 
BRANCH  14  15
ATOM     15  C   UNL     1     -24.725 104.795  -3.038  0.00  0.00    +0.000 C 
ATOM     16  C   UNL     1     -24.579 104.700  -4.226  0.00  0.00    +0.000 C 
BRANCH  16  17
ATOM     17  C   UNL     1     -24.410 104.592  -5.627  0.00  0.00    +0.000 C 
ATOM     18  C   UNL     1     -23.450 105.500  -6.333  0.00  0.00    +0.000 C 
ATOM     19  C   UNL     1     -25.105 103.737  -6.299  0.00  0.00    +0.000 C 
ATOM     20  O   UNL     1     -25.559 101.608  -7.111  0.00  0.00    +0.000 OA
ATOM     21  C   UNL     1     -25.866 102.783  -7.026  0.00  0.00    +0.000 C 
BRANCH  21  22
ATOM     22  O   UNL     1     -26.973 103.287  -7.596  0.00  0.00    +0.000 OA
ATOM     23  H   UNL     1     -26.735 104.214  -7.803  0.00  0.00    +0.000 HD
ENDBRANCH  21  22
ENDBRANCH  16  17
ENDBRANCH  14  15
ENDBRANCH   1  14
TORSDOF 6
ENDMDL
MODEL 4
REMARK VINA RESULT:      -5.2     14.694     16.989
REMARK  Name = RetinoicAcid.pdbqt.pdb
REMARK  6 active torsions:
REMARK  status: ('A' for Active; 'I' for Inactive)
REMARK    1  A    between atoms: C_1  and  C_3
REMARK    2  A    between atoms: C_1  and  C_5
REMARK    3  A    between atoms: C_3  and  C_15
REMARK    4  A    between atoms: C_4  and  C_9
REMARK    5  A    between atoms: C_16  and  C_17
REMARK    6  A    between atoms: C_21  and  O_22
REMARK                            x       y       z     vdW  Elec       q    Type
REMARK                         _______ _______ _______ _____ _____    ______ ____
ROOT
ATOM      1  C   UNL     1     -37.589 102.804   3.235  0.00  0.00    +0.000 C 
ATOM      2  C   UNL     1     -36.493 102.137   2.463  0.00  0.00    +0.000 C 
ENDROOT
BRANCH   1   4
ATOM      3  C   UNL     1     -40.078 102.082   2.856  0.00  0.00    +0.000 C 
ATOM      4  C   UNL     1     -38.936 102.420   3.030  0.00  0.00    +0.000 C 
BRANCH   3   8
ATOM      5  C   UNL     1     -42.377 101.425   3.882  0.00  0.00    +0.000 C 
ATOM      6  C   UNL     1     -43.712 101.023   3.383  0.00  0.00    +0.000 C 
ATOM      7  C   UNL     1     -44.474 100.771   2.096  0.00  0.00    +0.000 C 
ATOM      8  C   UNL     1     -41.446 101.671   2.648  0.00  0.00    +0.000 C 
ATOM      9  C   UNL     1     -43.280 101.102   1.228  0.00  0.00    +0.000 C 
ATOM     10  C   UNL     1     -41.924 101.504   1.390  0.00  0.00    +0.000 C 
ATOM     11  C   UNL     1     -41.774 100.288   4.751  0.00  0.00    +0.000 C 
ATOM     12  C   UNL     1     -42.491 102.749   4.691  0.00  0.00    +0.000 C 
ATOM     13  C   UNL     1     -41.120 101.726   0.138  0.00  0.00    +0.000 C 
ENDBRANCH   3   8
ENDBRANCH   1   4
BRANCH   1  14
ATOM     14  C   UNL     1     -37.308 103.768   4.055  0.00  0.00    +0.000 C 
BRANCH  14  15
ATOM     15  C   UNL     1     -36.978 104.909   5.026  0.00  0.00    +0.000 C 
ATOM     16  C   UNL     1     -36.721 105.801   5.786  0.00  0.00    +0.000 C 
BRANCH  16  17
ATOM     17  C   UNL     1     -36.422 106.853   6.686  0.00  0.00    +0.000 C 
ATOM     18  C   UNL     1     -37.514 107.455   7.516  0.00  0.00    +0.000 C 
ATOM     19  C   UNL     1     -35.219 107.312   6.767  0.00  0.00    +0.000 C 
ATOM     20  O   UNL     1     -33.024 107.266   7.525  0.00  0.00    +0.000 OA
ATOM     21  C   UNL     1     -33.889 107.801   6.857  0.00  0.00    +0.000 C 
BRANCH  21  22
ATOM     22  O   UNL     1     -33.659 108.899   6.118  0.00  0.00    +0.000 OA
ATOM     23  H   UNL     1     -32.860 108.673   5.596  0.00  0.00    +0.000 HD
ENDBRANCH  21  22
ENDBRANCH  16  17
ENDBRANCH  14  15
ENDBRANCH   1  14
TORSDOF 6
ENDMDL
MODEL 5
REMARK VINA RESULT:      -5.1     16.676     17.767
REMARK  Name = RetinoicAcid.pdbqt.pdb
REMARK  6 active torsions:
REMARK  status: ('A' for Active; 'I' for Inactive)
REMARK    1  A    between atoms: C_1  and  C_3
REMARK    2  A    between atoms: C_1  and  C_5
REMARK    3  A    between atoms: C_3  and  C_15
REMARK    4  A    between atoms: C_4  and  C_9
REMARK    5  A    between atoms: C_16  and  C_17
REMARK    6  A    between atoms: C_21  and  O_22
REMARK                            x       y       z     vdW  Elec       q    Type
REMARK                         _______ _______ _______ _____ _____    ______ ____
ROOT
ATOM      1  C   UNL     1     -29.046  99.816 -14.657  0.00  0.00    +0.000 C 
ATOM      2  C   UNL     1     -29.035 101.249 -15.092  0.00  0.00    +0.000 C 
ENDROOT
BRANCH   1   4
ATOM      3  C   UNL     1     -26.892  98.352 -14.935  0.00  0.00    +0.000 C 
ATOM      4  C   UNL     1     -27.885  99.020 -14.809  0.00  0.00    +0.000 C 
BRANCH   3   8
ATOM      5  C   UNL     1     -25.817  96.004 -15.257  0.00  0.00    +0.000 C 
ATOM      6  C   UNL     1     -24.452  95.446 -15.392  0.00  0.00    +0.000 C 
ATOM      7  C   UNL     1     -22.994  95.862 -15.417  0.00  0.00    +0.000 C 
ATOM      8  C   UNL     1     -25.697  97.555 -15.082  0.00  0.00    +0.000 C 
ATOM      9  C   UNL     1     -23.324  97.327 -15.230  0.00  0.00    +0.000 C 
ATOM     10  C   UNL     1     -24.477  98.148 -15.077  0.00  0.00    +0.000 C 
ATOM     11  C   UNL     1     -26.510  95.406 -14.003  0.00  0.00    +0.000 C 
ATOM     12  C   UNL     1     -26.638  95.710 -16.545  0.00  0.00    +0.000 C 
ATOM     13  C   UNL     1     -24.251  99.627 -14.929  0.00  0.00    +0.000 C 
ENDBRANCH   3   8
ENDBRANCH   1   4
BRANCH   1  14
ATOM     14  C   UNL     1     -30.134  99.292 -14.187  0.00  0.00    +0.000 C 
BRANCH  14  15
ATOM     15  C   UNL     1     -31.421  98.672 -13.628  0.00  0.00    +0.000 C 
ATOM     16  C   UNL     1     -32.428  98.186 -13.192  0.00  0.00    +0.000 C 
BRANCH  16  17
ATOM     17  C   UNL     1     -33.613  97.608 -12.677  0.00  0.00    +0.000 C 
ATOM     18  C   UNL     1     -33.972  96.199 -13.037  0.00  0.00    +0.000 C 
ATOM     19  C   UNL     1     -34.399  98.304 -11.925  0.00  0.00    +0.000 C 
ATOM     20  O   UNL     1     -35.054  99.227  -9.896  0.00  0.00    +0.000 OA
ATOM     21  C   UNL     1     -35.248  99.076 -11.089  0.00  0.00    +0.000 C 
BRANCH  21  22
ATOM     22  O   UNL     1     -36.278  99.648 -11.734  0.00  0.00    +0.000 OA
ATOM     23  H   UNL     1     -35.857 100.136 -12.471  0.00  0.00    +0.000 HD
ENDBRANCH  21  22
ENDBRANCH  16  17
ENDBRANCH  14  15
ENDBRANCH   1  14
TORSDOF 6
ENDMDL
MODEL 6
REMARK VINA RESULT:      -5.0     16.607     17.902
REMARK  Name = RetinoicAcid.pdbqt.pdb
REMARK  6 active torsions:
REMARK  status: ('A' for Active; 'I' for Inactive)
REMARK    1  A    between atoms: C_1  and  C_3
REMARK    2  A    between atoms: C_1  and  C_5
REMARK    3  A    between atoms: C_3  and  C_15
REMARK    4  A    between atoms: C_4  and  C_9
REMARK    5  A    between atoms: C_16  and  C_17
REMARK    6  A    between atoms: C_21  and  O_22
REMARK                            x       y       z     vdW  Elec       q    Type
REMARK                         _______ _______ _______ _____ _____    ______ ____
ROOT
ATOM      1  C   UNL     1     -29.414  99.786 -14.502  0.00  0.00    +0.000 C 
ATOM      2  C   UNL     1     -29.326 101.221 -14.924  0.00  0.00    +0.000 C 
ENDROOT
BRANCH   1   4
ATOM      3  C   UNL     1     -27.367  98.192 -14.864  0.00  0.00    +0.000 C 
ATOM      4  C   UNL     1     -28.311  98.920 -14.700  0.00  0.00    +0.000 C 
BRANCH   3   8
ATOM      5  C   UNL     1     -24.881  97.919 -15.582  0.00  0.00    +0.000 C 
ATOM      6  C   UNL     1     -23.895  96.817 -15.680  0.00  0.00    +0.000 C 
ATOM      7  C   UNL     1     -23.752  95.326 -15.446  0.00  0.00    +0.000 C 
ATOM      8  C   UNL     1     -26.231  97.323 -15.057  0.00  0.00    +0.000 C 
ATOM      9  C   UNL     1     -25.183  95.178 -14.979  0.00  0.00    +0.000 C 
ATOM     10  C   UNL     1     -26.329  96.000 -14.780  0.00  0.00    +0.000 C 
ATOM     11  C   UNL     1     -25.116  98.542 -16.985  0.00  0.00    +0.000 C 
ATOM     12  C   UNL     1     -24.381  98.988 -14.570  0.00  0.00    +0.000 C 
ATOM     13  C   UNL     1     -27.571  95.330 -14.260  0.00  0.00    +0.000 C 
ENDBRANCH   3   8
ENDBRANCH   1   4
BRANCH   1  14
ATOM     14  C   UNL     1     -30.517  99.326 -14.000  0.00  0.00    +0.000 C 
BRANCH  14  15
ATOM     15  C   UNL     1     -31.822  98.783 -13.405  0.00  0.00    +0.000 C 
ATOM     16  C   UNL     1     -32.845  98.361 -12.940  0.00  0.00    +0.000 C 
BRANCH  16  17
ATOM     17  C   UNL     1     -34.053  97.865 -12.393  0.00  0.00    +0.000 C 
ATOM     18  C   UNL     1     -34.404  96.417 -12.552  0.00  0.00    +0.000 C 
ATOM     19  C   UNL     1     -34.865  98.665 -11.789  0.00  0.00    +0.000 C 
ATOM     20  O   UNL     1     -35.601  99.882  -9.951  0.00  0.00    +0.000 OA
ATOM     21  C   UNL     1     -35.745  99.553 -11.114  0.00  0.00    +0.000 C 
BRANCH  21  22
ATOM     22  O   UNL     1     -36.744 100.020 -11.881  0.00  0.00    +0.000 OA
ATOM     23  H   UNL     1     -36.798 100.971 -11.652  0.00  0.00    +0.000 HD
ENDBRANCH  21  22
ENDBRANCH  16  17
ENDBRANCH  14  15
ENDBRANCH   1  14
TORSDOF 6
ENDMDL
MODEL 7
REMARK VINA RESULT:      -5.0     14.611     16.920
REMARK  Name = RetinoicAcid.pdbqt.pdb
REMARK  6 active torsions:
REMARK  status: ('A' for Active; 'I' for Inactive)
REMARK    1  A    between atoms: C_1  and  C_3
REMARK    2  A    between atoms: C_1  and  C_5
REMARK    3  A    between atoms: C_3  and  C_15
REMARK    4  A    between atoms: C_4  and  C_9
REMARK    5  A    between atoms: C_16  and  C_17
REMARK    6  A    between atoms: C_21  and  O_22
REMARK                            x       y       z     vdW  Elec       q    Type
REMARK                         _______ _______ _______ _____ _____    ______ ____
ROOT
ATOM      1  C   UNL     1     -37.551 102.694   3.086  0.00  0.00    +0.000 C 
ATOM      2  C   UNL     1     -36.429 101.991   2.386  0.00  0.00    +0.000 C 
ENDROOT
BRANCH   1   4
ATOM      3  C   UNL     1     -40.037 102.035   2.592  0.00  0.00    +0.000 C 
ATOM      4  C   UNL     1     -38.893 102.335   2.814  0.00  0.00    +0.000 C 
BRANCH   3   8
ATOM      5  C   UNL     1     -41.980 101.802   0.878  0.00  0.00    +0.000 C 
ATOM      6  C   UNL     1     -43.397 101.370   0.896  0.00  0.00    +0.000 C 
ATOM      7  C   UNL     1     -44.471 100.856   1.835  0.00  0.00    +0.000 C 
ATOM      8  C   UNL     1     -41.412 101.679   2.331  0.00  0.00    +0.000 C 
ATOM      9  C   UNL     1     -43.552 100.889   3.036  0.00  0.00    +0.000 C 
ATOM     10  C   UNL     1     -42.204 101.234   3.337  0.00  0.00    +0.000 C 
ATOM     11  C   UNL     1     -41.886 103.284   0.422  0.00  0.00    +0.000 C 
ATOM     12  C   UNL     1     -41.157 100.874  -0.060  0.00  0.00    +0.000 C 
ATOM     13  C   UNL     1     -41.755 101.066   4.762  0.00  0.00    +0.000 C 
ENDBRANCH   3   8
ENDBRANCH   1   4
BRANCH   1  14
ATOM     14  C   UNL     1     -37.294 103.665   3.906  0.00  0.00    +0.000 C 
BRANCH  14  15
ATOM     15  C   UNL     1     -36.988 104.812   4.877  0.00  0.00    +0.000 C 
ATOM     16  C   UNL     1     -36.751 105.709   5.638  0.00  0.00    +0.000 C 
BRANCH  16  17
ATOM     17  C   UNL     1     -36.470 106.764   6.540  0.00  0.00    +0.000 C 
ATOM     18  C   UNL     1     -37.577 107.367   7.348  0.00  0.00    +0.000 C 
ATOM     19  C   UNL     1     -35.269 107.226   6.642  0.00  0.00    +0.000 C 
ATOM     20  O   UNL     1     -33.087 107.185   7.440  0.00  0.00    +0.000 OA
ATOM     21  C   UNL     1     -33.941 107.717   6.754  0.00  0.00    +0.000 C 
BRANCH  21  22
ATOM     22  O   UNL     1     -33.699 108.812   6.015  0.00  0.00    +0.000 OA
ATOM     23  H   UNL     1     -33.251 109.425   6.635  0.00  0.00    +0.000 HD
ENDBRANCH  21  22
ENDBRANCH  16  17
ENDBRANCH  14  15
ENDBRANCH   1  14
TORSDOF 6
ENDMDL
MODEL 8
REMARK VINA RESULT:      -5.0     19.177     21.463
REMARK  Name = RetinoicAcid.pdbqt.pdb
REMARK  6 active torsions:
REMARK  status: ('A' for Active; 'I' for Inactive)
REMARK    1  A    between atoms: C_1  and  C_3
REMARK    2  A    between atoms: C_1  and  C_5
REMARK    3  A    between atoms: C_3  and  C_15
REMARK    4  A    between atoms: C_4  and  C_9
REMARK    5  A    between atoms: C_16  and  C_17
REMARK    6  A    between atoms: C_21  and  O_22
REMARK                            x       y       z     vdW  Elec       q    Type
REMARK                         _______ _______ _______ _____ _____    ______ ____
ROOT
ATOM      1  C   UNL     1     -39.939  92.102 -11.344  0.00  0.00    +0.000 C 
ATOM      2  C   UNL     1     -39.961  91.306 -12.613  0.00  0.00    +0.000 C 
ENDROOT
BRANCH   1   4
ATOM      3  C   UNL     1     -38.455  91.312  -9.335  0.00  0.00    +0.000 C 
ATOM      4  C   UNL     1     -39.136  91.681 -10.256  0.00  0.00    +0.000 C 
BRANCH   3   8
ATOM      5  C   UNL     1     -38.104  91.137  -6.763  0.00  0.00    +0.000 C 
ATOM      6  C   UNL     1     -37.091  90.569  -5.843  0.00  0.00    +0.000 C 
ATOM      7  C   UNL     1     -35.770  89.823  -5.842  0.00  0.00    +0.000 C 
ATOM      8  C   UNL     1     -37.638  90.864  -8.233  0.00  0.00    +0.000 C 
ATOM      9  C   UNL     1     -35.703  89.775  -7.353  0.00  0.00    +0.000 C 
ATOM     10  C   UNL     1     -36.477  90.205  -8.468  0.00  0.00    +0.000 C 
ATOM     11  C   UNL     1     -38.215  92.670  -6.545  0.00  0.00    +0.000 C 
ATOM     12  C   UNL     1     -39.474  90.436  -6.537  0.00  0.00    +0.000 C 
ATOM     13  C   UNL     1     -35.946  89.881  -9.838  0.00  0.00    +0.000 C 
ENDBRANCH   3   8
ENDBRANCH   1   4
BRANCH   1  14
ATOM     14  C   UNL     1     -40.692  93.149 -11.225  0.00  0.00    +0.000 C 
BRANCH  14  15
ATOM     15  C   UNL     1     -41.584  94.390 -11.086  0.00  0.00    +0.000 C 
ATOM     16  C   UNL     1     -42.281  95.361 -10.976  0.00  0.00    +0.000 C 
BRANCH  16  17
ATOM     17  C   UNL     1     -43.099  96.509 -10.846  0.00  0.00    +0.000 C 
ATOM     18  C   UNL     1     -44.584  96.355 -10.721  0.00  0.00    +0.000 C 
ATOM     19  C   UNL     1     -42.570  97.686 -10.867  0.00  0.00    +0.000 C 
ATOM     20  O   UNL     1     -41.465  99.486  -9.899  0.00  0.00    +0.000 OA
ATOM     21  C   UNL     1     -41.974  98.975 -10.880  0.00  0.00    +0.000 C 
BRANCH  21  22
ATOM     22  O   UNL     1     -42.001  99.578 -12.080  0.00  0.00    +0.000 OA
ATOM     23  H   UNL     1     -42.925  99.890 -12.171  0.00  0.00    +0.000 HD
ENDBRANCH  21  22
ENDBRANCH  16  17
ENDBRANCH  14  15
ENDBRANCH   1  14
TORSDOF 6
ENDMDL
MODEL 9
REMARK VINA RESULT:      -4.9     20.686     22.452
REMARK  Name = RetinoicAcid.pdbqt.pdb
REMARK  6 active torsions:
REMARK  status: ('A' for Active; 'I' for Inactive)
REMARK    1  A    between atoms: C_1  and  C_3
REMARK    2  A    between atoms: C_1  and  C_5
REMARK    3  A    between atoms: C_3  and  C_15
REMARK    4  A    between atoms: C_4  and  C_9
REMARK    5  A    between atoms: C_16  and  C_17
REMARK    6  A    between atoms: C_21  and  O_22
REMARK                            x       y       z     vdW  Elec       q    Type
REMARK                         _______ _______ _______ _____ _____    ______ ____
ROOT
ATOM      1  C   UNL     1     -24.220  85.327  15.419  0.00  0.00    +0.000 C 
ATOM      2  C   UNL     1     -24.235  84.172  16.373  0.00  0.00    +0.000 C 
ENDROOT
BRANCH   1   4
ATOM      3  C   UNL     1     -26.101  85.553  13.610  0.00  0.00    +0.000 C 
ATOM      4  C   UNL     1     -25.233  85.449  14.437  0.00  0.00    +0.000 C 
BRANCH   3   8
ATOM      5  C   UNL     1     -27.159  84.728  11.381  0.00  0.00    +0.000 C 
ATOM      6  C   UNL     1     -28.333  85.071  10.546  0.00  0.00    +0.000 C 
ATOM      7  C   UNL     1     -29.514  86.020  10.486  0.00  0.00    +0.000 C 
ATOM      8  C   UNL     1     -27.147  85.680  12.624  0.00  0.00    +0.000 C 
ATOM      9  C   UNL     1     -29.134  86.703  11.782  0.00  0.00    +0.000 C 
ATOM     10  C   UNL     1     -28.118  86.614  12.775  0.00  0.00    +0.000 C 
ATOM     11  C   UNL     1     -25.853  84.941  10.568  0.00  0.00    +0.000 C 
ATOM     12  C   UNL     1     -27.276  83.259  11.880  0.00  0.00    +0.000 C 
ATOM     13  C   UNL     1     -28.207  87.567  13.935  0.00  0.00    +0.000 C 
ENDBRANCH   3   8
ENDBRANCH   1   4
BRANCH   1  14
ATOM     14  C   UNL     1     -23.252  86.188  15.462  0.00  0.00    +0.000 C 
BRANCH  14  15
ATOM     15  C   UNL     1     -22.107  87.207  15.515  0.00  0.00    +0.000 C 
ATOM     16  C   UNL     1     -21.209  88.003  15.556  0.00  0.00    +0.000 C 
BRANCH  16  17
ATOM     17  C   UNL     1     -20.150  88.941  15.599  0.00  0.00    +0.000 C 
ATOM     18  C   UNL     1     -19.081  88.905  14.549  0.00  0.00    +0.000 C 
ATOM     19  C   UNL     1     -20.086  89.802  16.558  0.00  0.00    +0.000 C 
ATOM     20  O   UNL     1     -20.671  91.791  17.607  0.00  0.00    +0.000 OA
ATOM     21  C   UNL     1     -20.034  90.753  17.611  0.00  0.00    +0.000 C 
BRANCH  21  22
ATOM     22  O   UNL     1     -19.235  90.397  18.630  0.00  0.00    +0.000 OA
ATOM     23  H   UNL     1     -19.230  89.418  18.600  0.00  0.00    +0.000 HD
ENDBRANCH  21  22
ENDBRANCH  16  17
ENDBRANCH  14  15
ENDBRANCH   1  14
TORSDOF 6
ENDMDL
