MODEL 1
REMARK VINA RESULT:      -6.6      0.000      0.000
REMARK  Name = SB_202190.pdbqt.pdb
REMARK  4 active torsions:
REMARK  status: ('A' for Active; 'I' for Inactive)
REMARK    1  A    between atoms: C_4  and  C_7
REMARK    2  A    between atoms: C_5  and  C_19
REMARK    3  A    between atoms: C_6  and  C_8
REMARK    4  A    between atoms: C_15  and  O_26
REMARK                            x       y       z     vdW  Elec       q    Type
REMARK                         _______ _______ _______ _____ _____    ______ ____
ROOT
ATOM      1  N   UNL     1     -34.115  99.090  16.323  0.00  0.00    +0.000 N 
ATOM      2  N   UNL     1     -33.418 100.372  14.679  0.00  0.00    +0.000 NA
ATOM      3  C   UNL     1     -32.781  99.320  16.594  0.00  0.00    +0.000 A 
ATOM      4  C   UNL     1     -32.366 100.103  15.526  0.00  0.00    +0.000 A 
ATOM      5  C   UNL     1     -34.469  99.751  15.171  0.00  0.00    +0.000 A 
ATOM      6  H   UNL     1     -34.748  98.553  16.898  0.00  0.00    +0.000 HD
ENDROOT
BRANCH   4   7
ATOM      7  C   UNL     1     -31.035 100.602  15.249  0.00  0.00    +0.000 A 
ATOM      8  C   UNL     1     -30.800 101.959  15.020  0.00  0.00    +0.000 A 
ATOM      9  C   UNL     1     -29.507 102.427  14.800  0.00  0.00    +0.000 A 
ATOM     10  C   UNL     1     -28.446 101.530  14.829  0.00  0.00    +0.000 A 
ATOM     11  F   UNL     1     -27.201 101.976  14.614  0.00  0.00    +0.000 F 
ATOM     12  C   UNL     1     -28.655 100.178  15.074  0.00  0.00    +0.000 A 
ATOM     13  C   UNL     1     -29.952  99.719  15.291  0.00  0.00    +0.000 A 
ENDBRANCH   4   7
BRANCH   3  15
ATOM     14  N   UNL     1     -30.840  97.854  20.099  0.00  0.00    +0.000 NA
ATOM     15  C   UNL     1     -32.134  98.812  17.800  0.00  0.00    +0.000 A 
ATOM     16  C   UNL     1     -31.749  97.476  17.893  0.00  0.00    +0.000 A 
ATOM     17  C   UNL     1     -31.853  99.667  18.866  0.00  0.00    +0.000 A 
ATOM     18  C   UNL     1     -31.116  97.050  19.050  0.00  0.00    +0.000 A 
ATOM     19  C   UNL     1     -31.219  99.143  19.981  0.00  0.00    +0.000 A 
ENDBRANCH   3  15
BRANCH   5  20
ATOM     20  C   UNL     1     -35.813  99.746  14.605  0.00  0.00    +0.000 A 
ATOM     21  C   UNL     1     -36.899  99.367  15.399  0.00  0.00    +0.000 A 
ATOM     22  C   UNL     1     -36.044 100.116  13.277  0.00  0.00    +0.000 A 
ATOM     23  C   UNL     1     -38.192  99.355  14.881  0.00  0.00    +0.000 A 
ATOM     24  C   UNL     1     -37.333 100.107  12.749  0.00  0.00    +0.000 A 
ATOM     25  C   UNL     1     -38.397  99.727  13.557  0.00  0.00    +0.000 A 
BRANCH  25  26
ATOM     26  O   UNL     1     -39.651  99.726  13.019  0.00  0.00    +0.000 OA
ATOM     27  H   UNL     1     -40.062  98.864  13.207  0.00  0.00    +0.000 HD
ENDBRANCH  25  26
ENDBRANCH   5  20
TORSDOF 4
ENDMDL
MODEL 2
REMARK VINA RESULT:      -6.5      4.100      6.977
REMARK  Name = SB_202190.pdbqt.pdb
REMARK  4 active torsions:
REMARK  status: ('A' for Active; 'I' for Inactive)
REMARK    1  A    between atoms: C_4  and  C_7
REMARK    2  A    between atoms: C_5  and  C_19
REMARK    3  A    between atoms: C_6  and  C_8
REMARK    4  A    between atoms: C_15  and  O_26
REMARK                            x       y       z     vdW  Elec       q    Type
REMARK                         _______ _______ _______ _____ _____    ______ ____
ROOT
ATOM      1  N   UNL     1     -31.526  99.757  17.156  0.00  0.00    +0.000 N 
ATOM      2  N   UNL     1     -31.762 100.662  15.167  0.00  0.00    +0.000 NA
ATOM      3  C   UNL     1     -32.794  99.393  16.750  0.00  0.00    +0.000 A 
ATOM      4  C   UNL     1     -32.922 100.003  15.510  0.00  0.00    +0.000 A 
ATOM      5  C   UNL     1     -30.927 100.507  16.173  0.00  0.00    +0.000 A 
ATOM      6  H   UNL     1     -31.085  99.485  18.023  0.00  0.00    +0.000 HD
ENDROOT
BRANCH   4   7
ATOM      7  C   UNL     1     -34.076 100.014  14.635  0.00  0.00    +0.000 A 
ATOM      8  C   UNL     1     -35.174  99.184  14.870  0.00  0.00    +0.000 A 
ATOM      9  C   UNL     1     -36.295  99.240  14.045  0.00  0.00    +0.000 A 
ATOM     10  C   UNL     1     -36.318 100.147  12.992  0.00  0.00    +0.000 A 
ATOM     11  F   UNL     1     -37.392 100.202  12.194  0.00  0.00    +0.000 F 
ATOM     12  C   UNL     1     -35.243 100.996  12.752  0.00  0.00    +0.000 A 
ATOM     13  C   UNL     1     -34.127 100.931  13.582  0.00  0.00    +0.000 A 
ENDBRANCH   4   7
BRANCH   3  15
ATOM     14  N   UNL     1     -35.322  96.840  19.049  0.00  0.00    +0.000 NA
ATOM     15  C   UNL     1     -33.648  98.522  17.553  0.00  0.00    +0.000 A 
ATOM     16  C   UNL     1     -34.665  99.053  18.343  0.00  0.00    +0.000 A 
ATOM     17  C   UNL     1     -33.486  97.138  17.510  0.00  0.00    +0.000 A 
ATOM     18  C   UNL     1     -35.463  98.182  19.067  0.00  0.00    +0.000 A 
ATOM     19  C   UNL     1     -34.334  96.351  18.272  0.00  0.00    +0.000 A 
ENDBRANCH   3  15
BRANCH   5  20
ATOM     20  C   UNL     1     -29.571 101.038  16.260  0.00  0.00    +0.000 A 
ATOM     21  C   UNL     1     -29.144 101.661  17.436  0.00  0.00    +0.000 A 
ATOM     22  C   UNL     1     -28.681 100.936  15.187  0.00  0.00    +0.000 A 
ATOM     23  C   UNL     1     -27.854 102.174  17.542  0.00  0.00    +0.000 A 
ATOM     24  C   UNL     1     -27.389 101.446  15.283  0.00  0.00    +0.000 A 
ATOM     25  C   UNL     1     -26.985 102.061  16.461  0.00  0.00    +0.000 A 
BRANCH  25  26
ATOM     26  O   UNL     1     -25.715 102.554  16.534  0.00  0.00    +0.000 OA
ATOM     27  H   UNL     1     -25.207 101.997  17.149  0.00  0.00    +0.000 HD
ENDBRANCH  25  26
ENDBRANCH   5  20
TORSDOF 4
ENDMDL
MODEL 3
REMARK VINA RESULT:      -6.4     13.395     16.196
REMARK  Name = SB_202190.pdbqt.pdb
REMARK  4 active torsions:
REMARK  status: ('A' for Active; 'I' for Inactive)
REMARK    1  A    between atoms: C_4  and  C_7
REMARK    2  A    between atoms: C_5  and  C_19
REMARK    3  A    between atoms: C_6  and  C_8
REMARK    4  A    between atoms: C_15  and  O_26
REMARK                            x       y       z     vdW  Elec       q    Type
REMARK                         _______ _______ _______ _____ _____    ______ ____
ROOT
ATOM      1  N   UNL     1     -21.929 100.925   3.312  0.00  0.00    +0.000 N 
ATOM      2  N   UNL     1     -23.027 101.623   5.084  0.00  0.00    +0.000 NA
ATOM      3  C   UNL     1     -21.436 100.167   4.356  0.00  0.00    +0.000 A 
ATOM      4  C   UNL     1     -22.125 100.652   5.459  0.00  0.00    +0.000 A 
ATOM      5  C   UNL     1     -22.896 101.780   3.783  0.00  0.00    +0.000 A 
ATOM      6  H   UNL     1     -21.655 100.841   2.343  0.00  0.00    +0.000 HD
ENDROOT
BRANCH   4   7
ATOM      7  C   UNL     1     -21.973 100.265   6.846  0.00  0.00    +0.000 A 
ATOM      8  C   UNL     1     -20.958  99.397   7.252  0.00  0.00    +0.000 A 
ATOM      9  C   UNL     1     -20.799  99.072   8.597  0.00  0.00    +0.000 A 
ATOM     10  C   UNL     1     -21.653  99.636   9.537  0.00  0.00    +0.000 A 
ATOM     11  F   UNL     1     -21.506  99.323  10.831  0.00  0.00    +0.000 F 
ATOM     12  C   UNL     1     -22.658 100.517   9.157  0.00  0.00    +0.000 A 
ATOM     13  C   UNL     1     -22.810 100.835   7.809  0.00  0.00    +0.000 A 
ENDBRANCH   4   7
BRANCH   3  15
ATOM     14  N   UNL     1     -18.555  97.089   3.702  0.00  0.00    +0.000 NA
ATOM     15  C   UNL     1     -20.450  99.110   4.151  0.00  0.00    +0.000 A 
ATOM     16  C   UNL     1     -20.843  97.776   4.061  0.00  0.00    +0.000 A 
ATOM     17  C   UNL     1     -19.099  99.423   4.002  0.00  0.00    +0.000 A 
ATOM     18  C   UNL     1     -19.870  96.815   3.842  0.00  0.00    +0.000 A 
ATOM     19  C   UNL     1     -18.203  98.388   3.788  0.00  0.00    +0.000 A 
ENDBRANCH   3  15
BRANCH   5  20
ATOM     20  C   UNL     1     -23.646 102.709   2.945  0.00  0.00    +0.000 A 
ATOM     21  C   UNL     1     -24.498 103.645   3.538  0.00  0.00    +0.000 A 
ATOM     22  C   UNL     1     -23.532 102.685   1.553  0.00  0.00    +0.000 A 
ATOM     23  C   UNL     1     -25.224 104.542   2.759  0.00  0.00    +0.000 A 
ATOM     24  C   UNL     1     -24.254 103.577   0.764  0.00  0.00    +0.000 A 
ATOM     25  C   UNL     1     -25.095 104.500   1.374  0.00  0.00    +0.000 A 
BRANCH  25  26
ATOM     26  O   UNL     1     -25.793 105.365   0.583  0.00  0.00    +0.000 OA
ATOM     27  H   UNL     1     -25.219 106.126   0.385  0.00  0.00    +0.000 HD
ENDBRANCH  25  26
ENDBRANCH   5  20
TORSDOF 4
ENDMDL
MODEL 4
REMARK VINA RESULT:      -6.3     13.711     16.640
REMARK  Name = SB_202190.pdbqt.pdb
REMARK  4 active torsions:
REMARK  status: ('A' for Active; 'I' for Inactive)
REMARK    1  A    between atoms: C_4  and  C_7
REMARK    2  A    between atoms: C_5  and  C_19
REMARK    3  A    between atoms: C_6  and  C_8
REMARK    4  A    between atoms: C_15  and  O_26
REMARK                            x       y       z     vdW  Elec       q    Type
REMARK                         _______ _______ _______ _____ _____    ______ ____
ROOT
ATOM      1  N   UNL     1     -20.378  98.209   6.365  0.00  0.00    +0.000 N 
ATOM      2  N   UNL     1     -21.281  98.530   4.387  0.00  0.00    +0.000 NA
ATOM      3  C   UNL     1     -21.258  99.257   6.544  0.00  0.00    +0.000 A 
ATOM      4  C   UNL     1     -21.787  99.453   5.276  0.00  0.00    +0.000 A 
ATOM      5  C   UNL     1     -20.428  97.786   5.058  0.00  0.00    +0.000 A 
ATOM      6  H   UNL     1     -19.810  97.787   7.086  0.00  0.00    +0.000 HD
ENDROOT
BRANCH   4   7
ATOM      7  C   UNL     1     -22.728 100.467   4.848  0.00  0.00    +0.000 A 
ATOM      8  C   UNL     1     -22.294 101.697   4.347  0.00  0.00    +0.000 A 
ATOM      9  C   UNL     1     -23.212 102.642   3.898  0.00  0.00    +0.000 A 
ATOM     10  C   UNL     1     -24.569 102.343   3.936  0.00  0.00    +0.000 A 
ATOM     11  F   UNL     1     -25.456 103.252   3.509  0.00  0.00    +0.000 F 
ATOM     12  C   UNL     1     -25.021 101.118   4.413  0.00  0.00    +0.000 A 
ATOM     13  C   UNL     1     -24.095 100.180   4.862  0.00  0.00    +0.000 A 
ENDBRANCH   4   7
BRANCH   3  15
ATOM     14  N   UNL     1     -21.877 101.072  10.355  0.00  0.00    +0.000 NA
ATOM     15  C   UNL     1     -21.486  99.867   7.851  0.00  0.00    +0.000 A 
ATOM     16  C   UNL     1     -21.028  99.251   9.014  0.00  0.00    +0.000 A 
ATOM     17  C   UNL     1     -22.131 101.099   7.953  0.00  0.00    +0.000 A 
ATOM     18  C   UNL     1     -21.249  99.884  10.226  0.00  0.00    +0.000 A 
ATOM     19  C   UNL     1     -22.306 101.649   9.213  0.00  0.00    +0.000 A 
ENDBRANCH   3  15
BRANCH   5  20
ATOM     20  C   UNL     1     -19.644  96.677   4.526  0.00  0.00    +0.000 A 
ATOM     21  C   UNL     1     -19.801  96.293   3.192  0.00  0.00    +0.000 A 
ATOM     22  C   UNL     1     -18.730  95.984   5.325  0.00  0.00    +0.000 A 
ATOM     23  C   UNL     1     -19.063  95.238   2.661  0.00  0.00    +0.000 A 
ATOM     24  C   UNL     1     -17.987  94.927   4.805  0.00  0.00    +0.000 A 
ATOM     25  C   UNL     1     -18.160  94.563   3.476  0.00  0.00    +0.000 A 
BRANCH  25  26
ATOM     26  O   UNL     1     -17.422  93.525   2.986  0.00  0.00    +0.000 OA
ATOM     27  H   UNL     1     -16.538  93.563   3.390  0.00  0.00    +0.000 HD
ENDBRANCH  25  26
ENDBRANCH   5  20
TORSDOF 4
ENDMDL
MODEL 5
REMARK VINA RESULT:      -6.2     15.577     18.206
REMARK  Name = SB_202190.pdbqt.pdb
REMARK  4 active torsions:
REMARK  status: ('A' for Active; 'I' for Inactive)
REMARK    1  A    between atoms: C_4  and  C_7
REMARK    2  A    between atoms: C_5  and  C_19
REMARK    3  A    between atoms: C_6  and  C_8
REMARK    4  A    between atoms: C_15  and  O_26
REMARK                            x       y       z     vdW  Elec       q    Type
REMARK                         _______ _______ _______ _____ _____    ______ ____
ROOT
ATOM      1  N   UNL     1     -23.609 102.426   0.371  0.00  0.00    +0.000 N 
ATOM      2  N   UNL     1     -24.445 104.451   0.192  0.00  0.00    +0.000 NA
ATOM      3  C   UNL     1     -23.942 102.786   1.661  0.00  0.00    +0.000 A 
ATOM      4  C   UNL     1     -24.437 104.075   1.517  0.00  0.00    +0.000 A 
ATOM      5  C   UNL     1     -23.940 103.445  -0.490  0.00  0.00    +0.000 A 
ATOM      6  H   UNL     1     -23.220 101.537   0.090  0.00  0.00    +0.000 HD
ENDROOT
BRANCH   4   7
ATOM      7  C   UNL     1     -24.888 104.979   2.555  0.00  0.00    +0.000 A 
ATOM      8  C   UNL     1     -24.108 105.235   3.685  0.00  0.00    +0.000 A 
ATOM      9  C   UNL     1     -24.537 106.142   4.651  0.00  0.00    +0.000 A 
ATOM     10  C   UNL     1     -25.744 106.806   4.470  0.00  0.00    +0.000 A 
ATOM     11  F   UNL     1     -26.162 107.676   5.399  0.00  0.00    +0.000 F 
ATOM     12  C   UNL     1     -26.527 106.580   3.344  0.00  0.00    +0.000 A 
ATOM     13  C   UNL     1     -26.090 105.670   2.384  0.00  0.00    +0.000 A 
ENDBRANCH   4   7
BRANCH   3  15
ATOM     14  N   UNL     1     -23.475 100.164   4.994  0.00  0.00    +0.000 NA
ATOM     15  C   UNL     1     -23.783 101.874   2.790  0.00  0.00    +0.000 A 
ATOM     16  C   UNL     1     -22.524 101.393   3.145  0.00  0.00    +0.000 A 
ATOM     17  C   UNL     1     -24.885 101.499   3.557  0.00  0.00    +0.000 A 
ATOM     18  C   UNL     1     -22.424 100.549   4.239  0.00  0.00    +0.000 A 
ATOM     19  C   UNL     1     -24.681 100.648   4.631  0.00  0.00    +0.000 A 
ENDBRANCH   3  15
BRANCH   5  20
ATOM     20  C   UNL     1     -23.748 103.390  -1.935  0.00  0.00    +0.000 A 
ATOM     21  C   UNL     1     -24.851 103.504  -2.786  0.00  0.00    +0.000 A 
ATOM     22  C   UNL     1     -22.477 103.226  -2.494  0.00  0.00    +0.000 A 
ATOM     23  C   UNL     1     -24.692 103.455  -4.169  0.00  0.00    +0.000 A 
ATOM     24  C   UNL     1     -22.308 103.176  -3.875  0.00  0.00    +0.000 A 
ATOM     25  C   UNL     1     -23.418 103.291  -4.702  0.00  0.00    +0.000 A 
BRANCH  25  26
ATOM     26  O   UNL     1     -23.230 103.240  -6.052  0.00  0.00    +0.000 OA
ATOM     27  H   UNL     1     -23.684 104.002  -6.452  0.00  0.00    +0.000 HD
ENDBRANCH  25  26
ENDBRANCH   5  20
TORSDOF 4
ENDMDL
MODEL 6
REMARK VINA RESULT:      -6.1     13.365     15.997
REMARK  Name = SB_202190.pdbqt.pdb
REMARK  4 active torsions:
REMARK  status: ('A' for Active; 'I' for Inactive)
REMARK    1  A    between atoms: C_4  and  C_7
REMARK    2  A    between atoms: C_5  and  C_19
REMARK    3  A    between atoms: C_6  and  C_8
REMARK    4  A    between atoms: C_15  and  O_26
REMARK                            x       y       z     vdW  Elec       q    Type
REMARK                         _______ _______ _______ _____ _____    ______ ____
ROOT
ATOM      1  N   UNL     1     -43.564 102.407   3.479  0.00  0.00    +0.000 N 
ATOM      2  N   UNL     1     -42.180 102.579   5.179  0.00  0.00    +0.000 NA
ATOM      3  C   UNL     1     -42.305 102.407   2.912  0.00  0.00    +0.000 A 
ATOM      4  C   UNL     1     -41.460 102.547   4.005  0.00  0.00    +0.000 A 
ATOM      5  C   UNL     1     -43.451 102.496   4.846  0.00  0.00    +0.000 A 
ATOM      6  H   UNL     1     -44.436 102.316   2.977  0.00  0.00    +0.000 HD
ENDROOT
BRANCH   4   7
ATOM      7  C   UNL     1     -40.017 102.667   4.007  0.00  0.00    +0.000 A 
ATOM      8  C   UNL     1     -39.237 102.078   3.010  0.00  0.00    +0.000 A 
ATOM      9  C   UNL     1     -37.854 102.242   3.002  0.00  0.00    +0.000 A 
ATOM     10  C   UNL     1     -37.257 103.014   3.991  0.00  0.00    +0.000 A 
ATOM     11  F   UNL     1     -35.926 103.171   3.990  0.00  0.00    +0.000 F 
ATOM     12  C   UNL     1     -38.016 103.624   4.983  0.00  0.00    +0.000 A 
ATOM     13  C   UNL     1     -39.399 103.454   4.982  0.00  0.00    +0.000 A 
ENDBRANCH   4   7
BRANCH   3  15
ATOM     14  N   UNL     1     -41.758 101.938  -1.292  0.00  0.00    +0.000 NA
ATOM     15  C   UNL     1     -42.099 102.243   1.476  0.00  0.00    +0.000 A 
ATOM     16  C   UNL     1     -42.117 100.977   0.894  0.00  0.00    +0.000 A 
ATOM     17  C   UNL     1     -41.921 103.356   0.656  0.00  0.00    +0.000 A 
ATOM     18  C   UNL     1     -41.940 100.878  -0.476  0.00  0.00    +0.000 A 
ATOM     19  C   UNL     1     -41.751 103.151  -0.704  0.00  0.00    +0.000 A 
ENDBRANCH   3  15
BRANCH   5  20
ATOM     20  C   UNL     1     -44.586 102.496   5.763  0.00  0.00    +0.000 A 
ATOM     21  C   UNL     1     -44.579 103.343   6.875  0.00  0.00    +0.000 A 
ATOM     22  C   UNL     1     -45.689 101.664   5.554  0.00  0.00    +0.000 A 
ATOM     23  C   UNL     1     -45.651 103.361   7.763  0.00  0.00    +0.000 A 
ATOM     24  C   UNL     1     -46.766 101.674   6.437  0.00  0.00    +0.000 A 
ATOM     25  C   UNL     1     -46.738 102.524   7.535  0.00  0.00    +0.000 A 
BRANCH  25  26
ATOM     26  O   UNL     1     -47.804 102.518   8.387  0.00  0.00    +0.000 OA
ATOM     27  H   UNL     1     -48.569 102.145   7.915  0.00  0.00    +0.000 HD
ENDBRANCH  25  26
ENDBRANCH   5  20
TORSDOF 4
ENDMDL
MODEL 7
REMARK VINA RESULT:      -6.0      3.389      5.629
REMARK  Name = SB_202190.pdbqt.pdb
REMARK  4 active torsions:
REMARK  status: ('A' for Active; 'I' for Inactive)
REMARK    1  A    between atoms: C_4  and  C_7
REMARK    2  A    between atoms: C_5  and  C_19
REMARK    3  A    between atoms: C_6  and  C_8
REMARK    4  A    between atoms: C_15  and  O_26
REMARK                            x       y       z     vdW  Elec       q    Type
REMARK                         _______ _______ _______ _____ _____    ______ ____
ROOT
ATOM      1  N   UNL     1     -35.508  98.597  16.734  0.00  0.00    +0.000 N 
ATOM      2  N   UNL     1     -33.617  98.203  17.782  0.00  0.00    +0.000 NA
ATOM      3  C   UNL     1     -34.536  99.169  15.938  0.00  0.00    +0.000 A 
ATOM      4  C   UNL     1     -33.363  98.930  16.640  0.00  0.00    +0.000 A 
ATOM      5  C   UNL     1     -34.918  98.011  17.828  0.00  0.00    +0.000 A 
ATOM      6  H   UNL     1     -36.498  98.575  16.530  0.00  0.00    +0.000 HD
ENDROOT
BRANCH   4   7
ATOM      7  C   UNL     1     -32.021  99.358  16.307  0.00  0.00    +0.000 A 
ATOM      8  C   UNL     1     -31.211  98.610  15.449  0.00  0.00    +0.000 A 
ATOM      9  C   UNL     1     -29.939  99.060  15.104  0.00  0.00    +0.000 A 
ATOM     10  C   UNL     1     -29.488 100.274  15.608  0.00  0.00    +0.000 A 
ATOM     11  F   UNL     1     -28.263 100.708  15.282  0.00  0.00    +0.000 F 
ATOM     12  C   UNL     1     -30.285 101.043  16.448  0.00  0.00    +0.000 A 
ATOM     13  C   UNL     1     -31.555 100.584  16.789  0.00  0.00    +0.000 A 
ENDBRANCH   4   7
BRANCH   3  15
ATOM     14  N   UNL     1     -35.432 100.968  12.174  0.00  0.00    +0.000 NA
ATOM     15  C   UNL     1     -34.851  99.800  14.659  0.00  0.00    +0.000 A 
ATOM     16  C   UNL     1     -33.992 100.745  14.100  0.00  0.00    +0.000 A 
ATOM     17  C   UNL     1     -35.998  99.437  13.954  0.00  0.00    +0.000 A 
ATOM     18  C   UNL     1     -34.325 101.295  12.873  0.00  0.00    +0.000 A 
ATOM     19  C   UNL     1     -36.243 100.047  12.735  0.00  0.00    +0.000 A 
ENDBRANCH   3  15
BRANCH   5  20
ATOM     20  C   UNL     1     -35.650  97.292  18.865  0.00  0.00    +0.000 A 
ATOM     21  C   UNL     1     -37.043  97.386  18.923  0.00  0.00    +0.000 A 
ATOM     22  C   UNL     1     -34.985  96.505  19.810  0.00  0.00    +0.000 A 
ATOM     23  C   UNL     1     -37.763  96.708  19.904  0.00  0.00    +0.000 A 
ATOM     24  C   UNL     1     -35.695  95.823  20.795  0.00  0.00    +0.000 A 
ATOM     25  C   UNL     1     -37.080  95.931  20.834  0.00  0.00    +0.000 A 
BRANCH  25  26
ATOM     26  O   UNL     1     -37.756  95.254  21.807  0.00  0.00    +0.000 OA
ATOM     27  H   UNL     1     -37.833  95.835  22.584  0.00  0.00    +0.000 HD
ENDBRANCH  25  26
ENDBRANCH   5  20
TORSDOF 4
ENDMDL
MODEL 8
REMARK VINA RESULT:      -5.9     13.990     16.938
REMARK  Name = SB_202190.pdbqt.pdb
REMARK  4 active torsions:
REMARK  status: ('A' for Active; 'I' for Inactive)
REMARK    1  A    between atoms: C_4  and  C_7
REMARK    2  A    between atoms: C_5  and  C_19
REMARK    3  A    between atoms: C_6  and  C_8
REMARK    4  A    between atoms: C_15  and  O_26
REMARK                            x       y       z     vdW  Elec       q    Type
REMARK                         _______ _______ _______ _____ _____    ______ ____
ROOT
ATOM      1  N   UNL     1     -21.460  98.503   4.319  0.00  0.00    +0.000 N 
ATOM      2  N   UNL     1     -20.186  98.514   6.110  0.00  0.00    +0.000 NA
ATOM      3  C   UNL     1     -21.907  99.575   5.065  0.00  0.00    +0.000 A 
ATOM      4  C   UNL     1     -21.106  99.535   6.198  0.00  0.00    +0.000 A 
ATOM      5  C   UNL     1     -20.413  97.896   4.970  0.00  0.00    +0.000 A 
ATOM      6  H   UNL     1     -21.815  98.227   3.415  0.00  0.00    +0.000 HD
ENDROOT
BRANCH   4   7
ATOM      7  C   UNL     1     -21.165 100.392   7.364  0.00  0.00    +0.000 A 
ATOM      8  C   UNL     1     -21.681  99.932   8.577  0.00  0.00    +0.000 A 
ATOM      9  C   UNL     1     -21.688 100.755   9.701  0.00  0.00    +0.000 A 
ATOM     10  C   UNL     1     -21.159 102.037   9.607  0.00  0.00    +0.000 A 
ATOM     11  F   UNL     1     -21.168 102.833  10.685  0.00  0.00    +0.000 F 
ATOM     12  C   UNL     1     -20.624 102.508   8.414  0.00  0.00    +0.000 A 
ATOM     13  C   UNL     1     -20.622 101.677   7.295  0.00  0.00    +0.000 A 
ENDBRANCH   4   7
BRANCH   3  15
ATOM     14  N   UNL     1     -24.988 102.207   3.732  0.00  0.00    +0.000 NA
ATOM     15  C   UNL     1     -22.963 100.466   4.592  0.00  0.00    +0.000 A 
ATOM     16  C   UNL     1     -24.305 100.126   4.749  0.00  0.00    +0.000 A 
ATOM     17  C   UNL     1     -22.645 101.692   4.010  0.00  0.00    +0.000 A 
ATOM     18  C   UNL     1     -25.268 101.017   4.305  0.00  0.00    +0.000 A 
ATOM     19  C   UNL     1     -23.682 102.513   3.596  0.00  0.00    +0.000 A 
ENDBRANCH   3  15
BRANCH   5  20
ATOM     20  C   UNL     1     -19.683  96.745   4.450  0.00  0.00    +0.000 A 
ATOM     21  C   UNL     1     -18.796  96.054   5.281  0.00  0.00    +0.000 A 
ATOM     22  C   UNL     1     -19.852  96.312   3.132  0.00  0.00    +0.000 A 
ATOM     23  C   UNL     1     -18.089  94.951   4.807  0.00  0.00    +0.000 A 
ATOM     24  C   UNL     1     -19.149  95.211   2.649  0.00  0.00    +0.000 A 
ATOM     25  C   UNL     1     -18.273  94.539   3.492  0.00  0.00    +0.000 A 
BRANCH  25  26
ATOM     26  O   UNL     1     -17.595  93.462   2.998  0.00  0.00    +0.000 OA
ATOM     27  H   UNL     1     -17.896  92.668   3.474  0.00  0.00    +0.000 HD
ENDBRANCH  25  26
ENDBRANCH   5  20
TORSDOF 4
ENDMDL
MODEL 9
REMARK VINA RESULT:      -5.8     18.785     20.603
REMARK  Name = SB_202190.pdbqt.pdb
REMARK  4 active torsions:
REMARK  status: ('A' for Active; 'I' for Inactive)
REMARK    1  A    between atoms: C_4  and  C_7
REMARK    2  A    between atoms: C_5  and  C_19
REMARK    3  A    between atoms: C_6  and  C_8
REMARK    4  A    between atoms: C_15  and  O_26
REMARK                            x       y       z     vdW  Elec       q    Type
REMARK                         _______ _______ _______ _____ _____    ______ ____
ROOT
ATOM      1  N   UNL     1     -28.445  82.431   9.526  0.00  0.00    +0.000 N 
ATOM      2  N   UNL     1     -30.200  82.383  10.848  0.00  0.00    +0.000 NA
ATOM      3  C   UNL     1     -29.180  81.344   9.098  0.00  0.00    +0.000 A 
ATOM      4  C   UNL     1     -30.261  81.324   9.969  0.00  0.00    +0.000 A 
ATOM      5  C   UNL     1     -29.096  83.043  10.571  0.00  0.00    +0.000 A 
ATOM      6  H   UNL     1     -27.582  82.757   9.115  0.00  0.00    +0.000 HD
ENDROOT
BRANCH   4   7
ATOM      7  C   UNL     1     -31.339  80.359  10.032  0.00  0.00    +0.000 A 
ATOM      8  C   UNL     1     -31.342  79.334  10.980  0.00  0.00    +0.000 A 
ATOM      9  C   UNL     1     -32.409  78.442  11.056  0.00  0.00    +0.000 A 
ATOM     10  C   UNL     1     -33.483  78.593  10.186  0.00  0.00    +0.000 A 
ATOM     11  F   UNL     1     -34.510  77.735  10.253  0.00  0.00    +0.000 F 
ATOM     12  C   UNL     1     -33.508  79.618   9.248  0.00  0.00    +0.000 A 
ATOM     13  C   UNL     1     -32.436  80.504   9.179  0.00  0.00    +0.000 A 
ENDBRANCH   4   7
BRANCH   3  15
ATOM     14  N   UNL     1     -27.981  79.037   5.717  0.00  0.00    +0.000 NA
ATOM     15  C   UNL     1     -28.782  80.540   7.947  0.00  0.00    +0.000 A 
ATOM     16  C   UNL     1     -29.541  80.543   6.778  0.00  0.00    +0.000 A 
ATOM     17  C   UNL     1     -27.609  79.786   7.983  0.00  0.00    +0.000 A 
ATOM     18  C   UNL     1     -29.106  79.782   5.706  0.00  0.00    +0.000 A 
ATOM     19  C   UNL     1     -27.261  79.056   6.857  0.00  0.00    +0.000 A 
ENDBRANCH   3  15
BRANCH   5  20
ATOM     20  C   UNL     1     -28.611  84.240  11.249  0.00  0.00    +0.000 A 
ATOM     21  C   UNL     1     -27.348  84.235  11.847  0.00  0.00    +0.000 A 
ATOM     22  C   UNL     1     -29.386  85.401  11.315  0.00  0.00    +0.000 A 
ATOM     23  C   UNL     1     -26.864  85.366  12.499  0.00  0.00    +0.000 A 
ATOM     24  C   UNL     1     -28.911  86.538  11.966  0.00  0.00    +0.000 A 
ATOM     25  C   UNL     1     -27.652  86.511  12.553  0.00  0.00    +0.000 A 
BRANCH  25  26
ATOM     26  O   UNL     1     -27.207  87.635  13.184  0.00  0.00    +0.000 OA
ATOM     27  H   UNL     1     -27.922  87.968  13.754  0.00  0.00    +0.000 HD
ENDBRANCH  25  26
ENDBRANCH   5  20
TORSDOF 4
ENDMDL
