MODEL 1
REMARK VINA RESULT:      -6.5      0.000      0.000
REMARK  Name = Simvastatin.pdbqt.pdb
REMARK  7 active torsions:
REMARK  status: ('A' for Active; 'I' for Inactive)
REMARK    1  A    between atoms: C_2  and  C_13
REMARK    2  A    between atoms: C_3  and  O_24
REMARK    3  A    between atoms: C_14  and  C_15
REMARK    4  A    between atoms: C_20  and  O_22
REMARK    5  A    between atoms: O_24  and  C_25
REMARK    6  A    between atoms: C_25  and  C_27
REMARK    7  A    between atoms: C_27  and  C_30
REMARK                            x       y       z     vdW  Elec       q    Type
REMARK                         _______ _______ _______ _____ _____    ______ ____
ROOT
ATOM      1  C   UNL     1     -24.606 103.883   1.372  0.00  0.00    +0.000 A 
ATOM      2  C   UNL     1     -25.038 104.812   0.257  0.00  0.00    +0.000 A 
ATOM      3  C   UNL     1     -23.576 102.792   1.249  0.00  0.00    +0.000 A 
ATOM      4  C   UNL     1     -25.837 106.026   0.574  0.00  0.00    +0.000 A 
ATOM      5  C   UNL     1     -25.221 104.138   2.766  0.00  0.00    +0.000 A 
ATOM      6  C   UNL     1     -23.316 102.161   2.515  0.00  0.00    +0.000 A 
ATOM      7  C   UNL     1     -23.792 102.375   3.847  0.00  0.00    +0.000 A 
ATOM      8  C   UNL     1     -24.748 103.431   3.748  0.00  0.00    +0.000 A 
ATOM      9  C   UNL     1     -26.183 106.101   1.953  0.00  0.00    +0.000 A 
ATOM     10  C   UNL     1     -25.944 105.348   2.856  0.00  0.00    +0.000 A 
ATOM     11  C   UNL     1     -26.315 107.059  -0.401  0.00  0.00    +0.000 C 
ATOM     12  C   UNL     1     -22.837 102.325   4.996  0.00  0.00    +0.000 C 
ENDROOT
BRANCH   2  13
ATOM     13  C   UNL     1     -24.862 104.399  -1.096  0.00  0.00    +0.000 C 
ATOM     14  C   UNL     1     -24.705 103.892  -2.535  0.00  0.00    +0.000 C 
BRANCH  14  15
ATOM     15  C   UNL     1     -24.605 103.379  -3.850  0.00  0.00    +0.000 C 
ATOM     16  O   UNL     1     -25.624 102.459  -4.293  0.00  0.00    +0.000 OA
ATOM     17  C   UNL     1     -25.550 101.878  -5.563  0.00  0.00    +0.000 C 
ATOM     18  O   UNL     1     -26.375 101.092  -6.005  0.00  0.00    +0.000 OA
ATOM     19  C   UNL     1     -24.396 102.281  -6.328  0.00  0.00    +0.000 C 
ATOM     20  C   UNL     1     -23.310 103.143  -6.063  0.00  0.00    +0.000 C 
ATOM     21  C   UNL     1     -23.545 103.636  -4.760  0.00  0.00    +0.000 C 
BRANCH  20  22
ATOM     22  O   UNL     1     -22.061 102.880  -6.543  0.00  0.00    +0.000 OA
ATOM     23  H   UNL     1     -21.573 102.241  -5.989  0.00  0.00    +0.000 HD
ENDBRANCH  20  22
ENDBRANCH  14  15
ENDBRANCH   2  13
BRANCH   3  24
ATOM     24  O   UNL     1     -22.488 103.095   0.426  0.00  0.00    +0.000 OA
BRANCH  24  25
ATOM     25  C   UNL     1     -21.379 103.502   1.144  0.00  0.00    +0.000 C 
ATOM     26  O   UNL     1     -20.772 102.773   1.931  0.00  0.00    +0.000 OA
BRANCH  25  27
ATOM     27  C   UNL     1     -21.029 104.999   0.835  0.00  0.00    +0.000 C 
ATOM     28  C   UNL     1     -21.489 105.351  -0.630  0.00  0.00    +0.000 C 
ATOM     29  C   UNL     1     -19.472 105.254   0.951  0.00  0.00    +0.000 C 
BRANCH  27  30
ATOM     30  C   UNL     1     -21.745 105.836   1.838  0.00  0.00    +0.000 C 
ATOM     31  C   UNL     1     -22.536 106.692   2.871  0.00  0.00    +0.000 C 
ENDBRANCH  27  30
ENDBRANCH  25  27
ENDBRANCH  24  25
ENDBRANCH   3  24
TORSDOF 7
ENDMDL
MODEL 2
REMARK VINA RESULT:      -6.1      3.560      7.059
REMARK  Name = Simvastatin.pdbqt.pdb
REMARK  7 active torsions:
REMARK  status: ('A' for Active; 'I' for Inactive)
REMARK    1  A    between atoms: C_2  and  C_13
REMARK    2  A    between atoms: C_3  and  O_24
REMARK    3  A    between atoms: C_14  and  C_15
REMARK    4  A    between atoms: C_20  and  O_22
REMARK    5  A    between atoms: O_24  and  C_25
REMARK    6  A    between atoms: C_25  and  C_27
REMARK    7  A    between atoms: C_27  and  C_30
REMARK                            x       y       z     vdW  Elec       q    Type
REMARK                         _______ _______ _______ _____ _____    ______ ____
ROOT
ATOM      1  C   UNL     1     -25.497 105.474  -0.540  0.00  0.00    +0.000 A 
ATOM      2  C   UNL     1     -24.398 104.443  -0.688  0.00  0.00    +0.000 A 
ATOM      3  C   UNL     1     -26.000 106.029   0.766  0.00  0.00    +0.000 A 
ATOM      4  C   UNL     1     -23.793 104.195  -2.024  0.00  0.00    +0.000 A 
ATOM      5  C   UNL     1     -26.087 106.053  -1.843  0.00  0.00    +0.000 A 
ATOM      6  C   UNL     1     -26.974 107.068   0.562  0.00  0.00    +0.000 A 
ATOM      7  C   UNL     1     -27.524 107.698  -0.598  0.00  0.00    +0.000 A 
ATOM      8  C   UNL     1     -26.931 107.034  -1.714  0.00  0.00    +0.000 A 
ATOM      9  C   UNL     1     -24.435 104.941  -3.055  0.00  0.00    +0.000 A 
ATOM     10  C   UNL     1     -25.364 105.697  -3.003  0.00  0.00    +0.000 A 
ATOM     11  C   UNL     1     -22.683 103.239  -2.338  0.00  0.00    +0.000 C 
ATOM     12  C   UNL     1     -27.720 109.180  -0.618  0.00  0.00    +0.000 C 
ENDROOT
BRANCH   2  13
ATOM     13  C   UNL     1     -24.109 103.574   0.404  0.00  0.00    +0.000 C 
ATOM     14  C   UNL     1     -23.855 102.668   1.615  0.00  0.00    +0.000 C 
BRANCH  14  15
ATOM     15  C   UNL     1     -23.681 101.843   2.752  0.00  0.00    +0.000 C 
ATOM     16  O   UNL     1     -22.347 101.382   3.052  0.00  0.00    +0.000 OA
ATOM     17  C   UNL     1     -22.121 100.521   4.130  0.00  0.00    +0.000 C 
ATOM     18  O   UNL     1     -21.021 100.091   4.443  0.00  0.00    +0.000 OA
ATOM     19  C   UNL     1     -23.313 100.165   4.859  0.00  0.00    +0.000 C 
ATOM     20  C   UNL     1     -24.676 100.501   4.711  0.00  0.00    +0.000 C 
ATOM     21  C   UNL     1     -24.720 101.365   3.595  0.00  0.00    +0.000 C 
BRANCH  20  22
ATOM     22  O   UNL     1     -25.664  99.604   4.995  0.00  0.00    +0.000 OA
ATOM     23  H   UNL     1     -26.055  99.746   5.879  0.00  0.00    +0.000 HD
ENDBRANCH  20  22
ENDBRANCH  14  15
ENDBRANCH   2  13
BRANCH   3  24
ATOM     24  O   UNL     1     -25.020 106.225   1.744  0.00  0.00    +0.000 OA
BRANCH  24  25
ATOM     25  C   UNL     1     -25.379 105.689   2.967  0.00  0.00    +0.000 C 
ATOM     26  O   UNL     1     -26.281 104.861   3.109  0.00  0.00    +0.000 OA
BRANCH  25  27
ATOM     27  C   UNL     1     -24.506 106.293   4.122  0.00  0.00    +0.000 C 
ATOM     28  C   UNL     1     -25.385 107.279   4.979  0.00  0.00    +0.000 C 
ATOM     29  C   UNL     1     -23.271 107.092   3.540  0.00  0.00    +0.000 C 
BRANCH  27  30
ATOM     30  C   UNL     1     -24.017 105.153   4.948  0.00  0.00    +0.000 C 
ATOM     31  C   UNL     1     -23.498 103.994   5.848  0.00  0.00    +0.000 C 
ENDBRANCH  27  30
ENDBRANCH  25  27
ENDBRANCH  24  25
ENDBRANCH   3  24
TORSDOF 7
ENDMDL
MODEL 3
REMARK VINA RESULT:      -5.8     13.342     16.065
REMARK  Name = Simvastatin.pdbqt.pdb
REMARK  7 active torsions:
REMARK  status: ('A' for Active; 'I' for Inactive)
REMARK    1  A    between atoms: C_2  and  C_13
REMARK    2  A    between atoms: C_3  and  O_24
REMARK    3  A    between atoms: C_14  and  C_15
REMARK    4  A    between atoms: C_20  and  O_22
REMARK    5  A    between atoms: O_24  and  C_25
REMARK    6  A    between atoms: C_25  and  C_27
REMARK    7  A    between atoms: C_27  and  C_30
REMARK                            x       y       z     vdW  Elec       q    Type
REMARK                         _______ _______ _______ _____ _____    ______ ____
ROOT
ATOM      1  C   UNL     1     -39.457 103.134   2.145  0.00  0.00    +0.000 A 
ATOM      2  C   UNL     1     -38.768 104.216   1.341  0.00  0.00    +0.000 A 
ATOM      3  C   UNL     1     -39.157 102.789   3.580  0.00  0.00    +0.000 A 
ATOM      4  C   UNL     1     -39.348 104.655   0.043  0.00  0.00    +0.000 A 
ATOM      5  C   UNL     1     -40.615 102.384   1.452  0.00  0.00    +0.000 A 
ATOM      6  C   UNL     1     -40.057 101.789   4.086  0.00  0.00    +0.000 A 
ATOM      7  C   UNL     1     -41.181 101.095   3.535  0.00  0.00    +0.000 A 
ATOM      8  C   UNL     1     -41.293 101.554   2.188  0.00  0.00    +0.000 A 
ATOM      9  C   UNL     1     -40.488 103.885  -0.327  0.00  0.00    +0.000 A 
ATOM     10  C   UNL     1     -41.016 102.963   0.228  0.00  0.00    +0.000 A 
ATOM     11  C   UNL     1     -38.813 105.727  -0.856  0.00  0.00    +0.000 C 
ATOM     12  C   UNL     1     -42.406 100.885   4.365  0.00  0.00    +0.000 C 
ENDROOT
BRANCH   2  13
ATOM     13  C   UNL     1     -37.464 104.644   1.727  0.00  0.00    +0.000 C 
ATOM     14  C   UNL     1     -36.078 105.171   2.119  0.00  0.00    +0.000 C 
BRANCH  14  15
ATOM     15  C   UNL     1     -34.823 105.717   2.479  0.00  0.00    +0.000 C 
ATOM     16  O   UNL     1     -33.714 105.505   1.580  0.00  0.00    +0.000 OA
ATOM     17  C   UNL     1     -32.438 105.975   1.906  0.00  0.00    +0.000 C 
ATOM     18  O   UNL     1     -31.454 105.833   1.196  0.00  0.00    +0.000 OA
ATOM     19  C   UNL     1     -32.367 106.648   3.179  0.00  0.00    +0.000 C 
ATOM     20  C   UNL     1     -33.322 106.935   4.178  0.00  0.00    +0.000 C 
ATOM     21  C   UNL     1     -34.534 106.402   3.689  0.00  0.00    +0.000 C 
BRANCH  20  22
ATOM     22  O   UNL     1     -32.989 106.931   5.501  0.00  0.00    +0.000 OA
ATOM     23  H   UNL     1     -33.280 107.741   5.963  0.00  0.00    +0.000 HD
ENDBRANCH  20  22
ENDBRANCH  14  15
ENDBRANCH   2  13
BRANCH   3  24
ATOM     24  O   UNL     1     -38.852 103.880   4.400  0.00  0.00    +0.000 OA
BRANCH  24  25
ATOM     25  C   UNL     1     -39.852 104.147   5.317  0.00  0.00    +0.000 C 
ATOM     26  O   UNL     1     -40.100 103.424   6.285  0.00  0.00    +0.000 OA
BRANCH  25  27
ATOM     27  C   UNL     1     -40.621 105.461   4.941  0.00  0.00    +0.000 C 
ATOM     28  C   UNL     1     -39.660 106.418   4.141  0.00  0.00    +0.000 C 
ATOM     29  C   UNL     1     -41.123 106.216   6.238  0.00  0.00    +0.000 C 
BRANCH  27  30
ATOM     30  C   UNL     1     -41.795 105.064   4.113  0.00  0.00    +0.000 C 
ATOM     31  C   UNL     1     -42.990 104.632   3.213  0.00  0.00    +0.000 C 
ENDBRANCH  27  30
ENDBRANCH  25  27
ENDBRANCH  24  25
ENDBRANCH   3  24
TORSDOF 7
ENDMDL
MODEL 4
REMARK VINA RESULT:      -5.7     24.032     27.055
REMARK  Name = Simvastatin.pdbqt.pdb
REMARK  7 active torsions:
REMARK  status: ('A' for Active; 'I' for Inactive)
REMARK    1  A    between atoms: C_2  and  C_13
REMARK    2  A    between atoms: C_3  and  O_24
REMARK    3  A    between atoms: C_14  and  C_15
REMARK    4  A    between atoms: C_20  and  O_22
REMARK    5  A    between atoms: O_24  and  C_25
REMARK    6  A    between atoms: C_25  and  C_27
REMARK    7  A    between atoms: C_27  and  C_30
REMARK                            x       y       z     vdW  Elec       q    Type
REMARK                         _______ _______ _______ _____ _____    ______ ____
ROOT
ATOM      1  C   UNL     1     -31.303  88.104  17.107  0.00  0.00    +0.000 A 
ATOM      2  C   UNL     1     -31.381  86.618  16.834  0.00  0.00    +0.000 A 
ATOM      3  C   UNL     1     -32.358  88.919  17.807  0.00  0.00    +0.000 A 
ATOM      4  C   UNL     1     -30.163  85.880  16.405  0.00  0.00    +0.000 A 
ATOM      5  C   UNL     1     -29.995  88.818  16.702  0.00  0.00    +0.000 A 
ATOM      6  C   UNL     1     -31.935  90.279  18.005  0.00  0.00    +0.000 A 
ATOM      7  C   UNL     1     -30.731  90.996  17.717  0.00  0.00    +0.000 A 
ATOM      8  C   UNL     1     -29.875  90.061  17.061  0.00  0.00    +0.000 A 
ATOM      9  C   UNL     1     -29.047  86.744  16.210  0.00  0.00    +0.000 A 
ATOM     10  C   UNL     1     -28.959  87.935  16.325  0.00  0.00    +0.000 A 
ATOM     11  C   UNL     1     -30.061  84.411  16.125  0.00  0.00    +0.000 C 
ATOM     12  C   UNL     1     -30.175  91.952  18.724  0.00  0.00    +0.000 C 
ENDROOT
BRANCH   2  13
ATOM     13  C   UNL     1     -32.659  85.988  16.780  0.00  0.00    +0.000 C 
ATOM     14  C   UNL     1     -34.060  85.364  16.764  0.00  0.00    +0.000 C 
BRANCH  14  15
ATOM     15  C   UNL     1     -35.377  84.845  16.769  0.00  0.00    +0.000 C 
ATOM     16  O   UNL     1     -35.901  84.329  15.528  0.00  0.00    +0.000 OA
ATOM     17  C   UNL     1     -37.214  83.852  15.457  0.00  0.00    +0.000 C 
ATOM     18  O   UNL     1     -37.724  83.401  14.443  0.00  0.00    +0.000 OA
ATOM     19  C   UNL     1     -37.939  83.942  16.700  0.00  0.00    +0.000 C 
ATOM     20  C   UNL     1     -37.604  84.417  17.986  0.00  0.00    +0.000 C 
ATOM     21  C   UNL     1     -36.264  84.849  17.878  0.00  0.00    +0.000 C 
BRANCH  20  22
ATOM     22  O   UNL     1     -38.525  85.042  18.775  0.00  0.00    +0.000 OA
ATOM     23  H   UNL     1     -38.114  85.526  19.517  0.00  0.00    +0.000 HD
ENDBRANCH  20  22
ENDBRANCH  14  15
ENDBRANCH   2  13
BRANCH   3  24
ATOM     24  O   UNL     1     -33.006  88.269  18.861  0.00  0.00    +0.000 OA
BRANCH  24  25
ATOM     25  C   UNL     1     -34.362  88.537  18.894  0.00  0.00    +0.000 C 
ATOM     26  O   UNL     1     -35.072  88.581  17.888  0.00  0.00    +0.000 OA
BRANCH  25  27
ATOM     27  C   UNL     1     -34.848  88.794  20.364  0.00  0.00    +0.000 C 
ATOM     28  C   UNL     1     -34.245  87.691  21.313  0.00  0.00    +0.000 C 
ATOM     29  C   UNL     1     -36.426  88.736  20.458  0.00  0.00    +0.000 C 
BRANCH  27  30
ATOM     30  C   UNL     1     -34.377  90.153  20.753  0.00  0.00    +0.000 C 
ATOM     31  C   UNL     1     -33.931  91.586  21.168  0.00  0.00    +0.000 C 
ENDBRANCH  27  30
ENDBRANCH  25  27
ENDBRANCH  24  25
ENDBRANCH   3  24
TORSDOF 7
ENDMDL
MODEL 5
REMARK VINA RESULT:      -5.7     22.741     25.439
REMARK  Name = Simvastatin.pdbqt.pdb
REMARK  7 active torsions:
REMARK  status: ('A' for Active; 'I' for Inactive)
REMARK    1  A    between atoms: C_2  and  C_13
REMARK    2  A    between atoms: C_3  and  O_24
REMARK    3  A    between atoms: C_14  and  C_15
REMARK    4  A    between atoms: C_20  and  O_22
REMARK    5  A    between atoms: O_24  and  C_25
REMARK    6  A    between atoms: C_25  and  C_27
REMARK    7  A    between atoms: C_27  and  C_30
REMARK                            x       y       z     vdW  Elec       q    Type
REMARK                         _______ _______ _______ _____ _____    ______ ____
ROOT
ATOM      1  C   UNL     1     -38.102  84.789  -1.205  0.00  0.00    +0.000 A 
ATOM      2  C   UNL     1     -38.953  83.636  -0.717  0.00  0.00    +0.000 A 
ATOM      3  C   UNL     1     -36.609  84.749  -1.399  0.00  0.00    +0.000 A 
ATOM      4  C   UNL     1     -40.434  83.704  -0.846  0.00  0.00    +0.000 A 
ATOM      5  C   UNL     1     -38.846  86.080  -1.609  0.00  0.00    +0.000 A 
ATOM      6  C   UNL     1     -36.115  85.970  -1.975  0.00  0.00    +0.000 A 
ATOM      7  C   UNL     1     -36.737  87.176  -2.429  0.00  0.00    +0.000 A 
ATOM      8  C   UNL     1     -38.129  87.017  -2.155  0.00  0.00    +0.000 A 
ATOM      9  C   UNL     1     -40.875  84.959  -1.357  0.00  0.00    +0.000 A 
ATOM     10  C   UNL     1     -40.249  85.932  -1.672  0.00  0.00    +0.000 A 
ATOM     11  C   UNL     1     -41.415  82.645  -0.445  0.00  0.00    +0.000 C 
ATOM     12  C   UNL     1     -36.286  87.812  -3.704  0.00  0.00    +0.000 C 
ENDROOT
BRANCH   2  13
ATOM     13  C   UNL     1     -38.346  82.602   0.054  0.00  0.00    +0.000 C 
ATOM     14  C   UNL     1     -37.681  81.538   0.937  0.00  0.00    +0.000 C 
BRANCH  14  15
ATOM     15  C   UNL     1     -37.079  80.594   1.802  0.00  0.00    +0.000 C 
ATOM     16  O   UNL     1     -37.156  80.838   3.222  0.00  0.00    +0.000 OA
ATOM     17  C   UNL     1     -36.535  79.970   4.125  0.00  0.00    +0.000 C 
ATOM     18  O   UNL     1     -36.558  80.113   5.338  0.00  0.00    +0.000 OA
ATOM     19  C   UNL     1     -35.841  78.871   3.501  0.00  0.00    +0.000 C 
ATOM     20  C   UNL     1     -35.651  78.482   2.157  0.00  0.00    +0.000 C 
ATOM     21  C   UNL     1     -36.338  79.453   1.396  0.00  0.00    +0.000 C 
BRANCH  20  22
ATOM     22  O   UNL     1     -34.489  77.900   1.743  0.00  0.00    +0.000 OA
ATOM     23  H   UNL     1     -34.326  77.040   2.177  0.00  0.00    +0.000 HD
ENDBRANCH  20  22
ENDBRANCH  14  15
ENDBRANCH   2  13
BRANCH   3  24
ATOM     24  O   UNL     1     -36.107  83.538  -1.887  0.00  0.00    +0.000 OA
BRANCH  24  25
ATOM     25  C   UNL     1     -34.849  83.250  -1.391  0.00  0.00    +0.000 C 
ATOM     26  O   UNL     1     -34.577  83.239  -0.189  0.00  0.00    +0.000 OA
BRANCH  25  27
ATOM     27  C   UNL     1     -33.838  82.968  -2.557  0.00  0.00    +0.000 C 
ATOM     28  C   UNL     1     -33.363  81.468  -2.484  0.00  0.00    +0.000 C 
ATOM     29  C   UNL     1     -32.570  83.906  -2.447  0.00  0.00    +0.000 C 
BRANCH  27  30
ATOM     30  C   UNL     1     -34.551  83.244  -3.836  0.00  0.00    +0.000 C 
ATOM     31  C   UNL     1     -35.303  83.579  -5.157  0.00  0.00    +0.000 C 
ENDBRANCH  27  30
ENDBRANCH  25  27
ENDBRANCH  24  25
ENDBRANCH   3  24
TORSDOF 7
ENDMDL
MODEL 6
REMARK VINA RESULT:      -5.7     16.041     18.559
REMARK  Name = Simvastatin.pdbqt.pdb
REMARK  7 active torsions:
REMARK  status: ('A' for Active; 'I' for Inactive)
REMARK    1  A    between atoms: C_2  and  C_13
REMARK    2  A    between atoms: C_3  and  O_24
REMARK    3  A    between atoms: C_14  and  C_15
REMARK    4  A    between atoms: C_20  and  O_22
REMARK    5  A    between atoms: O_24  and  C_25
REMARK    6  A    between atoms: C_25  and  C_27
REMARK    7  A    between atoms: C_27  and  C_30
REMARK                            x       y       z     vdW  Elec       q    Type
REMARK                         _______ _______ _______ _____ _____    ______ ____
ROOT
ATOM      1  C   UNL     1     -42.963 102.007   3.801  0.00  0.00    +0.000 A 
ATOM      2  C   UNL     1     -41.921 101.960   2.703  0.00  0.00    +0.000 A 
ATOM      3  C   UNL     1     -42.951 102.951   4.975  0.00  0.00    +0.000 A 
ATOM      4  C   UNL     1     -42.195 101.196   1.457  0.00  0.00    +0.000 A 
ATOM      5  C   UNL     1     -44.173 101.061   3.651  0.00  0.00    +0.000 A 
ATOM      6  C   UNL     1     -44.135 102.814   5.778  0.00  0.00    +0.000 A 
ATOM      7  C   UNL     1     -45.317 102.014   5.677  0.00  0.00    +0.000 A 
ATOM      8  C   UNL     1     -45.131 101.200   4.519  0.00  0.00    +0.000 A 
ATOM      9  C   UNL     1     -43.436 100.498   1.512  0.00  0.00    +0.000 A 
ATOM     10  C   UNL     1     -44.250 100.431   2.390  0.00  0.00    +0.000 A 
ATOM     11  C   UNL     1     -41.291 101.073   0.268  0.00  0.00    +0.000 C 
ATOM     12  C   UNL     1     -46.653 102.620   5.968  0.00  0.00    +0.000 C 
ENDROOT
BRANCH   2  13
ATOM     13  C   UNL     1     -40.613 102.463   2.966  0.00  0.00    +0.000 C 
ATOM     14  C   UNL     1     -39.234 103.071   3.249  0.00  0.00    +0.000 C 
BRANCH  14  15
ATOM     15  C   UNL     1     -37.990 103.685   3.530  0.00  0.00    +0.000 C 
ATOM     16  O   UNL     1     -37.893 104.494   4.721  0.00  0.00    +0.000 OA
ATOM     17  C   UNL     1     -36.707 105.170   5.023  0.00  0.00    +0.000 C 
ATOM     18  O   UNL     1     -36.552 105.871   6.012  0.00  0.00    +0.000 OA
ATOM     19  C   UNL     1     -35.657 104.978   4.053  0.00  0.00    +0.000 C 
ATOM     20  C   UNL     1     -35.572 104.248   2.848  0.00  0.00    +0.000 C 
ATOM     21  C   UNL     1     -36.837 103.636   2.703  0.00  0.00    +0.000 C 
BRANCH  20  22
ATOM     22  O   UNL     1     -34.843 104.706   1.790  0.00  0.00    +0.000 OA
ATOM     23  H   UNL     1     -34.246 105.438   2.036  0.00  0.00    +0.000 HD
ENDBRANCH  20  22
ENDBRANCH  14  15
ENDBRANCH   2  13
BRANCH   3  24
ATOM     24  O   UNL     1     -42.487 104.239   4.694  0.00  0.00    +0.000 OA
BRANCH  24  25
ATOM     25  C   UNL     1     -41.521 104.660   5.590  0.00  0.00    +0.000 C 
ATOM     26  O   UNL     1     -40.987 103.916   6.415  0.00  0.00    +0.000 OA
BRANCH  25  27
ATOM     27  C   UNL     1     -41.230 106.192   5.422  0.00  0.00    +0.000 C 
ATOM     28  C   UNL     1     -40.151 106.638   6.479  0.00  0.00    +0.000 C 
ATOM     29  C   UNL     1     -42.542 107.047   5.648  0.00  0.00    +0.000 C 
BRANCH  27  30
ATOM     30  C   UNL     1     -40.737 106.398   4.032  0.00  0.00    +0.000 C 
ATOM     31  C   UNL     1     -40.240 106.659   2.579  0.00  0.00    +0.000 C 
ENDBRANCH  27  30
ENDBRANCH  25  27
ENDBRANCH  24  25
ENDBRANCH   3  24
TORSDOF 7
ENDMDL
MODEL 7
REMARK VINA RESULT:      -5.6     17.872     20.530
REMARK  Name = Simvastatin.pdbqt.pdb
REMARK  7 active torsions:
REMARK  status: ('A' for Active; 'I' for Inactive)
REMARK    1  A    between atoms: C_2  and  C_13
REMARK    2  A    between atoms: C_3  and  O_24
REMARK    3  A    between atoms: C_14  and  C_15
REMARK    4  A    between atoms: C_20  and  O_22
REMARK    5  A    between atoms: O_24  and  C_25
REMARK    6  A    between atoms: C_25  and  C_27
REMARK    7  A    between atoms: C_27  and  C_30
REMARK                            x       y       z     vdW  Elec       q    Type
REMARK                         _______ _______ _______ _____ _____    ______ ____
ROOT
ATOM      1  C   UNL     1     -40.286 103.665   4.975  0.00  0.00    +0.000 A 
ATOM      2  C   UNL     1     -41.451 104.449   5.539  0.00  0.00    +0.000 A 
ATOM      3  C   UNL     1     -40.398 102.466   4.070  0.00  0.00    +0.000 A 
ATOM      4  C   UNL     1     -41.214 105.774   6.171  0.00  0.00    +0.000 A 
ATOM      5  C   UNL     1     -38.872 104.194   5.295  0.00  0.00    +0.000 A 
ATOM      6  C   UNL     1     -39.108 102.014   3.624  0.00  0.00    +0.000 A 
ATOM      7  C   UNL     1     -37.769 102.480   3.823  0.00  0.00    +0.000 A 
ATOM      8  C   UNL     1     -37.880 103.602   4.699  0.00  0.00    +0.000 A 
ATOM      9  C   UNL     1     -39.828 106.097   6.244  0.00  0.00    +0.000 A 
ATOM     10  C   UNL     1     -38.866 105.472   5.896  0.00  0.00    +0.000 A 
ATOM     11  C   UNL     1     -42.252 106.688   6.747  0.00  0.00    +0.000 C 
ATOM     12  C   UNL     1     -36.813 102.510   2.675  0.00  0.00    +0.000 C 
ENDROOT
BRANCH   2  13
ATOM     13  C   UNL     1     -42.724 103.816   5.652  0.00  0.00    +0.000 C 
ATOM     14  C   UNL     1     -44.122 103.201   5.786  0.00  0.00    +0.000 C 
BRANCH  14  15
ATOM     15  C   UNL     1     -45.438 102.691   5.896  0.00  0.00    +0.000 C 
ATOM     16  O   UNL     1     -45.942 102.410   7.219  0.00  0.00    +0.000 OA
ATOM     17  C   UNL     1     -47.214 101.855   7.389  0.00  0.00    +0.000 C 
ATOM     18  O   UNL     1     -47.706 101.591   8.476  0.00  0.00    +0.000 OA
ATOM     19  C   UNL     1     -47.916 101.605   6.155  0.00  0.00    +0.000 C 
ATOM     20  C   UNL     1     -47.588 101.800   4.796  0.00  0.00    +0.000 C 
ATOM     21  C   UNL     1     -46.292 102.362   4.811  0.00  0.00    +0.000 C 
BRANCH  20  22
ATOM     22  O   UNL     1     -48.011 100.933   3.831  0.00  0.00    +0.000 OA
ATOM     23  H   UNL     1     -47.322 100.288   3.580  0.00  0.00    +0.000 HD
ENDBRANCH  20  22
ENDBRANCH  14  15
ENDBRANCH   2  13
BRANCH   3  24
ATOM     24  O   UNL     1     -41.437 102.522   3.137  0.00  0.00    +0.000 OA
BRANCH  24  25
ATOM     25  C   UNL     1     -42.270 101.421   3.206  0.00  0.00    +0.000 C 
ATOM     26  O   UNL     1     -42.194 100.563   4.089  0.00  0.00    +0.000 OA
BRANCH  25  27
ATOM     27  C   UNL     1     -43.287 101.411   2.012  0.00  0.00    +0.000 C 
ATOM     28  C   UNL     1     -43.883 102.856   1.821  0.00  0.00    +0.000 C 
ATOM     29  C   UNL     1     -44.477 100.405   2.289  0.00  0.00    +0.000 C 
BRANCH  27  30
ATOM     30  C   UNL     1     -42.539 100.974   0.800  0.00  0.00    +0.000 C 
ATOM     31  C   UNL     1     -41.721 100.546  -0.454  0.00  0.00    +0.000 C 
ENDBRANCH  27  30
ENDBRANCH  25  27
ENDBRANCH  24  25
ENDBRANCH   3  24
TORSDOF 7
ENDMDL
MODEL 8
REMARK VINA RESULT:      -5.6     12.746     14.953
REMARK  Name = Simvastatin.pdbqt.pdb
REMARK  7 active torsions:
REMARK  status: ('A' for Active; 'I' for Inactive)
REMARK    1  A    between atoms: C_2  and  C_13
REMARK    2  A    between atoms: C_3  and  O_24
REMARK    3  A    between atoms: C_14  and  C_15
REMARK    4  A    between atoms: C_20  and  O_22
REMARK    5  A    between atoms: O_24  and  C_25
REMARK    6  A    between atoms: C_25  and  C_27
REMARK    7  A    between atoms: C_27  and  C_30
REMARK                            x       y       z     vdW  Elec       q    Type
REMARK                         _______ _______ _______ _____ _____    ______ ____
ROOT
ATOM      1  C   UNL     1     -39.679 103.482   1.132  0.00  0.00    +0.000 A 
ATOM      2  C   UNL     1     -39.273 104.542   0.131  0.00  0.00    +0.000 A 
ATOM      3  C   UNL     1     -38.762 102.834   2.135  0.00  0.00    +0.000 A 
ATOM      4  C   UNL     1     -40.318 105.310  -0.598  0.00  0.00    +0.000 A 
ATOM      5  C   UNL     1     -41.174 103.101   1.173  0.00  0.00    +0.000 A 
ATOM      6  C   UNL     1     -39.476 101.946   3.012  0.00  0.00    +0.000 A 
ATOM      7  C   UNL     1     -40.854 101.587   3.154  0.00  0.00    +0.000 A 
ATOM      8  C   UNL     1     -41.543 102.294   2.123  0.00  0.00    +0.000 A 
ATOM      9  C   UNL     1     -41.632 104.848  -0.302  0.00  0.00    +0.000 A 
ATOM     10  C   UNL     1     -42.000 103.957   0.411  0.00  0.00    +0.000 A 
ATOM     11  C   UNL     1     -40.089 106.407  -1.593  0.00  0.00    +0.000 C 
ATOM     12  C   UNL     1     -41.455 101.465   4.518  0.00  0.00    +0.000 C 
ENDROOT
BRANCH   2  13
ATOM     13  C   UNL     1     -37.905 104.640  -0.260  0.00  0.00    +0.000 C 
ATOM     14  C   UNL     1     -36.455 104.737  -0.750  0.00  0.00    +0.000 C 
BRANCH  14  15
ATOM     15  C   UNL     1     -35.139 104.839  -1.261  0.00  0.00    +0.000 C 
ATOM     16  O   UNL     1     -34.346 105.975  -0.856  0.00  0.00    +0.000 OA
ATOM     17  C   UNL     1     -33.058 106.159  -1.369  0.00  0.00    +0.000 C 
ATOM     18  O   UNL     1     -32.331 107.095  -1.072  0.00  0.00    +0.000 OA
ATOM     19  C   UNL     1     -32.647 105.140  -2.303  0.00  0.00    +0.000 C 
ATOM     20  C   UNL     1     -33.275 103.986  -2.818  0.00  0.00    +0.000 C 
ATOM     21  C   UNL     1     -34.544 103.955  -2.199  0.00  0.00    +0.000 C 
BRANCH  20  22
ATOM     22  O   UNL     1     -33.064 103.575  -4.101  0.00  0.00    +0.000 OA
ATOM     23  H   UNL     1     -33.696 103.973  -4.730  0.00  0.00    +0.000 HD
ENDBRANCH  20  22
ENDBRANCH  14  15
ENDBRANCH   2  13
BRANCH   3  24
ATOM     24  O   UNL     1     -37.800 103.681   2.693  0.00  0.00    +0.000 OA
BRANCH  24  25
ATOM     25  C   UNL     1     -38.049 103.960   4.025  0.00  0.00    +0.000 C 
ATOM     26  O   UNL     1     -37.911 103.136   4.931  0.00  0.00    +0.000 OA
BRANCH  25  27
ATOM     27  C   UNL     1     -38.545 105.437   4.204  0.00  0.00    +0.000 C 
ATOM     28  C   UNL     1     -37.956 106.330   3.049  0.00  0.00    +0.000 C 
ATOM     29  C   UNL     1     -38.071 106.029   5.593  0.00  0.00    +0.000 C 
BRANCH  27  30
ATOM     30  C   UNL     1     -40.034 105.412   4.157  0.00  0.00    +0.000 C 
ATOM     31  C   UNL     1     -41.589 105.424   4.077  0.00  0.00    +0.000 C 
ENDBRANCH  27  30
ENDBRANCH  25  27
ENDBRANCH  24  25
ENDBRANCH   3  24
TORSDOF 7
ENDMDL
MODEL 9
REMARK VINA RESULT:      -5.5     15.610     17.720
REMARK  Name = Simvastatin.pdbqt.pdb
REMARK  7 active torsions:
REMARK  status: ('A' for Active; 'I' for Inactive)
REMARK    1  A    between atoms: C_2  and  C_13
REMARK    2  A    between atoms: C_3  and  O_24
REMARK    3  A    between atoms: C_14  and  C_15
REMARK    4  A    between atoms: C_20  and  O_22
REMARK    5  A    between atoms: O_24  and  C_25
REMARK    6  A    between atoms: C_25  and  C_27
REMARK    7  A    between atoms: C_27  and  C_30
REMARK                            x       y       z     vdW  Elec       q    Type
REMARK                         _______ _______ _______ _____ _____    ______ ____
ROOT
ATOM      1  C   UNL     1     -40.063 102.554   2.272  0.00  0.00    +0.000 A 
ATOM      2  C   UNL     1     -41.539 102.273   2.086  0.00  0.00    +0.000 A 
ATOM      3  C   UNL     1     -39.232 103.461   1.403  0.00  0.00    +0.000 A 
ATOM      4  C   UNL     1     -42.306 101.602   3.170  0.00  0.00    +0.000 A 
ATOM      5  C   UNL     1     -39.384 101.917   3.503  0.00  0.00    +0.000 A 
ATOM      6  C   UNL     1     -37.893 103.599   1.907  0.00  0.00    +0.000 A 
ATOM      7  C   UNL     1     -37.209 103.097   3.059  0.00  0.00    +0.000 A 
ATOM      8  C   UNL     1     -38.154 102.269   3.736  0.00  0.00    +0.000 A 
ATOM      9  C   UNL     1     -41.474 101.212   4.258  0.00  0.00    +0.000 A 
ATOM     10  C   UNL     1     -40.291 101.330   4.413  0.00  0.00    +0.000 A 
ATOM     11  C   UNL     1     -43.769 101.280   3.160  0.00  0.00    +0.000 C 
ATOM     12  C   UNL     1     -36.299 103.995   3.835  0.00  0.00    +0.000 C 
ENDROOT
BRANCH   2  13
ATOM     13  C   UNL     1     -42.123 102.456   0.798  0.00  0.00    +0.000 C 
ATOM     14  C   UNL     1     -42.723 102.588  -0.607  0.00  0.00    +0.000 C 
BRANCH  14  15
ATOM     15  C   UNL     1     -43.269 102.647  -1.911  0.00  0.00    +0.000 C 
ATOM     16  O   UNL     1     -43.989 101.493  -2.392  0.00  0.00    +0.000 OA
ATOM     17  C   UNL     1     -44.506 101.470  -3.692  0.00  0.00    +0.000 C 
ATOM     18  O   UNL     1     -45.125 100.530  -4.166  0.00  0.00    +0.000 OA
ATOM     19  C   UNL     1     -44.239 102.667  -4.451  0.00  0.00    +0.000 C 
ATOM     20  C   UNL     1     -43.557 103.868  -4.160  0.00  0.00    +0.000 C 
ATOM     21  C   UNL     1     -43.112 103.721  -2.827  0.00  0.00    +0.000 C 
BRANCH  20  22
ATOM     22  O   UNL     1     -42.838 104.526  -5.114  0.00  0.00    +0.000 OA
ATOM     23  H   UNL     1     -43.340 104.648  -5.942  0.00  0.00    +0.000 HD
ENDBRANCH  20  22
ENDBRANCH  14  15
ENDBRANCH   2  13
BRANCH   3  24
ATOM     24  O   UNL     1     -39.887 104.608   0.946  0.00  0.00    +0.000 OA
BRANCH  24  25
ATOM     25  C   UNL     1     -39.425 105.760   1.557  0.00  0.00    +0.000 C 
ATOM     26  O   UNL     1     -38.315 106.249   1.337  0.00  0.00    +0.000 OA
BRANCH  25  27
ATOM     27  C   UNL     1     -40.487 106.325   2.563  0.00  0.00    +0.000 C 
ATOM     28  C   UNL     1     -41.928 105.882   2.106  0.00  0.00    +0.000 C 
ATOM     29  C   UNL     1     -40.436 107.905   2.614  0.00  0.00    +0.000 C 
BRANCH  27  30
ATOM     30  C   UNL     1     -40.157 105.775   3.908  0.00  0.00    +0.000 C 
ATOM     31  C   UNL     1     -39.803 105.156   5.293  0.00  0.00    +0.000 C 
ENDBRANCH  27  30
ENDBRANCH  25  27
ENDBRANCH  24  25
ENDBRANCH   3  24
TORSDOF 7
ENDMDL
