MODEL 1
REMARK VINA RESULT:      -7.7      0.000      0.000
REMARK  Name = Staurosporine.pdbqt.pdb
REMARK  2 active torsions:
REMARK  status: ('A' for Active; 'I' for Inactive)
REMARK    1  A    between atoms: C_3  and  O_11
REMARK    2  A    between atoms: C_5  and  N_8
REMARK                            x       y       z     vdW  Elec       q    Type
REMARK                         _______ _______ _______ _____ _____    ______ ____
ROOT
ATOM      1  O   UNL     1     -32.603  98.465  15.342  0.00  0.00    +0.000 OA
ATOM      2  C   UNL     1     -32.070  98.975  16.594  0.00  0.00    +0.000 C 
ATOM      3  C   UNL     1     -31.494 100.404  16.522  0.00  0.00    +0.000 C 
ATOM      4  C   UNL     1     -33.470  99.346  14.716  0.00  0.00    +0.000 C 
ATOM      5  C   UNL     1     -31.952 101.290  15.455  0.00  0.00    +0.000 C 
ATOM      6  C   UNL     1     -32.885 100.628  14.635  0.00  0.00    +0.000 C 
ATOM      7  C   UNL     1     -30.868  98.014  16.889  0.00  0.00    +0.000 C 
ATOM      8  N   UNL     1     -33.137  98.846  17.613  0.00  0.00    +0.000 N 
ATOM      9  C   UNL     1     -34.503  98.786  17.498  0.00  0.00    +0.000 A 
ATOM     10  C   UNL     1     -35.274  98.962  16.344  0.00  0.00    +0.000 A 
ATOM     11  C   UNL     1     -35.271  98.598  18.654  0.00  0.00    +0.000 A 
ATOM     12  N   UNL     1     -34.789  99.274  15.111  0.00  0.00    +0.000 N 
ATOM     13  C   UNL     1     -36.662  98.956  16.549  0.00  0.00    +0.000 A 
ATOM     14  C   UNL     1     -35.988  99.592  14.442  0.00  0.00    +0.000 A 
ATOM     15  C   UNL     1     -37.138  99.367  15.285  0.00  0.00    +0.000 A 
ATOM     16  C   UNL     1     -36.145 100.040  13.120  0.00  0.00    +0.000 A 
ATOM     17  C   UNL     1     -38.413  99.626  14.744  0.00  0.00    +0.000 A 
ATOM     18  C   UNL     1     -38.548 100.070  13.430  0.00  0.00    +0.000 A 
ATOM     19  C   UNL     1     -37.430 100.275  12.635  0.00  0.00    +0.000 A 
ATOM     20  C   UNL     1     -37.443  98.758  17.705  0.00  0.00    +0.000 A 
ATOM     21  C   UNL     1     -36.655  98.550  18.871  0.00  0.00    +0.000 A 
ATOM     22  C   UNL     1     -38.849  98.748  18.036  0.00  0.00    +0.000 C 
ATOM     23  C   UNL     1     -37.603  98.397  20.007  0.00  0.00    +0.000 C 
ATOM     24  N   UNL     1     -38.813  98.527  19.420  0.00  0.00    +0.000 N 
ATOM     25  H   UNL     1     -39.675  98.465  19.942  0.00  0.00    +0.000 HD
ATOM     26  O   UNL     1     -39.875  98.881  17.386  0.00  0.00    +0.000 OA
ATOM     27  C   UNL     1     -34.293  98.555  19.661  0.00  0.00    +0.000 A 
ATOM     28  C   UNL     1     -33.009  98.723  19.024  0.00  0.00    +0.000 A 
ATOM     29  C   UNL     1     -34.336  98.415  21.064  0.00  0.00    +0.000 A 
ATOM     30  C   UNL     1     -31.841  98.738  19.807  0.00  0.00    +0.000 A 
ATOM     31  C   UNL     1     -31.934  98.593  21.191  0.00  0.00    +0.000 A 
ATOM     32  C   UNL     1     -33.161  98.433  21.813  0.00  0.00    +0.000 A 
ENDROOT
BRANCH   5  33
ATOM     33  N   UNL     1     -31.664 102.680  15.394  0.00  0.00    +0.000 N 
ATOM     34  C   UNL     1     -32.720 103.546  15.872  0.00  0.00    +0.000 C 
ATOM     35  H   UNL     1     -31.190 102.986  14.542  0.00  0.00    +0.000 HD
ENDBRANCH   5  33
BRANCH   3  36
ATOM     36  O   UNL     1     -31.032 100.923  17.712  0.00  0.00    +0.000 OA
ATOM     37  C   UNL     1     -29.651 101.165  17.676  0.00  0.00    +0.000 C 
ENDBRANCH   3  36
TORSDOF 2
ENDMDL
MODEL 2
REMARK VINA RESULT:      -7.6      2.447      5.684
REMARK  Name = Staurosporine.pdbqt.pdb
REMARK  2 active torsions:
REMARK  status: ('A' for Active; 'I' for Inactive)
REMARK    1  A    between atoms: C_3  and  O_11
REMARK    2  A    between atoms: C_5  and  N_8
REMARK                            x       y       z     vdW  Elec       q    Type
REMARK                         _______ _______ _______ _____ _____    ______ ____
ROOT
ATOM      1  O   UNL     1     -37.199  99.055  15.064  0.00  0.00    +0.000 OA
ATOM      2  C   UNL     1     -36.145 100.005  14.748  0.00  0.00    +0.000 C 
ATOM      3  C   UNL     1     -36.461 101.471  15.108  0.00  0.00    +0.000 C 
ATOM      4  C   UNL     1     -37.681  99.183  16.357  0.00  0.00    +0.000 C 
ATOM      5  C   UNL     1     -37.465 101.738  16.134  0.00  0.00    +0.000 C 
ATOM      6  C   UNL     1     -37.996 100.531  16.626  0.00  0.00    +0.000 C 
ATOM      7  C   UNL     1     -36.053  99.930  13.186  0.00  0.00    +0.000 C 
ATOM      8  N   UNL     1     -34.904  99.519  15.393  0.00  0.00    +0.000 N 
ATOM      9  C   UNL     1     -34.702  98.707  16.480  0.00  0.00    +0.000 A 
ATOM     10  C   UNL     1     -35.661  98.207  17.367  0.00  0.00    +0.000 A 
ATOM     11  C   UNL     1     -33.390  98.361  16.832  0.00  0.00    +0.000 A 
ATOM     12  N   UNL     1     -36.993  98.484  17.327  0.00  0.00    +0.000 N 
ATOM     13  C   UNL     1     -35.147  97.489  18.457  0.00  0.00    +0.000 A 
ATOM     14  C   UNL     1     -37.397  97.963  18.572  0.00  0.00    +0.000 A 
ATOM     15  C   UNL     1     -36.300  97.320  19.255  0.00  0.00    +0.000 A 
ATOM     16  C   UNL     1     -38.681  97.987  19.141  0.00  0.00    +0.000 A 
ATOM     17  C   UNL     1     -36.557  96.733  20.510  0.00  0.00    +0.000 A 
ATOM     18  C   UNL     1     -37.838  96.768  21.058  0.00  0.00    +0.000 A 
ATOM     19  C   UNL     1     -38.880  97.386  20.383  0.00  0.00    +0.000 A 
ATOM     20  C   UNL     1     -33.833  97.128  18.813  0.00  0.00    +0.000 A 
ATOM     21  C   UNL     1     -32.862  97.613  17.892  0.00  0.00    +0.000 A 
ATOM     22  C   UNL     1     -33.192  96.421  19.898  0.00  0.00    +0.000 C 
ATOM     23  C   UNL     1     -31.533  97.195  18.413  0.00  0.00    +0.000 C 
ATOM     24  N   UNL     1     -31.839  96.530  19.548  0.00  0.00    +0.000 N 
ATOM     25  H   UNL     1     -31.132  96.113  20.136  0.00  0.00    +0.000 HD
ATOM     26  O   UNL     1     -33.602  95.846  20.895  0.00  0.00    +0.000 OA
ATOM     27  C   UNL     1     -32.631  99.053  15.874  0.00  0.00    +0.000 A 
ATOM     28  C   UNL     1     -33.553  99.763  15.021  0.00  0.00    +0.000 A 
ATOM     29  C   UNL     1     -31.248  99.189  15.631  0.00  0.00    +0.000 A 
ATOM     30  C   UNL     1     -33.059 100.562  13.975  0.00  0.00    +0.000 A 
ATOM     31  C   UNL     1     -31.682 100.663  13.772  0.00  0.00    +0.000 A 
ATOM     32  C   UNL     1     -30.788  99.987  14.585  0.00  0.00    +0.000 A 
ENDROOT
BRANCH   5  33
ATOM     33  N   UNL     1     -37.702 103.019  16.704  0.00  0.00    +0.000 N 
ATOM     34  C   UNL     1     -38.792 103.762  16.112  0.00  0.00    +0.000 C 
ATOM     35  H   UNL     1     -36.860 103.558  16.918  0.00  0.00    +0.000 HD
ENDBRANCH   5  33
BRANCH   3  36
ATOM     36  O   UNL     1     -35.452 102.378  14.863  0.00  0.00    +0.000 OA
ATOM     37  C   UNL     1     -35.801 103.288  13.855  0.00  0.00    +0.000 C 
ENDBRANCH   3  36
TORSDOF 2
ENDMDL
MODEL 3
REMARK VINA RESULT:      -7.5      2.689      5.453
REMARK  Name = Staurosporine.pdbqt.pdb
REMARK  2 active torsions:
REMARK  status: ('A' for Active; 'I' for Inactive)
REMARK    1  A    between atoms: C_3  and  O_11
REMARK    2  A    between atoms: C_5  and  N_8
REMARK                            x       y       z     vdW  Elec       q    Type
REMARK                         _______ _______ _______ _____ _____    ______ ____
ROOT
ATOM      1  O   UNL     1     -30.167  97.299  17.876  0.00  0.00    +0.000 OA
ATOM      2  C   UNL     1     -31.283  97.240  18.805  0.00  0.00    +0.000 C 
ATOM      3  C   UNL     1     -31.085  98.036  20.111  0.00  0.00    +0.000 C 
ATOM      4  C   UNL     1     -29.718  98.588  17.638  0.00  0.00    +0.000 C 
ATOM      5  C   UNL     1     -30.122  99.135  20.121  0.00  0.00    +0.000 C 
ATOM      6  C   UNL     1     -29.511  99.263  18.860  0.00  0.00    +0.000 C 
ATOM      7  C   UNL     1     -31.341  95.726  19.199  0.00  0.00    +0.000 C 
ATOM      8  N   UNL     1     -32.495  97.660  18.065  0.00  0.00    +0.000 N 
ATOM      9  C   UNL     1     -32.655  98.444  16.951  0.00  0.00    +0.000 A 
ATOM     10  C   UNL     1     -31.678  99.178  16.271  0.00  0.00    +0.000 A 
ATOM     11  C   UNL     1     -33.944  98.623  16.429  0.00  0.00    +0.000 A 
ATOM     12  N   UNL     1     -30.369  99.276  16.636  0.00  0.00    +0.000 N 
ATOM     13  C   UNL     1     -32.155  99.981  15.225  0.00  0.00    +0.000 A 
ATOM     14  C   UNL     1     -29.950 100.323  15.790  0.00  0.00    +0.000 A 
ATOM     15  C   UNL     1     -31.008 100.737  14.900  0.00  0.00    +0.000 A 
ATOM     16  C   UNL     1     -28.682 100.923  15.726  0.00  0.00    +0.000 A 
ATOM     17  C   UNL     1     -30.730 101.767  13.980  0.00  0.00    +0.000 A 
ATOM     18  C   UNL     1     -29.466 102.351  13.932  0.00  0.00    +0.000 A 
ATOM     19  C   UNL     1     -28.462 101.936  14.793  0.00  0.00    +0.000 A 
ATOM     20  C   UNL     1     -33.445 100.159  14.687  0.00  0.00    +0.000 A 
ATOM     21  C   UNL     1     -34.433  99.388  15.362  0.00  0.00    +0.000 A 
ATOM     22  C   UNL     1     -34.050 100.955  13.645  0.00  0.00    +0.000 C 
ATOM     23  C   UNL     1     -35.736  99.705  14.720  0.00  0.00    +0.000 C 
ATOM     24  N   UNL     1     -35.401 100.600  13.764  0.00  0.00    +0.000 N 
ATOM     25  H   UNL     1     -36.086 101.008  13.144  0.00  0.00    +0.000 HD
ATOM     26  O   UNL     1     -33.617 101.750  12.824  0.00  0.00    +0.000 OA
ATOM     27  C   UNL     1     -34.735  97.887  17.326  0.00  0.00    +0.000 A 
ATOM     28  C   UNL     1     -33.853  97.324  18.320  0.00  0.00    +0.000 A 
ATOM     29  C   UNL     1     -36.119  97.641  17.437  0.00  0.00    +0.000 A 
ATOM     30  C   UNL     1     -34.387  96.547  19.363  0.00  0.00    +0.000 A 
ATOM     31  C   UNL     1     -35.764  96.329  19.429  0.00  0.00    +0.000 A 
ATOM     32  C   UNL     1     -36.619  96.865  18.481  0.00  0.00    +0.000 A 
ENDROOT
BRANCH   5  33
ATOM     33  N   UNL     1     -29.993 100.072  21.183  0.00  0.00    +0.000 N 
ATOM     34  C   UNL     1     -29.769 101.440  20.769  0.00  0.00    +0.000 C 
ATOM     35  H   UNL     1     -29.435  99.750  21.977  0.00  0.00    +0.000 HD
ENDBRANCH   5  33
BRANCH   3  36
ATOM     36  O   UNL     1     -32.154  98.034  20.980  0.00  0.00    +0.000 OA
ATOM     37  C   UNL     1     -32.770  99.292  21.053  0.00  0.00    +0.000 C 
ENDBRANCH   3  36
TORSDOF 2
ENDMDL
MODEL 4
REMARK VINA RESULT:      -7.4      2.435      5.326
REMARK  Name = Staurosporine.pdbqt.pdb
REMARK  2 active torsions:
REMARK  status: ('A' for Active; 'I' for Inactive)
REMARK    1  A    between atoms: C_3  and  O_11
REMARK    2  A    between atoms: C_5  and  N_8
REMARK                            x       y       z     vdW  Elec       q    Type
REMARK                         _______ _______ _______ _____ _____    ______ ____
ROOT
ATOM      1  O   UNL     1     -32.609  96.216  18.809  0.00  0.00    +0.000 OA
ATOM      2  C   UNL     1     -33.640  96.609  19.755  0.00  0.00    +0.000 C 
ATOM      3  C   UNL     1     -33.147  97.475  20.932  0.00  0.00    +0.000 C 
ATOM      4  C   UNL     1     -31.823  97.275  18.384  0.00  0.00    +0.000 C 
ATOM      5  C   UNL     1     -31.910  98.235  20.771  0.00  0.00    +0.000 C 
ATOM      6  C   UNL     1     -31.361  98.013  19.495  0.00  0.00    +0.000 C 
ATOM      7  C   UNL     1     -34.109  95.242  20.361  0.00  0.00    +0.000 C 
ATOM      8  N   UNL     1     -34.720  97.265  18.983  0.00  0.00    +0.000 N 
ATOM      9  C   UNL     1     -34.711  97.908  17.772  0.00  0.00    +0.000 A 
ATOM     10  C   UNL     1     -33.604  98.228  16.979  0.00  0.00    +0.000 A 
ATOM     11  C   UNL     1     -35.921  98.387  17.251  0.00  0.00    +0.000 A 
ATOM     12  N   UNL     1     -32.304  97.985  17.305  0.00  0.00    +0.000 N 
ATOM     13  C   UNL     1     -33.889  98.992  15.838  0.00  0.00    +0.000 A 
ATOM     14  C   UNL     1     -31.650  98.744  16.313  0.00  0.00    +0.000 A 
ATOM     15  C   UNL     1     -32.593  99.329  15.390  0.00  0.00    +0.000 A 
ATOM     16  C   UNL     1     -30.269  98.933  16.144  0.00  0.00    +0.000 A 
ATOM     17  C   UNL     1     -32.083 100.104  14.329  0.00  0.00    +0.000 A 
ATOM     18  C   UNL     1     -30.709 100.280  14.178  0.00  0.00    +0.000 A 
ATOM     19  C   UNL     1     -29.820  99.705  15.073  0.00  0.00    +0.000 A 
ATOM     20  C   UNL     1     -35.101  99.468  15.301  0.00  0.00    +0.000 A 
ATOM     21  C   UNL     1     -36.229  99.115  16.094  0.00  0.00    +0.000 A 
ATOM     22  C   UNL     1     -35.510 100.263  14.166  0.00  0.00    +0.000 C 
ATOM     23  C   UNL     1     -37.420  99.714  15.434  0.00  0.00    +0.000 C 
ATOM     24  N   UNL     1     -36.897 100.338  14.357  0.00  0.00    +0.000 N 
ATOM     25  H   UNL     1     -37.469 100.843  13.696  0.00  0.00    +0.000 HD
ATOM     26  O   UNL     1     -34.914 100.782  13.234  0.00  0.00    +0.000 OA
ATOM     27  C   UNL     1     -36.838  98.039  18.256  0.00  0.00    +0.000 A 
ATOM     28  C   UNL     1     -36.101  97.377  19.305  0.00  0.00    +0.000 A 
ATOM     29  C   UNL     1     -38.226  98.226  18.423  0.00  0.00    +0.000 A 
ATOM     30  C   UNL     1     -36.776  96.934  20.456  0.00  0.00    +0.000 A 
ATOM     31  C   UNL     1     -38.151  97.139  20.575  0.00  0.00    +0.000 A 
ATOM     32  C   UNL     1     -38.868  97.774  19.574  0.00  0.00    +0.000 A 
ENDROOT
BRANCH   5  33
ATOM     33  N   UNL     1     -31.457  99.223  21.686  0.00  0.00    +0.000 N 
ATOM     34  C   UNL     1     -30.133  99.000  22.224  0.00  0.00    +0.000 C 
ATOM     35  H   UNL     1     -32.160  99.547  22.355  0.00  0.00    +0.000 HD
ENDBRANCH   5  33
BRANCH   3  36
ATOM     36  O   UNL     1     -34.121  97.900  21.810  0.00  0.00    +0.000 OA
ATOM     37  C   UNL     1     -33.944  97.355  23.090  0.00  0.00    +0.000 C 
ENDBRANCH   3  36
TORSDOF 2
ENDMDL
MODEL 5
REMARK VINA RESULT:      -7.4      1.861      7.377
REMARK  Name = Staurosporine.pdbqt.pdb
REMARK  2 active torsions:
REMARK  status: ('A' for Active; 'I' for Inactive)
REMARK    1  A    between atoms: C_3  and  O_11
REMARK    2  A    between atoms: C_5  and  N_8
REMARK                            x       y       z     vdW  Elec       q    Type
REMARK                         _______ _______ _______ _____ _____    ______ ____
ROOT
ATOM      1  O   UNL     1     -33.815  96.983  18.733  0.00  0.00    +0.000 OA
ATOM      2  C   UNL     1     -34.986  97.626  18.158  0.00  0.00    +0.000 C 
ATOM      3  C   UNL     1     -35.831  98.447  19.152  0.00  0.00    +0.000 C 
ATOM      4  C   UNL     1     -33.039  97.841  19.496  0.00  0.00    +0.000 C 
ATOM      5  C   UNL     1     -35.196  98.939  20.371  0.00  0.00    +0.000 C 
ATOM      6  C   UNL     1     -33.848  98.538  20.418  0.00  0.00    +0.000 C 
ATOM      7  C   UNL     1     -35.868  96.416  17.699  0.00  0.00    +0.000 C 
ATOM      8  N   UNL     1     -34.523  98.434  17.006  0.00  0.00    +0.000 N 
ATOM      9  C   UNL     1     -33.303  98.991  16.716  0.00  0.00    +0.000 A 
ATOM     10  C   UNL     1     -32.168  99.040  17.531  0.00  0.00    +0.000 A 
ATOM     11  C   UNL     1     -33.140  99.666  15.499  0.00  0.00    +0.000 A 
ATOM     12  N   UNL     1     -32.091  98.567  18.806  0.00  0.00    +0.000 N 
ATOM     13  C   UNL     1     -31.093  99.776  17.012  0.00  0.00    +0.000 A 
ATOM     14  C   UNL     1     -30.859  99.122  19.207  0.00  0.00    +0.000 A 
ATOM     15  C   UNL     1     -30.219  99.825  18.120  0.00  0.00    +0.000 A 
ATOM     16  C   UNL     1     -30.239  99.026  20.463  0.00  0.00    +0.000 A 
ATOM     17  C   UNL     1     -28.966 100.421  18.367  0.00  0.00    +0.000 A 
ATOM     18  C   UNL     1     -28.367 100.315  19.621  0.00  0.00    +0.000 A 
ATOM     19  C   UNL     1     -28.996  99.631  20.650  0.00  0.00    +0.000 A 
ATOM     20  C   UNL     1     -30.915 100.447  15.786  0.00  0.00    +0.000 A 
ATOM     21  C   UNL     1     -32.062 100.371  14.947  0.00  0.00    +0.000 A 
ATOM     22  C   UNL     1     -29.882 101.239  15.159  0.00  0.00    +0.000 C 
ATOM     23  C   UNL     1     -31.747 101.151  13.720  0.00  0.00    +0.000 C 
ATOM     24  N   UNL     1     -30.493 101.595  13.949  0.00  0.00    +0.000 N 
ATOM     25  H   UNL     1     -29.992 102.163  13.281  0.00  0.00    +0.000 HD
ATOM     26  O   UNL     1     -28.753 101.574  15.487  0.00  0.00    +0.000 OA
ATOM     27  C   UNL     1     -34.418  99.565  14.926  0.00  0.00    +0.000 A 
ATOM     28  C   UNL     1     -35.251  98.834  15.852  0.00  0.00    +0.000 A 
ATOM     29  C   UNL     1     -34.994 100.030  13.725  0.00  0.00    +0.000 A 
ATOM     30  C   UNL     1     -36.601  98.601  15.537  0.00  0.00    +0.000 A 
ATOM     31  C   UNL     1     -37.124  99.078  14.335  0.00  0.00    +0.000 A 
ATOM     32  C   UNL     1     -36.334  99.781  13.440  0.00  0.00    +0.000 A 
ENDROOT
BRANCH   5  33
ATOM     33  N   UNL     1     -35.794  99.872  21.262  0.00  0.00    +0.000 N 
ATOM     34  C   UNL     1     -36.487  99.286  22.389  0.00  0.00    +0.000 C 
ATOM     35  H   UNL     1     -36.265 100.659  20.810  0.00  0.00    +0.000 HD
ENDBRANCH   5  33
BRANCH   3  36
ATOM     36  O   UNL     1     -36.915  99.106  18.613  0.00  0.00    +0.000 OA
ATOM     37  C   UNL     1     -38.130  98.560  19.052  0.00  0.00    +0.000 C 
ENDBRANCH   3  36
TORSDOF 2
ENDMDL
MODEL 6
REMARK VINA RESULT:      -7.3      1.647      1.875
REMARK  Name = Staurosporine.pdbqt.pdb
REMARK  2 active torsions:
REMARK  status: ('A' for Active; 'I' for Inactive)
REMARK    1  A    between atoms: C_3  and  O_11
REMARK    2  A    between atoms: C_5  and  N_8
REMARK                            x       y       z     vdW  Elec       q    Type
REMARK                         _______ _______ _______ _____ _____    ______ ____
ROOT
ATOM      1  O   UNL     1     -32.107 100.102  14.188  0.00  0.00    +0.000 OA
ATOM      2  C   UNL     1     -31.345  99.911  15.412  0.00  0.00    +0.000 C 
ATOM      3  C   UNL     1     -30.724 101.194  15.999  0.00  0.00    +0.000 C 
ATOM      4  C   UNL     1     -33.025 101.137  14.271  0.00  0.00    +0.000 C 
ATOM      5  C   UNL     1     -31.315 102.483  15.644  0.00  0.00    +0.000 C 
ATOM      6  C   UNL     1     -32.403 102.300  14.772  0.00  0.00    +0.000 C 
ATOM      7  C   UNL     1     -30.158  98.998  14.955  0.00  0.00    +0.000 C 
ATOM      8  N   UNL     1     -32.229  99.218  16.377  0.00  0.00    +0.000 N 
ATOM      9  C   UNL     1     -33.596  99.160  16.481  0.00  0.00    +0.000 A 
ATOM     10  C   UNL     1     -34.543  99.872  15.738  0.00  0.00    +0.000 A 
ATOM     11  C   UNL     1     -34.165  98.359  17.481  0.00  0.00    +0.000 A 
ATOM     12  N   UNL     1     -34.260 100.804  14.787  0.00  0.00    +0.000 N 
ATOM     13  C   UNL     1     -35.874  99.692  16.142  0.00  0.00    +0.000 A 
ATOM     14  C   UNL     1     -35.539 101.364  14.596  0.00  0.00    +0.000 A 
ATOM     15  C   UNL     1     -36.538 100.677  15.379  0.00  0.00    +0.000 A 
ATOM     16  C   UNL     1     -35.897 102.427  13.750  0.00  0.00    +0.000 A 
ATOM     17  C   UNL     1     -37.873 101.116  15.277  0.00  0.00    +0.000 A 
ATOM     18  C   UNL     1     -38.208 102.173  14.432  0.00  0.00    +0.000 A 
ATOM     19  C   UNL     1     -37.234 102.817  13.684  0.00  0.00    +0.000 A 
ATOM     20  C   UNL     1     -36.456  98.883  17.137  0.00  0.00    +0.000 A 
ATOM     21  C   UNL     1     -35.492  98.137  17.871  0.00  0.00    +0.000 A 
ATOM     22  C   UNL     1     -37.784  98.632  17.647  0.00  0.00    +0.000 C 
ATOM     23  C   UNL     1     -36.240  97.369  18.902  0.00  0.00    +0.000 C 
ATOM     24  N   UNL     1     -37.524  97.725  18.684  0.00  0.00    +0.000 N 
ATOM     25  H   UNL     1     -38.287  97.358  19.234  0.00  0.00    +0.000 HD
ATOM     26  O   UNL     1     -38.899  99.034  17.346  0.00  0.00    +0.000 OA
ATOM     27  C   UNL     1     -33.033  97.847  18.135  0.00  0.00    +0.000 A 
ATOM     28  C   UNL     1     -31.869  98.384  17.472  0.00  0.00    +0.000 A 
ATOM     29  C   UNL     1     -32.843  96.995  19.243  0.00  0.00    +0.000 A 
ATOM     30  C   UNL     1     -30.586  98.047  17.937  0.00  0.00    +0.000 A 
ATOM     31  C   UNL     1     -30.449  97.198  19.036  0.00  0.00    +0.000 A 
ATOM     32  C   UNL     1     -31.559  96.677  19.680  0.00  0.00    +0.000 A 
ENDROOT
BRANCH   5  33
ATOM     33  N   UNL     1     -30.977 103.714  16.270  0.00  0.00    +0.000 N 
ATOM     34  C   UNL     1     -32.099 104.568  16.590  0.00  0.00    +0.000 C 
ATOM     35  H   UNL     1     -30.157 104.184  15.881  0.00  0.00    +0.000 HD
ENDBRANCH   5  33
BRANCH   3  36
ATOM     36  O   UNL     1     -30.043 101.040  17.187  0.00  0.00    +0.000 OA
ATOM     37  C   UNL     1     -28.670 101.284  17.037  0.00  0.00    +0.000 C 
ENDBRANCH   3  36
TORSDOF 2
ENDMDL
MODEL 7
REMARK VINA RESULT:      -7.1     13.884     15.635
REMARK  Name = Staurosporine.pdbqt.pdb
REMARK  2 active torsions:
REMARK  status: ('A' for Active; 'I' for Inactive)
REMARK    1  A    between atoms: C_3  and  O_11
REMARK    2  A    between atoms: C_5  and  N_8
REMARK                            x       y       z     vdW  Elec       q    Type
REMARK                         _______ _______ _______ _____ _____    ______ ____
ROOT
ATOM      1  O   UNL     1     -39.532 101.601   2.672  0.00  0.00    +0.000 OA
ATOM      2  C   UNL     1     -38.937 102.924   2.766  0.00  0.00    +0.000 C 
ATOM      3  C   UNL     1     -38.982 103.751   1.465  0.00  0.00    +0.000 C 
ATOM      4  C   UNL     1     -40.795 101.607   2.101  0.00  0.00    +0.000 C 
ATOM      5  C   UNL     1     -39.992 103.422   0.462  0.00  0.00    +0.000 C 
ATOM      6  C   UNL     1     -40.778 102.338   0.895  0.00  0.00    +0.000 C 
ATOM      7  C   UNL     1     -37.429 102.618   3.059  0.00  0.00    +0.000 C 
ATOM      8  N   UNL     1     -39.585 103.620   3.901  0.00  0.00    +0.000 N 
ATOM      9  C   UNL     1     -40.809 103.446   4.496  0.00  0.00    +0.000 A 
ATOM     10  C   UNL     1     -41.851 102.609   4.085  0.00  0.00    +0.000 A 
ATOM     11  C   UNL     1     -41.134 104.226   5.614  0.00  0.00    +0.000 A 
ATOM     12  N   UNL     1     -41.845 101.833   2.966  0.00  0.00    +0.000 N 
ATOM     13  C   UNL     1     -43.034 102.722   4.829  0.00  0.00    +0.000 A 
ATOM     14  C   UNL     1     -43.201 101.453   2.916  0.00  0.00    +0.000 A 
ATOM     15  C   UNL     1     -43.930 101.948   4.059  0.00  0.00    +0.000 A 
ATOM     16  C   UNL     1     -43.840 100.667   1.943  0.00  0.00    +0.000 A 
ATOM     17  C   UNL     1     -45.300 101.632   4.155  0.00  0.00    +0.000 A 
ATOM     18  C   UNL     1     -45.916 100.851   3.179  0.00  0.00    +0.000 A 
ATOM     19  C   UNL     1     -45.196 100.380   2.091  0.00  0.00    +0.000 A 
ATOM     20  C   UNL     1     -43.367 103.494   5.960  0.00  0.00    +0.000 A 
ATOM     21  C   UNL     1     -42.295 104.322   6.393  0.00  0.00    +0.000 A 
ATOM     22  C   UNL     1     -44.534 103.704   6.785  0.00  0.00    +0.000 C 
ATOM     23  C   UNL     1     -42.799 105.102   7.556  0.00  0.00    +0.000 C 
ATOM     24  N   UNL     1     -44.073 104.672   7.687  0.00  0.00    +0.000 N 
ATOM     25  H   UNL     1     -44.687 105.021   8.409  0.00  0.00    +0.000 HD
ATOM     26  O   UNL     1     -45.661 103.233   6.797  0.00  0.00    +0.000 OA
ATOM     27  C   UNL     1     -39.994 105.034   5.758  0.00  0.00    +0.000 A 
ATOM     28  C   UNL     1     -39.072 104.672   4.708  0.00  0.00    +0.000 A 
ATOM     29  C   UNL     1     -39.629 106.064   6.650  0.00  0.00    +0.000 A 
ATOM     30  C   UNL     1     -37.841 105.344   4.603  0.00  0.00    +0.000 A 
ATOM     31  C   UNL     1     -37.523 106.354   5.510  0.00  0.00    +0.000 A 
ATOM     32  C   UNL     1     -38.401 106.710   6.521  0.00  0.00    +0.000 A 
ENDROOT
BRANCH   5  33
ATOM     33  N   UNL     1     -40.277 104.225  -0.676  0.00  0.00    +0.000 N 
ATOM     34  C   UNL     1     -41.636 104.712  -0.759  0.00  0.00    +0.000 C 
ATOM     35  H   UNL     1     -39.870 103.891  -1.552  0.00  0.00    +0.000 HD
ENDBRANCH   5  33
BRANCH   3  36
ATOM     36  O   UNL     1     -38.469 105.027   1.549  0.00  0.00    +0.000 OA
ATOM     37  C   UNL     1     -37.336 105.190   0.739  0.00  0.00    +0.000 C 
ENDBRANCH   3  36
TORSDOF 2
ENDMDL
MODEL 8
REMARK VINA RESULT:      -6.9     15.244     17.327
REMARK  Name = Staurosporine.pdbqt.pdb
REMARK  2 active torsions:
REMARK  status: ('A' for Active; 'I' for Inactive)
REMARK    1  A    between atoms: C_3  and  O_11
REMARK    2  A    between atoms: C_5  and  N_8
REMARK                            x       y       z     vdW  Elec       q    Type
REMARK                         _______ _______ _______ _____ _____    ______ ____
ROOT
ATOM      1  O   UNL     1     -23.394 100.771   6.080  0.00  0.00    +0.000 OA
ATOM      2  C   UNL     1     -22.519 101.355   7.084  0.00  0.00    +0.000 C 
ATOM      3  C   UNL     1     -21.016 101.080   6.877  0.00  0.00    +0.000 C 
ATOM      4  C   UNL     1     -22.989 101.035   4.781  0.00  0.00    +0.000 C 
ATOM      5  C   UNL     1     -20.545 100.747   5.535  0.00  0.00    +0.000 C 
ATOM      6  C   UNL     1     -21.620 100.729   4.628  0.00  0.00    +0.000 C 
ATOM      7  C   UNL     1     -22.941 100.614   8.398  0.00  0.00    +0.000 C 
ATOM      8  N   UNL     1     -22.826 102.802   7.149  0.00  0.00    +0.000 N 
ATOM      9  C   UNL     1     -23.371 103.659   6.226  0.00  0.00    +0.000 A 
ATOM     10  C   UNL     1     -23.677 103.395   4.887  0.00  0.00    +0.000 A 
ATOM     11  C   UNL     1     -23.605 104.990   6.596  0.00  0.00    +0.000 A 
ATOM     12  N   UNL     1     -23.440 102.221   4.240  0.00  0.00    +0.000 N 
ATOM     13  C   UNL     1     -24.123 104.501   4.149  0.00  0.00    +0.000 A 
ATOM     14  C   UNL     1     -23.676 102.615   2.908  0.00  0.00    +0.000 A 
ATOM     15  C   UNL     1     -24.130 103.983   2.836  0.00  0.00    +0.000 A 
ATOM     16  C   UNL     1     -23.549 101.839   1.744  0.00  0.00    +0.000 A 
ATOM     17  C   UNL     1     -24.425 104.514   1.564  0.00  0.00    +0.000 A 
ATOM     18  C   UNL     1     -24.292 103.728   0.421  0.00  0.00    +0.000 A 
ATOM     19  C   UNL     1     -23.859 102.414   0.513  0.00  0.00    +0.000 A 
ATOM     20  C   UNL     1     -24.371 105.839   4.514  0.00  0.00    +0.000 A 
ATOM     21  C   UNL     1     -24.087 106.097   5.884  0.00  0.00    +0.000 A 
ATOM     22  C   UNL     1     -24.805 107.048   3.851  0.00  0.00    +0.000 C 
ATOM     23  C   UNL     1     -24.353 107.543   6.112  0.00  0.00    +0.000 C 
ATOM     24  N   UNL     1     -24.753 107.979   4.897  0.00  0.00    +0.000 N 
ATOM     25  H   UNL     1     -25.014 108.940   4.729  0.00  0.00    +0.000 HD
ATOM     26  O   UNL     1     -25.150 107.313   2.709  0.00  0.00    +0.000 OA
ATOM     27  C   UNL     1     -23.131 105.023   7.917  0.00  0.00    +0.000 A 
ATOM     28  C   UNL     1     -22.647 103.701   8.236  0.00  0.00    +0.000 A 
ATOM     29  C   UNL     1     -23.028 106.032   8.897  0.00  0.00    +0.000 A 
ATOM     30  C   UNL     1     -22.094 103.451   9.504  0.00  0.00    +0.000 A 
ATOM     31  C   UNL     1     -22.016 104.481  10.441  0.00  0.00    +0.000 A 
ATOM     32  C   UNL     1     -22.476 105.753  10.145  0.00  0.00    +0.000 A 
ENDROOT
BRANCH   5  33
ATOM     33  N   UNL     1     -19.173 100.675   5.167  0.00  0.00    +0.000 N 
ATOM     34  C   UNL     1     -18.918 100.116   3.858  0.00  0.00    +0.000 C 
ATOM     35  H   UNL     1     -18.542 100.370   5.912  0.00  0.00    +0.000 HD
ENDBRANCH   5  33
BRANCH   3  36
ATOM     36  O   UNL     1     -20.169 101.669   7.791  0.00  0.00    +0.000 OA
ATOM     37  C   UNL     1     -19.522 100.718   8.592  0.00  0.00    +0.000 C 
ENDBRANCH   3  36
TORSDOF 2
ENDMDL
MODEL 9
REMARK VINA RESULT:      -6.8     13.498     17.835
REMARK  Name = Staurosporine.pdbqt.pdb
REMARK  2 active torsions:
REMARK  status: ('A' for Active; 'I' for Inactive)
REMARK    1  A    between atoms: C_3  and  O_11
REMARK    2  A    between atoms: C_5  and  N_8
REMARK                            x       y       z     vdW  Elec       q    Type
REMARK                         _______ _______ _______ _____ _____    ______ ____
ROOT
ATOM      1  O   UNL     1     -36.662 102.974   3.290  0.00  0.00    +0.000 OA
ATOM      2  C   UNL     1     -38.066 103.348   3.338  0.00  0.00    +0.000 C 
ATOM      3  C   UNL     1     -38.461 104.238   4.534  0.00  0.00    +0.000 C 
ATOM      4  C   UNL     1     -35.802 104.049   3.448  0.00  0.00    +0.000 C 
ATOM      5  C   UNL     1     -37.423 105.029   5.191  0.00  0.00    +0.000 C 
ATOM      6  C   UNL     1     -36.176 104.809   4.576  0.00  0.00    +0.000 C 
ATOM      7  C   UNL     1     -38.795 101.976   3.532  0.00  0.00    +0.000 C 
ATOM      8  N   UNL     1     -38.402 103.968   2.036  0.00  0.00    +0.000 N 
ATOM      9  C   UNL     1     -37.621 104.601   1.101  0.00  0.00    +0.000 A 
ATOM     10  C   UNL     1     -36.269 104.942   1.203  0.00  0.00    +0.000 A 
ATOM     11  C   UNL     1     -38.216 105.042  -0.088  0.00  0.00    +0.000 A 
ATOM     12  N   UNL     1     -35.483 104.737   2.295  0.00  0.00    +0.000 N 
ATOM     13  C   UNL     1     -35.761 105.687   0.128  0.00  0.00    +0.000 A 
ATOM     14  C   UNL     1     -34.354 105.502   1.941  0.00  0.00    +0.000 A 
ATOM     15  C   UNL     1     -34.486 106.054   0.614  0.00  0.00    +0.000 A 
ATOM     16  C   UNL     1     -33.193 105.726   2.699  0.00  0.00    +0.000 A 
ATOM     17  C   UNL     1     -33.423 106.832   0.114  0.00  0.00    +0.000 A 
ATOM     18  C   UNL     1     -32.279 107.043   0.881  0.00  0.00    +0.000 A 
ATOM     19  C   UNL     1     -32.169 106.499   2.152  0.00  0.00    +0.000 A 
ATOM     20  C   UNL     1     -36.347 106.126  -1.075  0.00  0.00    +0.000 A 
ATOM     21  C   UNL     1     -37.715 105.752  -1.188  0.00  0.00    +0.000 A 
ATOM     22  C   UNL     1     -35.938 106.899  -2.225  0.00  0.00    +0.000 C 
ATOM     23  C   UNL     1     -38.207 106.312  -2.475  0.00  0.00    +0.000 C 
ATOM     24  N   UNL     1     -37.121 106.940  -2.975  0.00  0.00    +0.000 N 
ATOM     25  H   UNL     1     -37.138 107.424  -3.862  0.00  0.00    +0.000 HD
ATOM     26  O   UNL     1     -34.888 107.425  -2.564  0.00  0.00    +0.000 OA
ATOM     27  C   UNL     1     -39.560 104.680   0.096  0.00  0.00    +0.000 A 
ATOM     28  C   UNL     1     -39.665 104.048   1.389  0.00  0.00    +0.000 A 
ATOM     29  C   UNL     1     -40.731 104.832  -0.676  0.00  0.00    +0.000 A 
ATOM     30  C   UNL     1     -40.917 103.598   1.843  0.00  0.00    +0.000 A 
ATOM     31  C   UNL     1     -42.047 103.768   1.042  0.00  0.00    +0.000 A 
ATOM     32  C   UNL     1     -41.957 104.374  -0.200  0.00  0.00    +0.000 A 
ENDROOT
BRANCH   5  33
ATOM     33  N   UNL     1     -37.681 106.038   6.159  0.00  0.00    +0.000 N 
ATOM     34  C   UNL     1     -36.529 106.818   6.554  0.00  0.00    +0.000 C 
ATOM     35  H   UNL     1     -38.310 105.759   6.915  0.00  0.00    +0.000 HD
ENDBRANCH   5  33
BRANCH   3  36
ATOM     36  O   UNL     1     -39.777 104.646   4.567  0.00  0.00    +0.000 OA
ATOM     37  C   UNL     1     -40.463 104.109   5.666  0.00  0.00    +0.000 C 
ENDBRANCH   3  36
TORSDOF 2
ENDMDL
