MODEL 1
REMARK VINA RESULT:      -6.3      0.000      0.000
REMARK  Name = Testosterone.pdbqt.pdb
REMARK  1 active torsions:
REMARK  status: ('A' for Active; 'I' for Inactive)
REMARK    1  A    between atoms: C_9  and  O_21
REMARK                            x       y       z     vdW  Elec       q    Type
REMARK                         _______ _______ _______ _____ _____    ______ ____
ROOT
ATOM      1  O   UNL     1     -28.558  99.613  20.120  0.00  0.00    +0.000 OA
ATOM      2  C   UNL     1     -33.817  99.934  14.566  0.00  0.00    +0.000 C 
ATOM      3  C   UNL     1     -34.443 101.323  14.069  0.00  0.00    +0.000 C 
ATOM      4  C   UNL     1     -32.464  99.863  15.153  0.00  0.00    +0.000 C 
ATOM      5  C   UNL     1     -31.650 101.027  15.645  0.00  0.00    +0.000 C 
ATOM      6  C   UNL     1     -30.201 100.907  16.168  0.00  0.00    +0.000 C 
ATOM      7  C   UNL     1     -33.667 102.371  14.736  0.00  0.00    +0.000 C 
ATOM      8  C   UNL     1     -32.346 102.253  15.454  0.00  0.00    +0.000 C 
ATOM      9  C   UNL     1     -35.905 101.265  14.574  0.00  0.00    +0.000 C 
ATOM     10  C   UNL     1     -34.888  99.194  15.165  0.00  0.00    +0.000 C 
ATOM     11  C   UNL     1     -31.861  98.617  15.446  0.00  0.00    +0.000 C 
ATOM     12  C   UNL     1     -36.147 100.023  15.221  0.00  0.00    +0.000 C 
ATOM     13  C   UNL     1     -29.751  99.390  16.655  0.00  0.00    +0.000 C 
ATOM     14  C   UNL     1     -30.571  98.347  16.159  0.00  0.00    +0.000 C 
ATOM     15  C   UNL     1     -34.398 101.411  12.523  0.00  0.00    +0.000 C 
ATOM     16  C   UNL     1     -30.029 101.722  17.417  0.00  0.00    +0.000 C 
ATOM     17  C   UNL     1     -29.205 101.341  15.058  0.00  0.00    +0.000 C 
ATOM     18  C   UNL     1     -29.458 101.390  18.814  0.00  0.00    +0.000 C 
ATOM     19  C   UNL     1     -29.252  99.259  17.867  0.00  0.00    +0.000 C 
ATOM     20  C   UNL     1     -29.010 100.036  19.074  0.00  0.00    +0.000 C 
ENDROOT
BRANCH   9  21
ATOM     21  O   UNL     1     -36.934 101.927  13.929  0.00  0.00    +0.000 OA
ATOM     22  H   UNL     1     -36.820 102.897  13.980  0.00  0.00    +0.000 HD
ENDBRANCH   9  21
TORSDOF 1
ENDMDL
MODEL 2
REMARK VINA RESULT:      -5.9     16.779     19.080
REMARK  Name = Testosterone.pdbqt.pdb
REMARK  1 active torsions:
REMARK  status: ('A' for Active; 'I' for Inactive)
REMARK    1  A    between atoms: C_9  and  O_21
REMARK                            x       y       z     vdW  Elec       q    Type
REMARK                         _______ _______ _______ _____ _____    ______ ____
ROOT
ATOM      1  O   UNL     1     -32.866  78.424  11.547  0.00  0.00    +0.000 OA
ATOM      2  C   UNL     1     -28.565  84.741  11.087  0.00  0.00    +0.000 C 
ATOM      3  C   UNL     1     -27.972  85.460  12.390  0.00  0.00    +0.000 C 
ATOM      4  C   UNL     1     -28.860  83.294  11.070  0.00  0.00    +0.000 C 
ATOM      5  C   UNL     1     -28.957  82.396  12.272  0.00  0.00    +0.000 C 
ATOM      6  C   UNL     1     -29.179  80.870  12.193  0.00  0.00    +0.000 C 
ATOM      7  C   UNL     1     -28.265  84.563  13.509  0.00  0.00    +0.000 C 
ATOM      8  C   UNL     1     -28.701  83.119  13.470  0.00  0.00    +0.000 C 
ATOM      9  C   UNL     1     -28.773  86.782  12.472  0.00  0.00    +0.000 C 
ATOM     10  C   UNL     1     -29.495  85.659  10.500  0.00  0.00    +0.000 C 
ATOM     11  C   UNL     1     -29.236  82.640   9.874  0.00  0.00    +0.000 C 
ATOM     12  C   UNL     1     -29.665  86.880  11.370  0.00  0.00    +0.000 C 
ATOM     13  C   UNL     1     -29.822  80.323  10.769  0.00  0.00    +0.000 C 
ATOM     14  C   UNL     1     -29.700  81.228   9.685  0.00  0.00    +0.000 C 
ATOM     15  C   UNL     1     -26.460  85.744  12.206  0.00  0.00    +0.000 C 
ATOM     16  C   UNL     1     -30.199  80.438  13.206  0.00  0.00    +0.000 C 
ATOM     17  C   UNL     1     -27.826  80.133  12.392  0.00  0.00    +0.000 C 
ATOM     18  C   UNL     1     -31.483  79.584  13.101  0.00  0.00    +0.000 C 
ATOM     19  C   UNL     1     -30.906  79.579  10.832  0.00  0.00    +0.000 C 
ATOM     20  C   UNL     1     -31.879  79.089  11.798  0.00  0.00    +0.000 C 
ENDROOT
BRANCH   9  21
ATOM     21  O   UNL     1     -28.250  87.925  13.048  0.00  0.00    +0.000 OA
ATOM     22  H   UNL     1     -28.511  88.001  13.987  0.00  0.00    +0.000 HD
ENDBRANCH   9  21
TORSDOF 1
ENDMDL
MODEL 3
REMARK VINA RESULT:      -5.8     14.178     16.990
REMARK  Name = Testosterone.pdbqt.pdb
REMARK  1 active torsions:
REMARK  status: ('A' for Active; 'I' for Inactive)
REMARK    1  A    between atoms: C_9  and  O_21
REMARK                            x       y       z     vdW  Elec       q    Type
REMARK                         _______ _______ _______ _____ _____    ______ ____
ROOT
ATOM      1  O   UNL     1     -46.666 101.490   2.734  0.00  0.00    +0.000 OA
ATOM      2  C   UNL     1     -39.187 102.894   1.894  0.00  0.00    +0.000 C 
ATOM      3  C   UNL     1     -38.309 103.544   3.066  0.00  0.00    +0.000 C 
ATOM      4  C   UNL     1     -40.395 102.096   2.186  0.00  0.00    +0.000 C 
ATOM      5  C   UNL     1     -41.126 102.044   3.499  0.00  0.00    +0.000 C 
ATOM      6  C   UNL     1     -42.334 101.123   3.778  0.00  0.00    +0.000 C 
ATOM      7  C   UNL     1     -39.179 103.580   4.244  0.00  0.00    +0.000 C 
ATOM      8  C   UNL     1     -40.487 102.862   4.471  0.00  0.00    +0.000 C 
ATOM      9  C   UNL     1     -37.984 104.961   2.535  0.00  0.00    +0.000 C 
ATOM     10  C   UNL     1     -39.210 103.846   0.824  0.00  0.00    +0.000 C 
ATOM     11  C   UNL     1     -41.075 101.400   1.159  0.00  0.00    +0.000 C 
ATOM     12  C   UNL     1     -38.525 105.127   1.230  0.00  0.00    +0.000 C 
ATOM     13  C   UNL     1     -43.125 100.570   2.432  0.00  0.00    +0.000 C 
ATOM     14  C   UNL     1     -42.376 100.660   1.233  0.00  0.00    +0.000 C 
ATOM     15  C   UNL     1     -37.011 102.727   3.282  0.00  0.00    +0.000 C 
ATOM     16  C   UNL     1     -43.407 101.876   4.509  0.00  0.00    +0.000 C 
ATOM     17  C   UNL     1     -41.867  99.873   4.574  0.00  0.00    +0.000 C 
ATOM     18  C   UNL     1     -44.922 102.052   4.255  0.00  0.00    +0.000 C 
ATOM     19  C   UNL     1     -44.426 100.765   2.364  0.00  0.00    +0.000 C 
ATOM     20  C   UNL     1     -45.503 101.430   3.082  0.00  0.00    +0.000 C 
ENDROOT
BRANCH   9  21
ATOM     21  O   UNL     1     -36.840 105.642   2.906  0.00  0.00    +0.000 OA
ATOM     22  H   UNL     1     -36.397 105.209   3.662  0.00  0.00    +0.000 HD
ENDBRANCH   9  21
TORSDOF 1
ENDMDL
MODEL 4
REMARK VINA RESULT:      -5.8     19.846     21.625
REMARK  Name = Testosterone.pdbqt.pdb
REMARK  1 active torsions:
REMARK  status: ('A' for Active; 'I' for Inactive)
REMARK    1  A    between atoms: C_9  and  O_21
REMARK                            x       y       z     vdW  Elec       q    Type
REMARK                         _______ _______ _______ _____ _____    ______ ____
ROOT
ATOM      1  O   UNL     1     -21.927 102.588   2.139  0.00  0.00    +0.000 OA
ATOM      2  C   UNL     1     -22.608 102.663  -5.486  0.00  0.00    +0.000 C 
ATOM      3  C   UNL     1     -24.036 102.621  -6.211  0.00  0.00    +0.000 C 
ATOM      4  C   UNL     1     -22.445 103.227  -4.131  0.00  0.00    +0.000 C 
ATOM      5  C   UNL     1     -23.552 103.526  -3.158  0.00  0.00    +0.000 C 
ATOM      6  C   UNL     1     -23.335 104.201  -1.786  0.00  0.00    +0.000 C 
ATOM      7  C   UNL     1     -25.029 102.766  -5.145  0.00  0.00    +0.000 C 
ATOM      8  C   UNL     1     -24.822 103.214  -3.718  0.00  0.00    +0.000 C 
ATOM      9  C   UNL     1     -24.074 101.216  -6.859  0.00  0.00    +0.000 C 
ATOM     10  C   UNL     1     -21.939 101.443  -5.829  0.00  0.00    +0.000 C 
ATOM     11  C   UNL     1     -21.162 103.400  -3.562  0.00  0.00    +0.000 C 
ATOM     12  C   UNL     1     -22.849 100.536  -6.619  0.00  0.00    +0.000 C 
ATOM     13  C   UNL     1     -21.791 104.118  -1.195  0.00  0.00    +0.000 C 
ATOM     14  C   UNL     1     -20.805 103.823  -2.169  0.00  0.00    +0.000 C 
ATOM     15  C   UNL     1     -24.124 103.727  -7.291  0.00  0.00    +0.000 C 
ATOM     16  C   UNL     1     -24.135 103.499  -0.727  0.00  0.00    +0.000 C 
ATOM     17  C   UNL     1     -23.704 105.707  -1.878  0.00  0.00    +0.000 C 
ATOM     18  C   UNL     1     -23.762 102.926   0.660  0.00  0.00    +0.000 C 
ATOM     19  C   UNL     1     -21.624 103.632   0.018  0.00  0.00    +0.000 C 
ATOM     20  C   UNL     1     -22.381 103.006   1.092  0.00  0.00    +0.000 C 
ENDROOT
BRANCH   9  21
ATOM     21  O   UNL     1     -24.804 100.953  -8.004  0.00  0.00    +0.000 OA
ATOM     22  H   UNL     1     -24.530 101.532  -8.741  0.00  0.00    +0.000 HD
ENDBRANCH   9  21
TORSDOF 1
ENDMDL
MODEL 5
REMARK VINA RESULT:      -5.7     12.283     15.124
REMARK  Name = Testosterone.pdbqt.pdb
REMARK  1 active torsions:
REMARK  status: ('A' for Active; 'I' for Inactive)
REMARK    1  A    between atoms: C_9  and  O_21
REMARK                            x       y       z     vdW  Elec       q    Type
REMARK                         _______ _______ _______ _____ _____    ______ ____
ROOT
ATOM      1  O   UNL     1     -40.968 102.223   0.508  0.00  0.00    +0.000 OA
ATOM      2  C   UNL     1     -35.218 105.557   4.305  0.00  0.00    +0.000 C 
ATOM      3  C   UNL     1     -35.421 106.914   5.134  0.00  0.00    +0.000 C 
ATOM      4  C   UNL     1     -36.331 104.614   4.082  0.00  0.00    +0.000 C 
ATOM      5  C   UNL     1     -37.792 104.903   4.291  0.00  0.00    +0.000 C 
ATOM      6  C   UNL     1     -38.911 103.851   4.129  0.00  0.00    +0.000 C 
ATOM      7  C   UNL     1     -36.863 107.168   5.134  0.00  0.00    +0.000 C 
ATOM      8  C   UNL     1     -37.986 106.229   4.767  0.00  0.00    +0.000 C 
ATOM      9  C   UNL     1     -34.641 107.965   4.309  0.00  0.00    +0.000 C 
ATOM     10  C   UNL     1     -34.326 105.867   3.227  0.00  0.00    +0.000 C 
ATOM     11  C   UNL     1     -36.109 103.351   3.484  0.00  0.00    +0.000 C 
ATOM     12  C   UNL     1     -34.016 107.343   3.194  0.00  0.00    +0.000 C 
ATOM     13  C   UNL     1     -38.509 102.528   3.217  0.00  0.00    +0.000 C 
ATOM     14  C   UNL     1     -37.116 102.328   3.057  0.00  0.00    +0.000 C 
ATOM     15  C   UNL     1     -34.820 106.772   6.554  0.00  0.00    +0.000 C 
ATOM     16  C   UNL     1     -40.070 104.435   3.375  0.00  0.00    +0.000 C 
ATOM     17  C   UNL     1     -39.342 103.324   5.525  0.00  0.00    +0.000 C 
ATOM     18  C   UNL     1     -40.866 103.954   2.140  0.00  0.00    +0.000 C 
ATOM     19  C   UNL     1     -39.297 102.218   2.209  0.00  0.00    +0.000 C 
ATOM     20  C   UNL     1     -40.461 102.722   1.494  0.00  0.00    +0.000 C 
ENDROOT
BRANCH   9  21
ATOM     21  O   UNL     1     -34.073 109.084   4.890  0.00  0.00    +0.000 OA
ATOM     22  H   UNL     1     -33.195 108.881   5.269  0.00  0.00    +0.000 HD
ENDBRANCH   9  21
TORSDOF 1
ENDMDL
MODEL 6
REMARK VINA RESULT:      -5.7     12.554     14.331
REMARK  Name = Testosterone.pdbqt.pdb
REMARK  1 active torsions:
REMARK  status: ('A' for Active; 'I' for Inactive)
REMARK    1  A    between atoms: C_9  and  O_21
REMARK                            x       y       z     vdW  Elec       q    Type
REMARK                         _______ _______ _______ _____ _____    ______ ____
ROOT
ATOM      1  O   UNL     1     -18.508 105.102   9.067  0.00  0.00    +0.000 OA
ATOM      2  C   UNL     1     -24.113 102.523   4.535  0.00  0.00    +0.000 C 
ATOM      3  C   UNL     1     -24.138 101.016   3.990  0.00  0.00    +0.000 C 
ATOM      4  C   UNL     1     -23.446 102.874   5.804  0.00  0.00    +0.000 C 
ATOM      5  C   UNL     1     -22.478 102.010   6.564  0.00  0.00    +0.000 C 
ATOM      6  C   UNL     1     -21.877 102.388   7.936  0.00  0.00    +0.000 C 
ATOM      7  C   UNL     1     -23.056 100.321   4.689  0.00  0.00    +0.000 C 
ATOM      8  C   UNL     1     -22.287 100.761   5.911  0.00  0.00    +0.000 C 
ATOM      9  C   UNL     1     -23.854 101.171   2.476  0.00  0.00    +0.000 C 
ATOM     10  C   UNL     1     -23.946 103.369   3.390  0.00  0.00    +0.000 C 
ATOM     11  C   UNL     1     -23.560 104.172   6.353  0.00  0.00    +0.000 C 
ATOM     12  C   UNL     1     -23.733 102.548   2.143  0.00  0.00    +0.000 C 
ATOM     13  C   UNL     1     -21.927 104.001   8.307  0.00  0.00    +0.000 C 
ATOM     14  C   UNL     1     -22.856 104.750   7.542  0.00  0.00    +0.000 C 
ATOM     15  C   UNL     1     -25.532 100.382   4.225  0.00  0.00    +0.000 C 
ATOM     16  C   UNL     1     -20.408 102.086   7.963  0.00  0.00    +0.000 C 
ATOM     17  C   UNL     1     -22.638 101.640   9.065  0.00  0.00    +0.000 C 
ATOM     18  C   UNL     1     -19.172 102.929   8.353  0.00  0.00    +0.000 C 
ATOM     19  C   UNL     1     -20.798 104.585   8.651  0.00  0.00    +0.000 C 
ATOM     20  C   UNL     1     -19.373 104.308   8.751  0.00  0.00    +0.000 C 
ENDROOT
BRANCH   9  21
ATOM     21  O   UNL     1     -24.324 100.267   1.542  0.00  0.00    +0.000 OA
ATOM     22  H   UNL     1     -23.678  99.551   1.383  0.00  0.00    +0.000 HD
ENDBRANCH   9  21
TORSDOF 1
ENDMDL
MODEL 7
REMARK VINA RESULT:      -5.3     13.556     17.171
REMARK  Name = Testosterone.pdbqt.pdb
REMARK  1 active torsions:
REMARK  status: ('A' for Active; 'I' for Inactive)
REMARK    1  A    between atoms: C_9  and  O_21
REMARK                            x       y       z     vdW  Elec       q    Type
REMARK                         _______ _______ _______ _____ _____    ______ ____
ROOT
ATOM      1  O   UNL     1     -48.129 102.706   6.422  0.00  0.00    +0.000 OA
ATOM      2  C   UNL     1     -41.013 103.466   3.703  0.00  0.00    +0.000 C 
ATOM      3  C   UNL     1     -39.976 102.244   3.685  0.00  0.00    +0.000 C 
ATOM      4  C   UNL     1     -42.472 103.242   3.647  0.00  0.00    +0.000 C 
ATOM      5  C   UNL     1     -43.176 101.934   3.882  0.00  0.00    +0.000 C 
ATOM      6  C   UNL     1     -44.700 101.734   3.723  0.00  0.00    +0.000 C 
ATOM      7  C   UNL     1     -40.746 101.062   4.078  0.00  0.00    +0.000 C 
ATOM      8  C   UNL     1     -42.244 100.893   4.149  0.00  0.00    +0.000 C 
ATOM      9  C   UNL     1     -38.928 102.642   4.752  0.00  0.00    +0.000 C 
ATOM     10  C   UNL     1     -40.481 104.441   4.607  0.00  0.00    +0.000 C 
ATOM     11  C   UNL     1     -43.371 104.324   3.509  0.00  0.00    +0.000 C 
ATOM     12  C   UNL     1     -39.240 103.920   5.289  0.00  0.00    +0.000 C 
ATOM     13  C   UNL     1     -45.603 103.120   3.790  0.00  0.00    +0.000 C 
ATOM     14  C   UNL     1     -44.868 104.311   3.570  0.00  0.00    +0.000 C 
ATOM     15  C   UNL     1     -39.319 102.117   2.289  0.00  0.00    +0.000 C 
ATOM     16  C   UNL     1     -45.241 100.927   4.866  0.00  0.00    +0.000 C 
ATOM     17  C   UNL     1     -45.000 101.064   2.354  0.00  0.00    +0.000 C 
ATOM     18  C   UNL     1     -46.421 101.152   5.840  0.00  0.00    +0.000 C 
ATOM     19  C   UNL     1     -46.599 103.160   4.651  0.00  0.00    +0.000 C 
ATOM     20  C   UNL     1     -47.190 102.374   5.724  0.00  0.00    +0.000 C 
ENDROOT
BRANCH   9  21
ATOM     21  O   UNL     1     -37.613 102.216   4.687  0.00  0.00    +0.000 OA
ATOM     22  H   UNL     1     -37.520 101.439   4.102  0.00  0.00    +0.000 HD
ENDBRANCH   9  21
TORSDOF 1
ENDMDL
MODEL 8
REMARK VINA RESULT:      -5.3     15.544     17.671
REMARK  Name = Testosterone.pdbqt.pdb
REMARK  1 active torsions:
REMARK  status: ('A' for Active; 'I' for Inactive)
REMARK    1  A    between atoms: C_9  and  O_21
REMARK                            x       y       z     vdW  Elec       q    Type
REMARK                         _______ _______ _______ _____ _____    ______ ____
ROOT
ATOM      1  O   UNL     1     -38.383 104.390   1.700  0.00  0.00    +0.000 OA
ATOM      2  C   UNL     1     -44.914 101.227   4.139  0.00  0.00    +0.000 C 
ATOM      3  C   UNL     1     -46.278 101.349   3.307  0.00  0.00    +0.000 C 
ATOM      4  C   UNL     1     -43.597 101.282   3.474  0.00  0.00    +0.000 C 
ATOM      5  C   UNL     1     -43.332 101.754   2.071  0.00  0.00    +0.000 C 
ATOM      6  C   UNL     1     -41.945 101.706   1.393  0.00  0.00    +0.000 C 
ATOM      7  C   UNL     1     -45.913 101.961   2.029  0.00  0.00    +0.000 C 
ATOM      8  C   UNL     1     -44.540 102.134   1.424  0.00  0.00    +0.000 C 
ATOM      9  C   UNL     1     -47.152 102.286   4.176  0.00  0.00    +0.000 C 
ATOM     10  C   UNL     1     -45.118 101.940   5.365  0.00  0.00    +0.000 C 
ATOM     11  C   UNL     1     -42.406 101.021   4.192  0.00  0.00    +0.000 C 
ATOM     12  C   UNL     1     -46.459 102.631   5.368  0.00  0.00    +0.000 C 
ATOM     13  C   UNL     1     -40.657 101.601   2.427  0.00  0.00    +0.000 C 
ATOM     14  C   UNL     1     -40.987 101.160   3.732  0.00  0.00    +0.000 C 
ATOM     15  C   UNL     1     -46.943  99.958   3.159  0.00  0.00    +0.000 C 
ATOM     16  C   UNL     1     -41.679 102.988   0.659  0.00  0.00    +0.000 C 
ATOM     17  C   UNL     1     -41.867 100.476   0.446  0.00  0.00    +0.000 C 
ATOM     18  C   UNL     1     -40.488 103.973   0.669  0.00  0.00    +0.000 C 
ATOM     19  C   UNL     1     -39.698 102.495   2.303  0.00  0.00    +0.000 C 
ATOM     20  C   UNL     1     -39.378 103.706   1.561  0.00  0.00    +0.000 C 
ENDROOT
BRANCH   9  21
ATOM     21  O   UNL     1     -48.534 102.222   4.168  0.00  0.00    +0.000 OA
ATOM     22  H   UNL     1     -48.931 103.114   4.142  0.00  0.00    +0.000 HD
ENDBRANCH   9  21
TORSDOF 1
ENDMDL
MODEL 9
REMARK VINA RESULT:      -5.1     13.619     16.301
REMARK  Name = Testosterone.pdbqt.pdb
REMARK  1 active torsions:
REMARK  status: ('A' for Active; 'I' for Inactive)
REMARK    1  A    between atoms: C_9  and  O_21
REMARK                            x       y       z     vdW  Elec       q    Type
REMARK                         _______ _______ _______ _____ _____    ______ ____
ROOT
ATOM      1  O   UNL     1     -41.790 100.302  -0.272  0.00  0.00    +0.000 OA
ATOM      2  C   UNL     1     -37.176 104.564   4.105  0.00  0.00    +0.000 C 
ATOM      3  C   UNL     1     -36.992 106.137   3.863  0.00  0.00    +0.000 C 
ATOM      4  C   UNL     1     -38.418 103.863   3.720  0.00  0.00    +0.000 C 
ATOM      5  C   UNL     1     -39.492 104.398   2.813  0.00  0.00    +0.000 C 
ATOM      6  C   UNL     1     -40.815 103.659   2.515  0.00  0.00    +0.000 C 
ATOM      7  C   UNL     1     -37.986 106.505   2.853  0.00  0.00    +0.000 C 
ATOM      8  C   UNL     1     -39.177 105.713   2.370  0.00  0.00    +0.000 C 
ATOM      9  C   UNL     1     -35.544 106.257   3.331  0.00  0.00    +0.000 C 
ATOM     10  C   UNL     1     -35.907 103.957   3.830  0.00  0.00    +0.000 C 
ATOM     11  C   UNL     1     -38.631 102.511   4.074  0.00  0.00    +0.000 C 
ATOM     12  C   UNL     1     -34.927 104.977   3.307  0.00  0.00    +0.000 C 
ATOM     13  C   UNL     1     -40.796 102.030   2.810  0.00  0.00    +0.000 C 
ATOM     14  C   UNL     1     -39.749 101.601   3.664  0.00  0.00    +0.000 C 
ATOM     15  C   UNL     1     -37.153 106.908   5.197  0.00  0.00    +0.000 C 
ATOM     16  C   UNL     1     -41.131 103.728   1.049  0.00  0.00    +0.000 C 
ATOM     17  C   UNL     1     -41.958 104.262   3.377  0.00  0.00    +0.000 C 
ATOM     18  C   UNL     1     -41.500 102.649   0.005  0.00  0.00    +0.000 C 
ATOM     19  C   UNL     1     -41.163 101.227   1.834  0.00  0.00    +0.000 C 
ATOM     20  C   UNL     1     -41.538 101.264   0.428  0.00  0.00    +0.000 C 
ENDROOT
BRANCH   9  21
ATOM     21  O   UNL     1     -34.781 107.395   3.522  0.00  0.00    +0.000 OA
ATOM     22  H   UNL     1     -34.200 107.306   4.303  0.00  0.00    +0.000 HD
ENDBRANCH   9  21
TORSDOF 1
ENDMDL
