MODEL 1
REMARK VINA RESULT:      -2.7      0.000      0.000
REMARK  Name = Tetrachloroethylene.pdbqt.pdb
REMARK  0 active torsions:
REMARK  status: ('A' for Active; 'I' for Inactive)
REMARK                            x       y       z     vdW  Elec       q    Type
REMARK                         _______ _______ _______ _____ _____    ______ ____
ROOT
ATOM      1 CL   UNL     1     -37.413 100.485  12.602  0.00  0.00    +0.000 Cl
ATOM      2 CL   UNL     1     -34.593 101.229  12.342  0.00  0.00    +0.000 Cl
ATOM      3 CL   UNL     1     -33.874  99.394  14.885  0.00  0.00    +0.000 Cl
ATOM      4 CL   UNL     1     -36.693  98.650  15.146  0.00  0.00    +0.000 Cl
ATOM      5  C   UNL     1     -35.794 100.323  13.213  0.00  0.00    +0.000 C 
ATOM      6  C   UNL     1     -35.493  99.556  14.275  0.00  0.00    +0.000 C 
ENDROOT
TORSDOF 0
ENDMDL
MODEL 2
REMARK VINA RESULT:      -2.7      0.055      2.390
REMARK  Name = Tetrachloroethylene.pdbqt.pdb
REMARK  0 active torsions:
REMARK  status: ('A' for Active; 'I' for Inactive)
REMARK                            x       y       z     vdW  Elec       q    Type
REMARK                         _______ _______ _______ _____ _____    ______ ____
ROOT
ATOM      1 CL   UNL     1     -34.580 101.237  12.357  0.00  0.00    +0.000 Cl
ATOM      2 CL   UNL     1     -37.387 100.422  12.533  0.00  0.00    +0.000 Cl
ATOM      3 CL   UNL     1     -36.705  98.631  15.118  0.00  0.00    +0.000 Cl
ATOM      4 CL   UNL     1     -33.899  99.446  14.943  0.00  0.00    +0.000 Cl
ATOM      5  C   UNL     1     -35.785 100.308  13.198  0.00  0.00    +0.000 C 
ATOM      6  C   UNL     1     -35.501  99.560  14.277  0.00  0.00    +0.000 C 
ENDROOT
TORSDOF 0
ENDMDL
MODEL 3
REMARK VINA RESULT:      -2.6      1.363      3.701
REMARK  Name = Tetrachloroethylene.pdbqt.pdb
REMARK  0 active torsions:
REMARK  status: ('A' for Active; 'I' for Inactive)
REMARK                            x       y       z     vdW  Elec       q    Type
REMARK                         _______ _______ _______ _____ _____    ______ ____
ROOT
ATOM      1 CL   UNL     1     -34.293  99.267  14.738  0.00  0.00    +0.000 Cl
ATOM      2 CL   UNL     1     -36.586  98.700  16.469  0.00  0.00    +0.000 Cl
ATOM      3 CL   UNL     1     -38.587  99.406  14.050  0.00  0.00    +0.000 Cl
ATOM      4 CL   UNL     1     -36.295  99.974  12.319  0.00  0.00    +0.000 Cl
ATOM      5  C   UNL     1     -36.022  99.189  14.899  0.00  0.00    +0.000 C 
ATOM      6  C   UNL     1     -36.858  99.484  13.889  0.00  0.00    +0.000 C 
ENDROOT
TORSDOF 0
ENDMDL
MODEL 4
REMARK VINA RESULT:      -2.6     14.355     15.671
REMARK  Name = Tetrachloroethylene.pdbqt.pdb
REMARK  0 active torsions:
REMARK  status: ('A' for Active; 'I' for Inactive)
REMARK                            x       y       z     vdW  Elec       q    Type
REMARK                         _______ _______ _______ _____ _____    ______ ____
ROOT
ATOM      1 CL   UNL     1     -21.631 101.443   4.166  0.00  0.00    +0.000 Cl
ATOM      2 CL   UNL     1     -23.525 100.837   6.315  0.00  0.00    +0.000 Cl
ATOM      3 CL   UNL     1     -25.859 100.417   4.140  0.00  0.00    +0.000 Cl
ATOM      4 CL   UNL     1     -23.966 101.023   1.991  0.00  0.00    +0.000 Cl
ATOM      5  C   UNL     1     -23.258 101.017   4.607  0.00  0.00    +0.000 C 
ATOM      6  C   UNL     1     -24.233 100.842   3.699  0.00  0.00    +0.000 C 
ENDROOT
TORSDOF 0
ENDMDL
MODEL 5
REMARK VINA RESULT:      -2.6      0.593      2.550
REMARK  Name = Tetrachloroethylene.pdbqt.pdb
REMARK  0 active torsions:
REMARK  status: ('A' for Active; 'I' for Inactive)
REMARK                            x       y       z     vdW  Elec       q    Type
REMARK                         _______ _______ _______ _____ _____    ______ ____
ROOT
ATOM      1 CL   UNL     1     -34.451 101.350  12.486  0.00  0.00    +0.000 Cl
ATOM      2 CL   UNL     1     -33.793  99.852  14.914  0.00  0.00    +0.000 Cl
ATOM      3 CL   UNL     1     -36.794  98.696  15.015  0.00  0.00    +0.000 Cl
ATOM      4 CL   UNL     1     -37.453 100.194  12.587  0.00  0.00    +0.000 Cl
ATOM      5  C   UNL     1     -34.996 100.264  13.730  0.00  0.00    +0.000 C 
ATOM      6  C   UNL     1     -36.250  99.782  13.772  0.00  0.00    +0.000 C 
ENDROOT
TORSDOF 0
ENDMDL
MODEL 6
REMARK VINA RESULT:      -2.5      1.320      2.747
REMARK  Name = Tetrachloroethylene.pdbqt.pdb
REMARK  0 active torsions:
REMARK  status: ('A' for Active; 'I' for Inactive)
REMARK                            x       y       z     vdW  Elec       q    Type
REMARK                         _______ _______ _______ _____ _____    ______ ____
ROOT
ATOM      1 CL   UNL     1     -34.084  99.402  14.680  0.00  0.00    +0.000 Cl
ATOM      2 CL   UNL     1     -35.886 100.327  12.565  0.00  0.00    +0.000 Cl
ATOM      3 CL   UNL     1     -38.416  99.323  14.281  0.00  0.00    +0.000 Cl
ATOM      4 CL   UNL     1     -36.614  98.398  16.396  0.00  0.00    +0.000 Cl
ATOM      5  C   UNL     1     -35.721  99.572  14.122  0.00  0.00    +0.000 C 
ATOM      6  C   UNL     1     -36.778  99.153  14.839  0.00  0.00    +0.000 C 
ENDROOT
TORSDOF 0
ENDMDL
MODEL 7
REMARK VINA RESULT:      -2.5      0.664      2.547
REMARK  Name = Tetrachloroethylene.pdbqt.pdb
REMARK  0 active torsions:
REMARK  status: ('A' for Active; 'I' for Inactive)
REMARK                            x       y       z     vdW  Elec       q    Type
REMARK                         _______ _______ _______ _____ _____    ______ ____
ROOT
ATOM      1 CL   UNL     1     -36.663  98.683  15.132  0.00  0.00    +0.000 Cl
ATOM      2 CL   UNL     1     -37.113 100.059  12.587  0.00  0.00    +0.000 Cl
ATOM      3 CL   UNL     1     -34.151 101.309  12.740  0.00  0.00    +0.000 Cl
ATOM      4 CL   UNL     1     -33.701  99.932  15.284  0.00  0.00    +0.000 Cl
ATOM      5  C   UNL     1     -36.025  99.735  13.904  0.00  0.00    +0.000 C 
ATOM      6  C   UNL     1     -34.789 100.257  13.968  0.00  0.00    +0.000 C 
ENDROOT
TORSDOF 0
ENDMDL
MODEL 8
REMARK VINA RESULT:      -2.5      0.924      2.606
REMARK  Name = Tetrachloroethylene.pdbqt.pdb
REMARK  0 active torsions:
REMARK  status: ('A' for Active; 'I' for Inactive)
REMARK                            x       y       z     vdW  Elec       q    Type
REMARK                         _______ _______ _______ _____ _____    ______ ____
ROOT
ATOM      1 CL   UNL     1     -33.961  99.909  15.738  0.00  0.00    +0.000 Cl
ATOM      2 CL   UNL     1     -33.679 101.168  13.109  0.00  0.00    +0.000 Cl
ATOM      3 CL   UNL     1     -36.553 100.007  12.245  0.00  0.00    +0.000 Cl
ATOM      4 CL   UNL     1     -36.835  98.748  14.874  0.00  0.00    +0.000 Cl
ATOM      5  C   UNL     1     -34.657 100.201  14.172  0.00  0.00    +0.000 C 
ATOM      6  C   UNL     1     -35.857  99.715  13.811  0.00  0.00    +0.000 C 
ENDROOT
TORSDOF 0
ENDMDL
MODEL 9
REMARK VINA RESULT:      -2.5     12.552     13.840
REMARK  Name = Tetrachloroethylene.pdbqt.pdb
REMARK  0 active torsions:
REMARK  status: ('A' for Active; 'I' for Inactive)
REMARK                            x       y       z     vdW  Elec       q    Type
REMARK                         _______ _______ _______ _____ _____    ______ ____
ROOT
ATOM      1 CL   UNL     1     -40.139 101.780   1.811  0.00  0.00    +0.000 Cl
ATOM      2 CL   UNL     1     -41.976 100.930  -0.304  0.00  0.00    +0.000 Cl
ATOM      3 CL   UNL     1     -44.215 100.262   1.909  0.00  0.00    +0.000 Cl
ATOM      4 CL   UNL     1     -42.377 101.112   4.024  0.00  0.00    +0.000 Cl
ATOM      5  C   UNL     1     -41.709 101.160   1.398  0.00  0.00    +0.000 C 
ATOM      6  C   UNL     1     -42.644 100.882   2.322  0.00  0.00    +0.000 C 
ENDROOT
TORSDOF 0
ENDMDL
