MODEL 1
REMARK VINA RESULT:      -7.0      0.000      0.000
REMARK  Name = Thalidomide.pdbqt.pdb
REMARK  1 active torsions:
REMARK  status: ('A' for Active; 'I' for Inactive)
REMARK    1  A    between atoms: N_3  and  C_12
REMARK                            x       y       z     vdW  Elec       q    Type
REMARK                         _______ _______ _______ _____ _____    ______ ____
ROOT
ATOM      1  O   UNL     1     -33.472 101.965  13.240  0.00  0.00    +0.000 OA
ATOM      2  O   UNL     1     -35.409  98.758  15.911  0.00  0.00    +0.000 OA
ATOM      3  N   UNL     1     -34.876 100.406  14.313  0.00  0.00    +0.000 N 
ATOM      4  C   UNL     1     -33.688 100.981  13.923  0.00  0.00    +0.000 C 
ATOM      5  C   UNL     1     -34.647  99.354  15.173  0.00  0.00    +0.000 C 
ATOM      6  C   UNL     1     -32.619 100.158  14.477  0.00  0.00    +0.000 A 
ATOM      7  C   UNL     1     -33.204  99.156  15.222  0.00  0.00    +0.000 A 
ATOM      8  C   UNL     1     -31.250 100.284  14.360  0.00  0.00    +0.000 A 
ATOM      9  C   UNL     1     -32.460  98.221  15.911  0.00  0.00    +0.000 A 
ATOM     10  C   UNL     1     -30.474  99.340  15.036  0.00  0.00    +0.000 A 
ATOM     11  C   UNL     1     -31.071  98.322  15.802  0.00  0.00    +0.000 A 
ENDROOT
BRANCH   3  12
ATOM     12  C   UNL     1     -36.121 100.891  13.996  0.00  0.00    +0.000 C 
ATOM     13  C   UNL     1     -36.821 101.813  14.805  0.00  0.00    +0.000 C 
ATOM     14  C   UNL     1     -38.240 102.201  14.527  0.00  0.00    +0.000 C 
ATOM     15  C   UNL     1     -38.961 101.702  13.393  0.00  0.00    +0.000 C 
ATOM     16  O   UNL     1     -40.090 102.077  13.125  0.00  0.00    +0.000 OA
ATOM     17  N   UNL     1     -38.215 100.812  12.625  0.00  0.00    +0.000 N 
ATOM     18  C   UNL     1     -36.849 100.504  12.712  0.00  0.00    +0.000 C 
ATOM     19  H   UNL     1     -38.647 100.552  11.750  0.00  0.00    +0.000 HD
ATOM     20  O   UNL     1     -36.257 100.063  11.732  0.00  0.00    +0.000 OA
ENDBRANCH   3  12
TORSDOF 1
ENDMDL
MODEL 2
REMARK VINA RESULT:      -6.8      0.142      2.013
REMARK  Name = Thalidomide.pdbqt.pdb
REMARK  1 active torsions:
REMARK  status: ('A' for Active; 'I' for Inactive)
REMARK    1  A    between atoms: N_3  and  C_12
REMARK                            x       y       z     vdW  Elec       q    Type
REMARK                         _______ _______ _______ _____ _____    ______ ____
ROOT
ATOM      1  O   UNL     1     -35.501  98.608  15.718  0.00  0.00    +0.000 OA
ATOM      2  O   UNL     1     -33.586 101.770  12.979  0.00  0.00    +0.000 OA
ATOM      3  N   UNL     1     -34.964 100.477  14.388  0.00  0.00    +0.000 N 
ATOM      4  C   UNL     1     -34.726  99.365  15.162  0.00  0.00    +0.000 C 
ATOM      5  C   UNL     1     -33.784 100.973  13.876  0.00  0.00    +0.000 C 
ATOM      6  C   UNL     1     -33.278  99.212  15.252  0.00  0.00    +0.000 A 
ATOM      7  C   UNL     1     -32.704 100.204  14.485  0.00  0.00    +0.000 A 
ATOM      8  C   UNL     1     -32.524  98.276  15.928  0.00  0.00    +0.000 A 
ATOM      9  C   UNL     1     -31.339 100.317  14.330  0.00  0.00    +0.000 A 
ATOM     10  C   UNL     1     -31.137  98.379  15.801  0.00  0.00    +0.000 A 
ATOM     11  C   UNL     1     -30.552  99.386  15.012  0.00  0.00    +0.000 A 
ENDROOT
BRANCH   3  12
ATOM     12  C   UNL     1     -36.210 100.951  14.061  0.00  0.00    +0.000 C 
ATOM     13  C   UNL     1     -36.921 101.873  14.862  0.00  0.00    +0.000 C 
ATOM     14  C   UNL     1     -38.342 102.248  14.574  0.00  0.00    +0.000 C 
ATOM     15  C   UNL     1     -39.053 101.737  13.440  0.00  0.00    +0.000 C 
ATOM     16  O   UNL     1     -40.184 102.102  13.165  0.00  0.00    +0.000 OA
ATOM     17  N   UNL     1     -38.297 100.848  12.681  0.00  0.00    +0.000 N 
ATOM     18  C   UNL     1     -36.929 100.550  12.777  0.00  0.00    +0.000 C 
ATOM     19  H   UNL     1     -38.723 100.579  11.806  0.00  0.00    +0.000 HD
ATOM     20  O   UNL     1     -36.329 100.108  11.802  0.00  0.00    +0.000 OA
ENDBRANCH   3  12
TORSDOF 1
ENDMDL
MODEL 3
REMARK VINA RESULT:      -6.8      2.784      6.564
REMARK  Name = Thalidomide.pdbqt.pdb
REMARK  1 active torsions:
REMARK  status: ('A' for Active; 'I' for Inactive)
REMARK    1  A    between atoms: N_3  and  C_12
REMARK                            x       y       z     vdW  Elec       q    Type
REMARK                         _______ _______ _______ _____ _____    ______ ____
ROOT
ATOM      1  O   UNL     1     -35.071  98.337  16.908  0.00  0.00    +0.000 OA
ATOM      2  O   UNL     1     -32.900 101.065  13.905  0.00  0.00    +0.000 OA
ATOM      3  N   UNL     1     -33.537  99.508  15.556  0.00  0.00    +0.000 N 
ATOM      4  C   UNL     1     -34.754  98.984  15.927  0.00  0.00    +0.000 C 
ATOM      5  C   UNL     1     -33.662 100.261  14.409  0.00  0.00    +0.000 C 
ATOM      6  C   UNL     1     -35.701  99.325  14.871  0.00  0.00    +0.000 A 
ATOM      7  C   UNL     1     -35.030 100.086  13.937  0.00  0.00    +0.000 A 
ATOM      8  C   UNL     1     -37.039  99.017  14.745  0.00  0.00    +0.000 A 
ATOM      9  C   UNL     1     -35.657 100.601  12.821  0.00  0.00    +0.000 A 
ATOM     10  C   UNL     1     -37.692  99.514  13.615  0.00  0.00    +0.000 A 
ATOM     11  C   UNL     1     -37.011 100.296  12.666  0.00  0.00    +0.000 A 
ENDROOT
BRANCH   3  12
ATOM     12  C   UNL     1     -32.384  99.406  16.295  0.00  0.00    +0.000 C 
ATOM     13  C   UNL     1     -32.061 100.289  17.350  0.00  0.00    +0.000 C 
ATOM     14  C   UNL     1     -30.727 100.262  18.030  0.00  0.00    +0.000 C 
ATOM     15  C   UNL     1     -29.714  99.307  17.691  0.00  0.00    +0.000 C 
ATOM     16  O   UNL     1     -28.658  99.238  18.297  0.00  0.00    +0.000 OA
ATOM     17  N   UNL     1     -30.096  98.455  16.657  0.00  0.00    +0.000 N 
ATOM     18  C   UNL     1     -31.358  98.301  16.065  0.00  0.00    +0.000 C 
ATOM     19  H   UNL     1     -29.460  97.689  16.491  0.00  0.00    +0.000 HD
ATOM     20  O   UNL     1     -31.646  97.248  15.502  0.00  0.00    +0.000 OA
ENDBRANCH   3  12
TORSDOF 1
ENDMDL
MODEL 4
REMARK VINA RESULT:      -6.7     14.191     16.514
REMARK  Name = Thalidomide.pdbqt.pdb
REMARK  1 active torsions:
REMARK  status: ('A' for Active; 'I' for Inactive)
REMARK    1  A    between atoms: N_3  and  C_12
REMARK                            x       y       z     vdW  Elec       q    Type
REMARK                         _______ _______ _______ _____ _____    ______ ____
ROOT
ATOM      1  O   UNL     1     -22.972 101.282   1.826  0.00  0.00    +0.000 OA
ATOM      2  O   UNL     1     -25.736 104.634   3.343  0.00  0.00    +0.000 OA
ATOM      3  N   UNL     1     -24.158 102.907   3.054  0.00  0.00    +0.000 N 
ATOM      4  C   UNL     1     -23.632 102.299   1.936  0.00  0.00    +0.000 C 
ATOM      5  C   UNL     1     -24.927 103.994   2.697  0.00  0.00    +0.000 C 
ATOM      6  C   UNL     1     -23.990 103.131   0.794  0.00  0.00    +0.000 A 
ATOM      7  C   UNL     1     -24.761 104.175   1.260  0.00  0.00    +0.000 A 
ATOM      8  C   UNL     1     -23.686 102.982  -0.544  0.00  0.00    +0.000 A 
ATOM      9  C   UNL     1     -25.294 105.129   0.419  0.00  0.00    +0.000 A 
ATOM     10  C   UNL     1     -24.200 103.945  -1.414  0.00  0.00    +0.000 A 
ATOM     11  C   UNL     1     -24.994 105.005  -0.939  0.00  0.00    +0.000 A 
ENDROOT
BRANCH   3  12
ATOM     12  C   UNL     1     -24.043 102.424   4.334  0.00  0.00    +0.000 C 
ATOM     13  C   UNL     1     -23.393 103.130   5.371  0.00  0.00    +0.000 C 
ATOM     14  C   UNL     1     -23.135 102.515   6.712  0.00  0.00    +0.000 C 
ATOM     15  C   UNL     1     -23.576 101.194   7.045  0.00  0.00    +0.000 C 
ATOM     16  O   UNL     1     -23.432 100.723   8.162  0.00  0.00    +0.000 OA
ATOM     17  N   UNL     1     -24.223 100.555   5.990  0.00  0.00    +0.000 N 
ATOM     18  C   UNL     1     -24.644 101.089   4.763  0.00  0.00    +0.000 C 
ATOM     19  H   UNL     1     -24.662  99.681   6.238  0.00  0.00    +0.000 HD
ATOM     20  O   UNL     1     -25.557 100.553   4.143  0.00  0.00    +0.000 OA
ENDBRANCH   3  12
TORSDOF 1
ENDMDL
MODEL 5
REMARK VINA RESULT:      -6.6     14.225     16.537
REMARK  Name = Thalidomide.pdbqt.pdb
REMARK  1 active torsions:
REMARK  status: ('A' for Active; 'I' for Inactive)
REMARK    1  A    between atoms: N_3  and  C_12
REMARK                            x       y       z     vdW  Elec       q    Type
REMARK                         _______ _______ _______ _____ _____    ______ ____
ROOT
ATOM      1  O   UNL     1     -25.521 104.845   3.369  0.00  0.00    +0.000 OA
ATOM      2  O   UNL     1     -22.700 101.540   1.857  0.00  0.00    +0.000 OA
ATOM      3  N   UNL     1     -24.218 102.912   3.026  0.00  0.00    +0.000 N 
ATOM      4  C   UNL     1     -24.902 104.055   2.680  0.00  0.00    +0.000 C 
ATOM      5  C   UNL     1     -23.578 102.379   1.928  0.00  0.00    +0.000 C 
ATOM      6  C   UNL     1     -24.791 104.193   1.232  0.00  0.00    +0.000 A 
ATOM      7  C   UNL     1     -24.001 103.161   0.772  0.00  0.00    +0.000 A 
ATOM      8  C   UNL     1     -25.317 105.149   0.388  0.00  0.00    +0.000 A 
ATOM      9  C   UNL     1     -23.671 103.024  -0.560  0.00  0.00    +0.000 A 
ATOM     10  C   UNL     1     -25.011 105.023  -0.968  0.00  0.00    +0.000 A 
ATOM     11  C   UNL     1     -24.198 103.976  -1.436  0.00  0.00    +0.000 A 
ENDROOT
BRANCH   3  12
ATOM     12  C   UNL     1     -24.083 102.439   4.308  0.00  0.00    +0.000 C 
ATOM     13  C   UNL     1     -23.457 103.171   5.340  0.00  0.00    +0.000 C 
ATOM     14  C   UNL     1     -23.173 102.572   6.683  0.00  0.00    +0.000 C 
ATOM     15  C   UNL     1     -23.565 101.236   7.023  0.00  0.00    +0.000 C 
ATOM     16  O   UNL     1     -23.402 100.776   8.140  0.00  0.00    +0.000 OA
ATOM     17  N   UNL     1     -24.192 100.571   5.972  0.00  0.00    +0.000 N 
ATOM     18  C   UNL     1     -24.634 101.084   4.744  0.00  0.00    +0.000 C 
ATOM     19  H   UNL     1     -24.598  99.682   6.224  0.00  0.00    +0.000 HD
ATOM     20  O   UNL     1     -25.529 100.513   4.128  0.00  0.00    +0.000 OA
ENDBRANCH   3  12
TORSDOF 1
ENDMDL
MODEL 6
REMARK VINA RESULT:      -6.4      2.553      6.522
REMARK  Name = Thalidomide.pdbqt.pdb
REMARK  1 active torsions:
REMARK  status: ('A' for Active; 'I' for Inactive)
REMARK    1  A    between atoms: N_3  and  C_12
REMARK                            x       y       z     vdW  Elec       q    Type
REMARK                         _______ _______ _______ _____ _____    ______ ____
ROOT
ATOM      1  O   UNL     1     -34.085  98.769  16.631  0.00  0.00    +0.000 OA
ATOM      2  O   UNL     1     -33.500 101.643  13.086  0.00  0.00    +0.000 OA
ATOM      3  N   UNL     1     -33.287 100.133  14.883  0.00  0.00    +0.000 N 
ATOM      4  C   UNL     1     -34.202  99.382  15.587  0.00  0.00    +0.000 C 
ATOM      5  C   UNL     1     -33.886 100.735  13.798  0.00  0.00    +0.000 C 
ATOM      6  C   UNL     1     -35.445  99.407  14.825  0.00  0.00    +0.000 A 
ATOM      7  C   UNL     1     -35.247 100.215  13.725  0.00  0.00    +0.000 A 
ATOM      8  C   UNL     1     -36.655  98.795  15.079  0.00  0.00    +0.000 A 
ATOM      9  C   UNL     1     -36.248 100.476  12.813  0.00  0.00    +0.000 A 
ATOM     10  C   UNL     1     -37.681  99.031  14.162  0.00  0.00    +0.000 A 
ATOM     11  C   UNL     1     -37.481  99.860  13.044  0.00  0.00    +0.000 A 
ENDROOT
BRANCH   3  12
ATOM     12  C   UNL     1     -31.992 100.359  15.278  0.00  0.00    +0.000 C 
ATOM     13  C   UNL     1     -30.882  99.704  14.700  0.00  0.00    +0.000 C 
ATOM     14  C   UNL     1     -29.498  99.841  15.257  0.00  0.00    +0.000 C 
ATOM     15  C   UNL     1     -29.204 100.685  16.376  0.00  0.00    +0.000 C 
ATOM     16  O   UNL     1     -28.065 100.854  16.780  0.00  0.00    +0.000 OA
ATOM     17  N   UNL     1     -30.333 101.316  16.892  0.00  0.00    +0.000 N 
ATOM     18  C   UNL     1     -31.630 101.373  16.360  0.00  0.00    +0.000 C 
ATOM     19  H   UNL     1     -30.137 102.018  17.590  0.00  0.00    +0.000 HD
ATOM     20  O   UNL     1     -32.379 102.294  16.670  0.00  0.00    +0.000 OA
ENDBRANCH   3  12
TORSDOF 1
ENDMDL
MODEL 7
REMARK VINA RESULT:      -5.9     13.942     16.170
REMARK  Name = Thalidomide.pdbqt.pdb
REMARK  1 active torsions:
REMARK  status: ('A' for Active; 'I' for Inactive)
REMARK    1  A    between atoms: N_3  and  C_12
REMARK                            x       y       z     vdW  Elec       q    Type
REMARK                         _______ _______ _______ _____ _____    ______ ____
ROOT
ATOM      1  O   UNL     1     -20.596 102.287   5.097  0.00  0.00    +0.000 OA
ATOM      2  O   UNL     1     -24.410  99.727   4.854  0.00  0.00    +0.000 OA
ATOM      3  N   UNL     1     -22.539 101.013   5.485  0.00  0.00    +0.000 N 
ATOM      4  C   UNL     1     -21.663 101.800   4.773  0.00  0.00    +0.000 C 
ATOM      5  C   UNL     1     -23.582 100.601   4.684  0.00  0.00    +0.000 C 
ATOM      6  C   UNL     1     -22.254 102.007   3.456  0.00  0.00    +0.000 A 
ATOM      7  C   UNL     1     -23.433 101.293   3.409  0.00  0.00    +0.000 A 
ATOM      8  C   UNL     1     -21.794 102.738   2.381  0.00  0.00    +0.000 A 
ATOM      9  C   UNL     1     -24.223 101.251   2.280  0.00  0.00    +0.000 A 
ATOM     10  C   UNL     1     -22.585 102.724   1.230  0.00  0.00    +0.000 A 
ATOM     11  C   UNL     1     -23.783 101.990   1.179  0.00  0.00    +0.000 A 
ENDROOT
BRANCH   3  12
ATOM     12  C   UNL     1     -22.337 100.588   6.775  0.00  0.00    +0.000 C 
ATOM     13  C   UNL     1     -22.962 101.186   7.893  0.00  0.00    +0.000 C 
ATOM     14  C   UNL     1     -22.602 100.816   9.298  0.00  0.00    +0.000 C 
ATOM     15  C   UNL     1     -21.640  99.798   9.599  0.00  0.00    +0.000 C 
ATOM     16  O   UNL     1     -21.403  99.445  10.742  0.00  0.00    +0.000 OA
ATOM     17  N   UNL     1     -21.071  99.235   8.459  0.00  0.00    +0.000 N 
ATOM     18  C   UNL     1     -21.443  99.401   7.117  0.00  0.00    +0.000 C 
ATOM     19  H   UNL     1     -20.495  98.426   8.636  0.00  0.00    +0.000 HD
ATOM     20  O   UNL     1     -21.158  98.537   6.292  0.00  0.00    +0.000 OA
ENDBRANCH   3  12
TORSDOF 1
ENDMDL
MODEL 8
REMARK VINA RESULT:      -5.9      1.585      2.193
REMARK  Name = Thalidomide.pdbqt.pdb
REMARK  1 active torsions:
REMARK  status: ('A' for Active; 'I' for Inactive)
REMARK    1  A    between atoms: N_3  and  C_12
REMARK                            x       y       z     vdW  Elec       q    Type
REMARK                         _______ _______ _______ _____ _____    ______ ____
ROOT
ATOM      1  O   UNL     1     -32.599 100.232  13.858  0.00  0.00    +0.000 OA
ATOM      2  O   UNL     1     -35.380  98.850  17.253  0.00  0.00    +0.000 OA
ATOM      3  N   UNL     1     -34.386  99.550  15.234  0.00  0.00    +0.000 N 
ATOM      4  C   UNL     1     -33.076  99.682  14.833  0.00  0.00    +0.000 C 
ATOM      5  C   UNL     1     -34.457  98.933  16.465  0.00  0.00    +0.000 C 
ATOM      6  C   UNL     1     -32.259  98.989  15.823  0.00  0.00    +0.000 A 
ATOM      7  C   UNL     1     -33.103  98.516  16.806  0.00  0.00    +0.000 A 
ATOM      8  C   UNL     1     -30.893  98.804  15.875  0.00  0.00    +0.000 A 
ATOM      9  C   UNL     1     -32.636  97.840  17.913  0.00  0.00    +0.000 A 
ATOM     10  C   UNL     1     -30.397  98.108  16.978  0.00  0.00    +0.000 A 
ATOM     11  C   UNL     1     -31.256  97.632  17.985  0.00  0.00    +0.000 A 
ENDROOT
BRANCH   3  12
ATOM     12  C   UNL     1     -35.465 100.074  14.566  0.00  0.00    +0.000 C 
ATOM     13  C   UNL     1     -36.362  99.287  13.808  0.00  0.00    +0.000 C 
ATOM     14  C   UNL     1     -37.431  99.898  12.955  0.00  0.00    +0.000 C 
ATOM     15  C   UNL     1     -37.645 101.313  12.894  0.00  0.00    +0.000 C 
ATOM     16  O   UNL     1     -38.564 101.803  12.258  0.00  0.00    +0.000 OA
ATOM     17  N   UNL     1     -36.743 102.033  13.672  0.00  0.00    +0.000 N 
ATOM     18  C   UNL     1     -35.816 101.558  14.611  0.00  0.00    +0.000 C 
ATOM     19  H   UNL     1     -36.955 103.016  13.755  0.00  0.00    +0.000 HD
ATOM     20  O   UNL     1     -35.419 102.296  15.508  0.00  0.00    +0.000 OA
ENDBRANCH   3  12
TORSDOF 1
ENDMDL
MODEL 9
REMARK VINA RESULT:      -5.7      1.956      2.761
REMARK  Name = Thalidomide.pdbqt.pdb
REMARK  1 active torsions:
REMARK  status: ('A' for Active; 'I' for Inactive)
REMARK    1  A    between atoms: N_3  and  C_12
REMARK                            x       y       z     vdW  Elec       q    Type
REMARK                         _______ _______ _______ _____ _____    ______ ____
ROOT
ATOM      1  O   UNL     1     -33.475 102.551  14.369  0.00  0.00    +0.000 OA
ATOM      2  O   UNL     1     -32.591  98.167  15.450  0.00  0.00    +0.000 OA
ATOM      3  N   UNL     1     -33.456 100.213  14.663  0.00  0.00    +0.000 N 
ATOM      4  C   UNL     1     -32.934 101.484  14.595  0.00  0.00    +0.000 C 
ATOM      5  C   UNL     1     -32.488  99.311  15.049  0.00  0.00    +0.000 C 
ATOM      6  C   UNL     1     -31.500 101.366  14.836  0.00  0.00    +0.000 A 
ATOM      7  C   UNL     1     -31.226 100.039  15.092  0.00  0.00    +0.000 A 
ATOM      8  C   UNL     1     -30.519 102.335  14.851  0.00  0.00    +0.000 A 
ATOM      9  C   UNL     1     -29.956  99.595  15.396  0.00  0.00    +0.000 A 
ATOM     10  C   UNL     1     -29.221 101.909  15.140  0.00  0.00    +0.000 A 
ATOM     11  C   UNL     1     -28.943 100.557  15.409  0.00  0.00    +0.000 A 
ENDROOT
BRANCH   3  12
ATOM     12  C   UNL     1     -34.783  99.903  14.497  0.00  0.00    +0.000 C 
ATOM     13  C   UNL     1     -35.383  99.724  13.231  0.00  0.00    +0.000 C 
ATOM     14  C   UNL     1     -36.862  99.551  13.067  0.00  0.00    +0.000 C 
ATOM     15  C   UNL     1     -37.755  99.504  14.187  0.00  0.00    +0.000 C 
ATOM     16  O   UNL     1     -38.948  99.288  14.057  0.00  0.00    +0.000 OA
ATOM     17  N   UNL     1     -37.105  99.670  15.407  0.00  0.00    +0.000 N 
ATOM     18  C   UNL     1     -35.728  99.687  15.675  0.00  0.00    +0.000 C 
ATOM     19  H   UNL     1     -37.686  99.506  16.215  0.00  0.00    +0.000 HD
ATOM     20  O   UNL     1     -35.319  99.403  16.798  0.00  0.00    +0.000 OA
ENDBRANCH   3  12
TORSDOF 1
ENDMDL
