MODEL 1
REMARK VINA RESULT:      -6.5      0.000      0.000
REMARK  Name = Thapsigargin.pdbqt.pdb
REMARK  10 active torsions:
REMARK  status: ('A' for Active; 'I' for Inactive)
REMARK    1  A    between atoms: O_2  and  C_24
REMARK    2  A    between atoms: C_17  and  O_43
REMARK    3  A    between atoms: C_19  and  C_24
REMARK    4  A    between atoms: C_19  and  O_47
REMARK    5  A    between atoms: C_27  and  C_35
REMARK    6  A    between atoms: C_35  and  C_36
REMARK    7  A    between atoms: C_37  and  C_38
REMARK    8  A    between atoms: C_39  and  C_40
REMARK    9  A    between atoms: C_42  and  O_43
REMARK   10  A    between atoms: C_42  and  C_44
REMARK                            x       y       z     vdW  Elec       q    Type
REMARK                         _______ _______ _______ _____ _____    ______ ____
ROOT
ATOM      1  O   UNL     1     -30.493  98.384  20.685  0.00  0.00    +0.000 OA
ATOM      2  O   UNL     1     -32.426 100.235  15.250  0.00  0.00    +0.000 OA
ATOM      3  O   UNL     1     -34.416 100.737  16.776  0.00  0.00    +0.000 OA
ATOM      4  O   UNL     1     -33.844  96.611  17.061  0.00  0.00    +0.000 OA
ATOM      5  O   UNL     1     -29.356  98.733  22.637  0.00  0.00    +0.000 OA
ATOM      6  O   UNL     1     -33.451 101.850  16.777  0.00  0.00    +0.000 OA
ATOM      7  O   UNL     1     -36.366 100.021  15.480  0.00  0.00    +0.000 OA
ATOM      8  O   UNL     1     -34.110  96.373  19.526  0.00  0.00    +0.000 OA
ATOM      9  C   UNL     1     -31.063  98.783  16.827  0.00  0.00    +0.000 C 
ATOM     10  C   UNL     1     -29.382  99.933  19.358  0.00  0.00    +0.000 C 
ATOM     11  C   UNL     1     -30.363  98.890  19.398  0.00  0.00    +0.000 C 
ATOM     12  C   UNL     1     -30.181  99.823  16.223  0.00  0.00    +0.000 C 
ATOM     13  C   UNL     1     -31.048  98.410  18.338  0.00  0.00    +0.000 C 
ATOM     14  C   UNL     1     -29.059 100.413  18.202  0.00  0.00    +0.000 C 
ATOM     15  C   UNL     1     -29.169 100.499  16.798  0.00  0.00    +0.000 C 
ATOM     16  C   UNL     1     -31.805  97.711  16.204  0.00  0.00    +0.000 C 
ATOM     17  C   UNL     1     -28.839 100.150  20.711  0.00  0.00    +0.000 C 
ATOM     18  C   UNL     1     -32.509  97.003  17.199  0.00  0.00    +0.000 C 
ATOM     19  C   UNL     1     -31.991  97.289  18.413  0.00  0.00    +0.000 C 
ATOM     20  C   UNL     1     -31.612 100.112  16.433  0.00  0.00    +0.000 C 
ATOM     21  C   UNL     1     -29.573  99.041  21.469  0.00  0.00    +0.000 C 
ATOM     22  C   UNL     1     -32.882  96.865  19.407  0.00  0.00    +0.000 C 
ATOM     23  C   UNL     1     -32.269 101.413  16.053  0.00  0.00    +0.000 C 
ATOM     24  C   UNL     1     -35.412 100.971  15.822  0.00  0.00    +0.000 C 
ATOM     25  C   UNL     1     -34.671  96.654  18.244  0.00  0.00    +0.000 C 
ATOM     26  C   UNL     1     -31.535 102.545  15.321  0.00  0.00    +0.000 C 
ATOM     27  C   UNL     1     -35.897  97.211  18.166  0.00  0.00    +0.000 C 
ATOM     28  C   UNL     1     -36.796  97.327  19.377  0.00  0.00    +0.000 C 
ATOM     29  C   UNL     1     -36.230  98.054  17.068  0.00  0.00    +0.000 C 
ATOM     30  C   UNL     1     -36.331  98.957  16.280  0.00  0.00    +0.000 C 
ENDROOT
BRANCH  17  31
ATOM     31  O   UNL     1     -27.431  99.989  20.721  0.00  0.00    +0.000 OA
ATOM     32  H   UNL     1     -27.064 100.891  20.653  0.00  0.00    +0.000 HD
ENDBRANCH  17  31
BRANCH  17  33
ATOM     33  C   UNL     1     -29.190 101.494  21.205  0.00  0.00    +0.000 C 
BRANCH  33  34
ATOM     34  O   UNL     1     -29.511 102.698  21.674  0.00  0.00    +0.000 OA
ATOM     35  H   UNL     1     -29.806 103.288  20.955  0.00  0.00    +0.000 HD
ENDBRANCH  33  34
ENDBRANCH  17  33
BRANCH  24  36
ATOM     36  C   UNL     1     -35.390 102.026  15.063  0.00  0.00    +0.000 C 
BRANCH  36  37
ATOM     37  C   UNL     1     -35.315 103.275  14.179  0.00  0.00    +0.000 C 
ATOM     38  C   UNL     1     -35.230 104.268  13.509  0.00  0.00    +0.000 C 
BRANCH  38  39
ATOM     39  C   UNL     1     -35.101 105.543  12.670  0.00  0.00    +0.000 C 
ATOM     40  C   UNL     1     -34.986 106.538  12.009  0.00  0.00    +0.000 C 
BRANCH  40  41
ATOM     41  C   UNL     1     -34.833 107.804  11.161  0.00  0.00    +0.000 C 
ATOM     42  C   UNL     1     -34.698 108.908  10.426  0.00  0.00    +0.000 C 
ENDBRANCH  40  41
ENDBRANCH  38  39
ENDBRANCH  36  37
ENDBRANCH  24  36
BRANCH  15  43
ATOM     43  O   UNL     1     -28.122 101.013  16.025  0.00  0.00    +0.000 OA
BRANCH  43  45
ATOM     44  O   UNL     1     -26.286 101.965  17.098  0.00  0.00    +0.000 OA
ATOM     45  C   UNL     1     -27.417 102.015  16.634  0.00  0.00    +0.000 C 
BRANCH  45  46
ATOM     46  C   UNL     1     -28.172 103.228  16.698  0.00  0.00    +0.000 C 
ATOM     47  C   UNL     1     -28.808 104.241  16.747  0.00  0.00    +0.000 C 
ATOM     48  C   UNL     1     -29.609 105.543  16.816  0.00  0.00    +0.000 C 
ENDBRANCH  45  46
ENDBRANCH  43  45
ENDBRANCH  15  43
TORSDOF 10
ENDMDL
MODEL 2
REMARK VINA RESULT:      -6.3     26.276     29.222
REMARK  Name = Thapsigargin.pdbqt.pdb
REMARK  10 active torsions:
REMARK  status: ('A' for Active; 'I' for Inactive)
REMARK    1  A    between atoms: O_2  and  C_24
REMARK    2  A    between atoms: C_17  and  O_43
REMARK    3  A    between atoms: C_19  and  C_24
REMARK    4  A    between atoms: C_19  and  O_47
REMARK    5  A    between atoms: C_27  and  C_35
REMARK    6  A    between atoms: C_35  and  C_36
REMARK    7  A    between atoms: C_37  and  C_38
REMARK    8  A    between atoms: C_39  and  C_40
REMARK    9  A    between atoms: C_42  and  O_43
REMARK   10  A    between atoms: C_42  and  C_44
REMARK                            x       y       z     vdW  Elec       q    Type
REMARK                         _______ _______ _______ _____ _____    ______ ____
ROOT
ATOM      1  O   UNL     1     -41.228  91.180  -8.071  0.00  0.00    +0.000 OA
ATOM      2  O   UNL     1     -35.979  88.312  -9.035  0.00  0.00    +0.000 OA
ATOM      3  O   UNL     1     -35.560  90.637 -10.017  0.00  0.00    +0.000 OA
ATOM      4  O   UNL     1     -38.764  89.096 -12.206  0.00  0.00    +0.000 OA
ATOM      5  O   UNL     1     -42.643  92.381  -6.738  0.00  0.00    +0.000 OA
ATOM      6  O   UNL     1     -35.273  90.609  -8.572  0.00  0.00    +0.000 OA
ATOM      7  O   UNL     1     -34.375  90.201 -12.115  0.00  0.00    +0.000 OA
ATOM      8  O   UNL     1     -40.196  91.134 -12.243  0.00  0.00    +0.000 OA
ATOM      9  C   UNL     1     -38.498  88.447  -8.740  0.00  0.00    +0.000 C 
ATOM     10  C   UNL     1     -39.964  90.166  -6.407  0.00  0.00    +0.000 C 
ATOM     11  C   UNL     1     -40.220  90.260  -7.813  0.00  0.00    +0.000 C 
ATOM     12  C   UNL     1     -37.878  87.937  -7.483  0.00  0.00    +0.000 C 
ATOM     13  C   UNL     1     -39.613  89.531  -8.775  0.00  0.00    +0.000 C 
ATOM     14  C   UNL     1     -39.140  89.257  -6.002  0.00  0.00    +0.000 C 
ATOM     15  C   UNL     1     -38.232  88.196  -6.211  0.00  0.00    +0.000 C 
ATOM     16  C   UNL     1     -38.512  87.882 -10.070  0.00  0.00    +0.000 C 
ATOM     17  C   UNL     1     -40.845  91.101  -5.683  0.00  0.00    +0.000 C 
ATOM     18  C   UNL     1     -39.216  88.749 -10.929  0.00  0.00    +0.000 C 
ATOM     19  C   UNL     1     -39.959  89.608 -10.198  0.00  0.00    +0.000 C 
ATOM     20  C   UNL     1     -37.121  88.861  -8.349  0.00  0.00    +0.000 C 
ATOM     21  C   UNL     1     -41.670  91.642  -6.853  0.00  0.00    +0.000 C 
ATOM     22  C   UNL     1     -40.384  90.663 -11.015  0.00  0.00    +0.000 C 
ATOM     23  C   UNL     1     -35.719  89.326  -8.055  0.00  0.00    +0.000 C 
ATOM     24  C   UNL     1     -34.386  90.397 -10.740  0.00  0.00    +0.000 C 
ATOM     25  C   UNL     1     -39.013  90.448 -12.650  0.00  0.00    +0.000 C 
ATOM     26  C   UNL     1     -34.893  88.815  -6.867  0.00  0.00    +0.000 C 
ATOM     27  C   UNL     1     -38.010  91.143 -13.226  0.00  0.00    +0.000 C 
ATOM     28  C   UNL     1     -38.191  92.577 -13.673  0.00  0.00    +0.000 C 
ATOM     29  C   UNL     1     -36.662  90.710 -13.075  0.00  0.00    +0.000 C 
ATOM     30  C   UNL     1     -35.561  90.446 -12.671  0.00  0.00    +0.000 C 
ENDROOT
BRANCH  17  31
ATOM     31  O   UNL     1     -41.630  90.414  -4.724  0.00  0.00    +0.000 OA
ATOM     32  H   UNL     1     -41.396  90.809  -3.863  0.00  0.00    +0.000 HD
ENDBRANCH  17  31
BRANCH  17  33
ATOM     33  C   UNL     1     -40.056  92.154  -5.019  0.00  0.00    +0.000 C 
BRANCH  33  34
ATOM     34  O   UNL     1     -39.337  93.115  -4.441  0.00  0.00    +0.000 OA
ATOM     35  H   UNL     1     -38.968  93.725  -5.106  0.00  0.00    +0.000 HD
ENDBRANCH  33  34
ENDBRANCH  17  33
BRANCH  24  36
ATOM     36  C   UNL     1     -33.258  90.157 -10.141  0.00  0.00    +0.000 C 
BRANCH  36  37
ATOM     37  C   UNL     1     -31.922  89.833  -9.465  0.00  0.00    +0.000 C 
ATOM     38  C   UNL     1     -30.859  89.605  -8.956  0.00  0.00    +0.000 C 
BRANCH  38  39
ATOM     39  C   UNL     1     -29.491  89.336  -8.320  0.00  0.00    +0.000 C 
ATOM     40  C   UNL     1     -28.416  89.138  -7.825  0.00  0.00    +0.000 C 
BRANCH  40  41
ATOM     41  C   UNL     1     -27.042  88.895  -7.194  0.00  0.00    +0.000 C 
ATOM     42  C   UNL     1     -25.847  88.680  -6.645  0.00  0.00    +0.000 C 
ENDBRANCH  40  41
ENDBRANCH  38  39
ENDBRANCH  36  37
ENDBRANCH  24  36
BRANCH  15  43
ATOM     43  O   UNL     1     -37.948  87.282  -5.189  0.00  0.00    +0.000 OA
BRANCH  43  45
ATOM     44  O   UNL     1     -36.478  88.820  -4.241  0.00  0.00    +0.000 OA
ATOM     45  C   UNL     1     -37.027  87.727  -4.282  0.00  0.00    +0.000 C 
BRANCH  45  46
ATOM     46  C   UNL     1     -36.723  86.728  -3.303  0.00  0.00    +0.000 C 
ATOM     47  C   UNL     1     -36.469  85.897  -2.480  0.00  0.00    +0.000 C 
ATOM     48  C   UNL     1     -36.141  84.824  -1.440  0.00  0.00    +0.000 C 
ENDBRANCH  45  46
ENDBRANCH  43  45
ENDBRANCH  15  43
TORSDOF 10
ENDMDL
MODEL 3
REMARK VINA RESULT:      -6.1     13.577     17.687
REMARK  Name = Thapsigargin.pdbqt.pdb
REMARK  10 active torsions:
REMARK  status: ('A' for Active; 'I' for Inactive)
REMARK    1  A    between atoms: O_2  and  C_24
REMARK    2  A    between atoms: C_17  and  O_43
REMARK    3  A    between atoms: C_19  and  C_24
REMARK    4  A    between atoms: C_19  and  O_47
REMARK    5  A    between atoms: C_27  and  C_35
REMARK    6  A    between atoms: C_35  and  C_36
REMARK    7  A    between atoms: C_37  and  C_38
REMARK    8  A    between atoms: C_39  and  C_40
REMARK    9  A    between atoms: C_42  and  O_43
REMARK   10  A    between atoms: C_42  and  C_44
REMARK                            x       y       z     vdW  Elec       q    Type
REMARK                         _______ _______ _______ _____ _____    ______ ____
ROOT
ATOM      1  O   UNL     1     -36.828 105.442   5.904  0.00  0.00    +0.000 OA
ATOM      2  O   UNL     1     -38.656 103.887   0.342  0.00  0.00    +0.000 OA
ATOM      3  O   UNL     1     -40.712 105.049   1.325  0.00  0.00    +0.000 OA
ATOM      4  O   UNL     1     -39.992 101.800   3.846  0.00  0.00    +0.000 OA
ATOM      5  O   UNL     1     -35.767 106.867   7.343  0.00  0.00    +0.000 OA
ATOM      6  O   UNL     1     -39.791 106.024   0.716  0.00  0.00    +0.000 OA
ATOM      7  O   UNL     1     -42.591 103.641   0.631  0.00  0.00    +0.000 OA
ATOM      8  O   UNL     1     -40.326 102.949   6.030  0.00  0.00    +0.000 OA
ATOM      9  C   UNL     1     -37.290 103.617   2.465  0.00  0.00    +0.000 C 
ATOM     10  C   UNL     1     -35.735 106.054   3.947  0.00  0.00    +0.000 C 
ATOM     11  C   UNL     1     -36.676 105.159   4.553  0.00  0.00    +0.000 C 
ATOM     12  C   UNL     1     -36.429 104.192   1.392  0.00  0.00    +0.000 C 
ATOM     13  C   UNL     1     -37.308 104.141   3.930  0.00  0.00    +0.000 C 
ATOM     14  C   UNL     1     -35.394 105.832   2.721  0.00  0.00    +0.000 C 
ATOM     15  C   UNL     1     -35.463 105.123   1.503  0.00  0.00    +0.000 C 
ATOM     16  C   UNL     1     -37.970 102.343   2.536  0.00  0.00    +0.000 C 
ATOM     17  C   UNL     1     -35.244 107.008   4.958  0.00  0.00    +0.000 C 
ATOM     18  C   UNL     1     -38.677 102.269   3.753  0.00  0.00    +0.000 C 
ATOM     19  C   UNL     1     -38.210 103.203   4.608  0.00  0.00    +0.000 C 
ATOM     20  C   UNL     1     -37.876 104.478   1.400  0.00  0.00    +0.000 C 
ATOM     21  C   UNL     1     -35.959 106.467   6.198  0.00  0.00    +0.000 C 
ATOM     22  C   UNL     1     -39.114 103.354   5.667  0.00  0.00    +0.000 C 
ATOM     23  C   UNL     1     -38.570 105.319   0.360  0.00  0.00    +0.000 C 
ATOM     24  C   UNL     1     -41.686 104.668   0.395  0.00  0.00    +0.000 C 
ATOM     25  C   UNL     1     -40.856 102.448   4.805  0.00  0.00    +0.000 C 
ATOM     26  C   UNL     1     -37.858 105.894  -0.872  0.00  0.00    +0.000 C 
ATOM     27  C   UNL     1     -42.100 102.808   4.425  0.00  0.00    +0.000 C 
ATOM     28  C   UNL     1     -43.041 103.529   5.365  0.00  0.00    +0.000 C 
ATOM     29  C   UNL     1     -42.430 102.887   3.042  0.00  0.00    +0.000 C 
ATOM     30  C   UNL     1     -42.540 103.199   1.886  0.00  0.00    +0.000 C 
ENDROOT
BRANCH  17  31
ATOM     31  O   UNL     1     -33.832 106.950   5.062  0.00  0.00    +0.000 OA
ATOM     32  H   UNL     1     -33.643 106.850   6.014  0.00  0.00    +0.000 HD
ENDBRANCH  17  31
BRANCH  17  33
ATOM     33  C   UNL     1     -35.662 108.382   4.625  0.00  0.00    +0.000 C 
BRANCH  33  34
ATOM     34  O   UNL     1     -36.026 109.632   4.343  0.00  0.00    +0.000 OA
ATOM     35  H   UNL     1     -36.542 109.669   3.516  0.00  0.00    +0.000 HD
ENDBRANCH  33  34
ENDBRANCH  17  33
BRANCH  24  36
ATOM     36  C   UNL     1     -41.680 105.128  -0.820  0.00  0.00    +0.000 C 
BRANCH  36  37
ATOM     37  C   UNL     1     -41.634 105.640  -2.263  0.00  0.00    +0.000 C 
ATOM     38  C   UNL     1     -41.565 106.026  -3.398  0.00  0.00    +0.000 C 
BRANCH  38  39
ATOM     39  C   UNL     1     -41.453 106.504  -4.849  0.00  0.00    +0.000 C 
ATOM     40  C   UNL     1     -41.352 106.884  -5.984  0.00  0.00    +0.000 C 
BRANCH  40  41
ATOM     41  C   UNL     1     -41.214 107.368  -7.430  0.00  0.00    +0.000 C 
ATOM     42  C   UNL     1     -41.094 107.787  -8.689  0.00  0.00    +0.000 C 
ENDBRANCH  40  41
ENDBRANCH  38  39
ENDBRANCH  36  37
ENDBRANCH  24  36
BRANCH  15  43
ATOM     43  O   UNL     1     -34.412 105.175   0.580  0.00  0.00    +0.000 OA
BRANCH  43  45
ATOM     44  O   UNL     1     -34.743 107.378  -0.099  0.00  0.00    +0.000 OA
ATOM     45  C   UNL     1     -34.511 106.198  -0.322  0.00  0.00    +0.000 C 
BRANCH  45  46
ATOM     46  C   UNL     1     -34.311 105.742  -1.663  0.00  0.00    +0.000 C 
ATOM     47  C   UNL     1     -34.137 105.361  -2.785  0.00  0.00    +0.000 C 
ATOM     48  C   UNL     1     -33.930 104.874  -4.221  0.00  0.00    +0.000 C 
ENDBRANCH  45  46
ENDBRANCH  43  45
ENDBRANCH  15  43
TORSDOF 10
ENDMDL
MODEL 4
REMARK VINA RESULT:      -6.1     18.235     22.898
REMARK  Name = Thapsigargin.pdbqt.pdb
REMARK  10 active torsions:
REMARK  status: ('A' for Active; 'I' for Inactive)
REMARK    1  A    between atoms: O_2  and  C_24
REMARK    2  A    between atoms: C_17  and  O_43
REMARK    3  A    between atoms: C_19  and  C_24
REMARK    4  A    between atoms: C_19  and  O_47
REMARK    5  A    between atoms: C_27  and  C_35
REMARK    6  A    between atoms: C_35  and  C_36
REMARK    7  A    between atoms: C_37  and  C_38
REMARK    8  A    between atoms: C_39  and  C_40
REMARK    9  A    between atoms: C_42  and  O_43
REMARK   10  A    between atoms: C_42  and  C_44
REMARK                            x       y       z     vdW  Elec       q    Type
REMARK                         _______ _______ _______ _____ _____    ______ ____
ROOT
ATOM      1  O   UNL     1     -25.618 104.591  -6.207  0.00  0.00    +0.000 OA
ATOM      2  O   UNL     1     -23.140 105.473  -0.750  0.00  0.00    +0.000 OA
ATOM      3  O   UNL     1     -25.649 105.446  -0.251  0.00  0.00    +0.000 OA
ATOM      4  O   UNL     1     -25.103 108.628  -2.898  0.00  0.00    +0.000 OA
ATOM      5  O   UNL     1     -26.295 103.219  -7.906  0.00  0.00    +0.000 OA
ATOM      6  O   UNL     1     -25.091 104.082  -0.249  0.00  0.00    +0.000 OA
ATOM      7  O   UNL     1     -25.969 107.283   1.336  0.00  0.00    +0.000 OA
ATOM      8  O   UNL     1     -27.056 108.207  -4.385  0.00  0.00    +0.000 OA
ATOM      9  C   UNL     1     -23.233 105.650  -3.281  0.00  0.00    +0.000 C 
ATOM     10  C   UNL     1     -24.032 103.191  -5.247  0.00  0.00    +0.000 C 
ATOM     11  C   UNL     1     -24.637 104.489  -5.229  0.00  0.00    +0.000 C 
ATOM     12  C   UNL     1     -22.285 104.566  -2.894  0.00  0.00    +0.000 C 
ATOM     13  C   UNL     1     -24.289 105.509  -4.416  0.00  0.00    +0.000 C 
ATOM     14  C   UNL     1     -23.014 102.988  -4.477  0.00  0.00    +0.000 C 
ATOM     15  C   UNL     1     -22.075 103.383  -3.500  0.00  0.00    +0.000 C 
ATOM     16  C   UNL     1     -23.190 107.070  -3.012  0.00  0.00    +0.000 C 
ATOM     17  C   UNL     1     -24.667 102.367  -6.292  0.00  0.00    +0.000 C 
ATOM     18  C   UNL     1     -24.330 107.678  -3.574  0.00  0.00    +0.000 C 
ATOM     19  C   UNL     1     -24.887 106.847  -4.482  0.00  0.00    +0.000 C 
ATOM     20  C   UNL     1     -23.437 104.873  -2.026  0.00  0.00    +0.000 C 
ATOM     21  C   UNL     1     -25.620 103.400  -6.897  0.00  0.00    +0.000 C 
ATOM     22  C   UNL     1     -26.179 107.295  -4.787  0.00  0.00    +0.000 C 
ATOM     23  C   UNL     1     -23.721 104.162  -0.729  0.00  0.00    +0.000 C 
ATOM     24  C   UNL     1     -25.653 105.961   1.050  0.00  0.00    +0.000 C 
ATOM     25  C   UNL     1     -26.531 108.593  -3.116  0.00  0.00    +0.000 C 
ATOM     26  C   UNL     1     -22.790 103.101  -0.128  0.00  0.00    +0.000 C 
ATOM     27  C   UNL     1     -27.357 108.670  -2.053  0.00  0.00    +0.000 C 
ATOM     28  C   UNL     1     -28.860 108.595  -2.206  0.00  0.00    +0.000 C 
ATOM     29  C   UNL     1     -26.859 108.424  -0.742  0.00  0.00    +0.000 C 
ATOM     30  C   UNL     1     -26.433 107.934   0.271  0.00  0.00    +0.000 C 
ENDROOT
BRANCH  17  31
ATOM     31  O   UNL     1     -23.702 101.894  -7.216  0.00  0.00    +0.000 OA
ATOM     32  H   UNL     1     -23.610 102.600  -7.883  0.00  0.00    +0.000 HD
ENDBRANCH  17  31
BRANCH  17  33
ATOM     33  C   UNL     1     -25.384 101.226  -5.694  0.00  0.00    +0.000 C 
BRANCH  33  34
ATOM     34  O   UNL     1     -26.039 100.189  -5.176  0.00  0.00    +0.000 OA
ATOM     35  H   UNL     1     -26.802  99.942  -5.732  0.00  0.00    +0.000 HD
ENDBRANCH  33  34
ENDBRANCH  17  33
BRANCH  24  36
ATOM     36  C   UNL     1     -25.179 105.280   2.050  0.00  0.00    +0.000 C 
BRANCH  36  37
ATOM     37  C   UNL     1     -24.663 104.451   3.231  0.00  0.00    +0.000 C 
ATOM     38  C   UNL     1     -24.291 103.786   4.159  0.00  0.00    +0.000 C 
BRANCH  38  39
ATOM     39  C   UNL     1     -23.842 102.924   5.343  0.00  0.00    +0.000 C 
ATOM     40  C   UNL     1     -23.492 102.260   6.280  0.00  0.00    +0.000 C 
BRANCH  40  41
ATOM     41  C   UNL     1     -23.049 101.419   7.481  0.00  0.00    +0.000 C 
ATOM     42  C   UNL     1     -22.661 100.688   8.525  0.00  0.00    +0.000 C 
ENDBRANCH  40  41
ENDBRANCH  38  39
ENDBRANCH  36  37
ENDBRANCH  24  36
BRANCH  15  43
ATOM     43  O   UNL     1     -20.845 102.726  -3.379  0.00  0.00    +0.000 OA
BRANCH  43  45
ATOM     44  O   UNL     1     -19.039 104.035  -4.051  0.00  0.00    +0.000 OA
ATOM     45  C   UNL     1     -19.885 103.173  -4.245  0.00  0.00    +0.000 C 
BRANCH  45  46
ATOM     46  C   UNL     1     -19.958 102.502  -5.507  0.00  0.00    +0.000 C 
ATOM     47  C   UNL     1     -20.016 101.936  -6.560  0.00  0.00    +0.000 C 
ATOM     48  C   UNL     1     -20.094 101.226  -7.914  0.00  0.00    +0.000 C 
ENDBRANCH  45  46
ENDBRANCH  43  45
ENDBRANCH  15  43
TORSDOF 10
ENDMDL
MODEL 5
REMARK VINA RESULT:      -5.9     14.511     18.071
REMARK  Name = Thapsigargin.pdbqt.pdb
REMARK  10 active torsions:
REMARK  status: ('A' for Active; 'I' for Inactive)
REMARK    1  A    between atoms: O_2  and  C_24
REMARK    2  A    between atoms: C_17  and  O_43
REMARK    3  A    between atoms: C_19  and  C_24
REMARK    4  A    between atoms: C_19  and  O_47
REMARK    5  A    between atoms: C_27  and  C_35
REMARK    6  A    between atoms: C_35  and  C_36
REMARK    7  A    between atoms: C_37  and  C_38
REMARK    8  A    between atoms: C_39  and  C_40
REMARK    9  A    between atoms: C_42  and  O_43
REMARK   10  A    between atoms: C_42  and  C_44
REMARK                            x       y       z     vdW  Elec       q    Type
REMARK                         _______ _______ _______ _____ _____    ______ ____
ROOT
ATOM      1  O   UNL     1     -41.255 104.314   6.334  0.00  0.00    +0.000 OA
ATOM      2  O   UNL     1     -40.638 102.881   0.481  0.00  0.00    +0.000 OA
ATOM      3  O   UNL     1     -43.014 103.821   0.601  0.00  0.00    +0.000 OA
ATOM      4  O   UNL     1     -43.021 100.526   3.165  0.00  0.00    +0.000 OA
ATOM      5  O   UNL     1     -40.971 105.751   8.090  0.00  0.00    +0.000 OA
ATOM      6  O   UNL     1     -42.025 104.896   0.409  0.00  0.00    +0.000 OA
ATOM      7  O   UNL     1     -44.337 102.298  -0.786  0.00  0.00    +0.000 OA
ATOM      8  O   UNL     1     -44.279 101.540   5.061  0.00  0.00    +0.000 OA
ATOM      9  C   UNL     1     -40.179 102.623   2.965  0.00  0.00    +0.000 C 
ATOM     10  C   UNL     1     -39.554 105.106   4.964  0.00  0.00    +0.000 C 
ATOM     11  C   UNL     1     -40.567 104.110   5.145  0.00  0.00    +0.000 C 
ATOM     12  C   UNL     1     -39.029 103.317   2.318  0.00  0.00    +0.000 C 
ATOM     13  C   UNL     1     -40.811 103.073   4.314  0.00  0.00    +0.000 C 
ATOM     14  C   UNL     1     -38.746 104.971   3.964  0.00  0.00    +0.000 C 
ATOM     15  C   UNL     1     -38.273 104.317   2.807  0.00  0.00    +0.000 C 
ATOM     16  C   UNL     1     -40.710 101.296   2.751  0.00  0.00    +0.000 C 
ATOM     17  C   UNL     1     -39.584 106.048   6.097  0.00  0.00    +0.000 C 
ATOM     18  C   UNL     1     -41.822 101.105   3.595  0.00  0.00    +0.000 C 
ATOM     19  C   UNL     1     -41.812 102.033   4.576  0.00  0.00    +0.000 C 
ATOM     20  C   UNL     1     -40.387 103.482   1.766  0.00  0.00    +0.000 C 
ATOM     21  C   UNL     1     -40.668 105.392   6.956  0.00  0.00    +0.000 C 
ATOM     22  C   UNL     1     -43.065 102.059   5.201  0.00  0.00    +0.000 C 
ATOM     23  C   UNL     1     -40.701 104.312   0.548  0.00  0.00    +0.000 C 
ATOM     24  C   UNL     1     -43.512 103.406  -0.639  0.00  0.00    +0.000 C 
ATOM     25  C   UNL     1     -44.245 101.055   3.719  0.00  0.00    +0.000 C 
ATOM     26  C   UNL     1     -39.626 105.001  -0.303  0.00  0.00    +0.000 C 
ATOM     27  C   UNL     1     -45.274 101.329   2.890  0.00  0.00    +0.000 C 
ATOM     28  C   UNL     1     -46.568 101.925   3.398  0.00  0.00    +0.000 C 
ATOM     29  C   UNL     1     -45.050 101.447   1.489  0.00  0.00    +0.000 C 
ATOM     30  C   UNL     1     -44.734 101.803   0.385  0.00  0.00    +0.000 C 
ENDROOT
BRANCH  17  31
ATOM     31  O   UNL     1     -38.323 106.101   6.742  0.00  0.00    +0.000 OA
ATOM     32  H   UNL     1     -38.474 106.588   7.573  0.00  0.00    +0.000 HD
ENDBRANCH  17  31
BRANCH  17  33
ATOM     33  C   UNL     1     -39.968 107.397   5.644  0.00  0.00    +0.000 C 
BRANCH  33  34
ATOM     34  O   UNL     1     -40.331 108.606   5.219  0.00  0.00    +0.000 OA
ATOM     35  H   UNL     1     -40.880 109.062   5.884  0.00  0.00    +0.000 HD
ENDBRANCH  33  34
ENDBRANCH  17  33
BRANCH  24  36
ATOM     36  C   UNL     1     -43.081 103.923  -1.751  0.00  0.00    +0.000 C 
BRANCH  36  37
ATOM     37  C   UNL     1     -42.619 104.529  -3.080  0.00  0.00    +0.000 C 
ATOM     38  C   UNL     1     -42.273 104.976  -4.139  0.00  0.00    +0.000 C 
BRANCH  38  39
ATOM     39  C   UNL     1     -41.844 105.526  -5.503  0.00  0.00    +0.000 C 
ATOM     40  C   UNL     1     -41.522 105.963  -6.573  0.00  0.00    +0.000 C 
BRANCH  40  41
ATOM     41  C   UNL     1     -41.116 106.526  -7.939  0.00  0.00    +0.000 C 
ATOM     42  C   UNL     1     -40.764 107.018  -9.126  0.00  0.00    +0.000 C 
ENDBRANCH  40  41
ENDBRANCH  38  39
ENDBRANCH  36  37
ENDBRANCH  24  36
BRANCH  15  43
ATOM     43  O   UNL     1     -36.957 104.500   2.366  0.00  0.00    +0.000 OA
BRANCH  43  45
ATOM     44  O   UNL     1     -35.867 103.046   3.824  0.00  0.00    +0.000 OA
ATOM     45  C   UNL     1     -36.006 104.132   3.278  0.00  0.00    +0.000 C 
BRANCH  45  46
ATOM     46  C   UNL     1     -35.114 105.210   3.576  0.00  0.00    +0.000 C 
ATOM     47  C   UNL     1     -34.369 106.112   3.832  0.00  0.00    +0.000 C 
ATOM     48  C   UNL     1     -33.417 107.269   4.143  0.00  0.00    +0.000 C 
ENDBRANCH  45  46
ENDBRANCH  43  45
ENDBRANCH  15  43
TORSDOF 10
ENDMDL
MODEL 6
REMARK VINA RESULT:      -5.8     14.994     20.011
REMARK  Name = Thapsigargin.pdbqt.pdb
REMARK  10 active torsions:
REMARK  status: ('A' for Active; 'I' for Inactive)
REMARK    1  A    between atoms: O_2  and  C_24
REMARK    2  A    between atoms: C_17  and  O_43
REMARK    3  A    between atoms: C_19  and  C_24
REMARK    4  A    between atoms: C_19  and  O_47
REMARK    5  A    between atoms: C_27  and  C_35
REMARK    6  A    between atoms: C_35  and  C_36
REMARK    7  A    between atoms: C_37  and  C_38
REMARK    8  A    between atoms: C_39  and  C_40
REMARK    9  A    between atoms: C_42  and  O_43
REMARK   10  A    between atoms: C_42  and  C_44
REMARK                            x       y       z     vdW  Elec       q    Type
REMARK                         _______ _______ _______ _____ _____    ______ ____
ROOT
ATOM      1  O   UNL     1     -41.638 103.532  -0.704  0.00  0.00    +0.000 OA
ATOM      2  O   UNL     1     -42.949 101.923   4.987  0.00  0.00    +0.000 OA
ATOM      3  O   UNL     1     -42.583 104.448   5.168  0.00  0.00    +0.000 OA
ATOM      4  O   UNL     1     -38.959 102.924   3.764  0.00  0.00    +0.000 OA
ATOM      5  O   UNL     1     -42.271 104.127  -2.818  0.00  0.00    +0.000 OA
ATOM      6  O   UNL     1     -43.974 104.137   4.793  0.00  0.00    +0.000 OA
ATOM      7  O   UNL     1     -41.269 104.722   7.215  0.00  0.00    +0.000 OA
ATOM      8  O   UNL     1     -38.496 104.633   2.013  0.00  0.00    +0.000 OA
ATOM      9  C   UNL     1     -42.021 101.545   2.653  0.00  0.00    +0.000 C 
ATOM     10  C   UNL     1     -43.564 102.396  -0.075  0.00  0.00    +0.000 C 
ATOM     11  C   UNL     1     -42.230 102.767   0.292  0.00  0.00    +0.000 C 
ATOM     12  C   UNL     1     -43.347 100.875   2.774  0.00  0.00    +0.000 C 
ATOM     13  C   UNL     1     -41.593 102.398   1.424  0.00  0.00    +0.000 C 
ATOM     14  C   UNL     1     -44.197 101.575   0.697  0.00  0.00    +0.000 C 
ATOM     15  C   UNL     1     -44.317 100.766   1.847  0.00  0.00    +0.000 C 
ATOM     16  C   UNL     1     -40.787 101.310   3.369  0.00  0.00    +0.000 C 
ATOM     17  C   UNL     1     -43.888 102.970  -1.394  0.00  0.00    +0.000 C 
ATOM     18  C   UNL     1     -39.811 102.217   2.909  0.00  0.00    +0.000 C 
ATOM     19  C   UNL     1     -40.199 102.740   1.726  0.00  0.00    +0.000 C 
ATOM     20  C   UNL     1     -43.069 102.091   3.561  0.00  0.00    +0.000 C 
ATOM     21  C   UNL     1     -42.543 103.616  -1.736  0.00  0.00    +0.000 C 
ATOM     22  C   UNL     1     -39.415 103.866   1.440  0.00  0.00    +0.000 C 
ATOM     23  C   UNL     1     -44.052 102.711   4.519  0.00  0.00    +0.000 C 
ATOM     24  C   UNL     1     -42.485 104.589   6.556  0.00  0.00    +0.000 C 
ATOM     25  C   UNL     1     -38.621 104.277   3.389  0.00  0.00    +0.000 C 
ATOM     26  C   UNL     1     -45.417 102.090   4.847  0.00  0.00    +0.000 C 
ATOM     27  C   UNL     1     -38.685 105.250   4.322  0.00  0.00    +0.000 C 
ATOM     28  C   UNL     1     -38.387 106.694   3.985  0.00  0.00    +0.000 C 
ATOM     29  C   UNL     1     -39.406 105.035   5.530  0.00  0.00    +0.000 C 
ATOM     30  C   UNL     1     -40.250 104.879   6.372  0.00  0.00    +0.000 C 
ENDROOT
BRANCH  17  31
ATOM     31  O   UNL     1     -44.263 101.954  -2.307  0.00  0.00    +0.000 OA
ATOM     32  H   UNL     1     -44.585 102.421  -3.101  0.00  0.00    +0.000 HD
ENDBRANCH  17  31
BRANCH  17  33
ATOM     33  C   UNL     1     -44.973 103.962  -1.279  0.00  0.00    +0.000 C 
BRANCH  33  34
ATOM     34  O   UNL     1     -45.942 104.867  -1.155  0.00  0.00    +0.000 OA
ATOM     35  H   UNL     1     -46.082 105.348  -1.992  0.00  0.00    +0.000 HD
ENDBRANCH  33  34
ENDBRANCH  17  33
BRANCH  24  36
ATOM     36  C   UNL     1     -43.515 104.417   7.330  0.00  0.00    +0.000 C 
BRANCH  36  37
ATOM     37  C   UNL     1     -44.723 104.163   8.237  0.00  0.00    +0.000 C 
ATOM     38  C   UNL     1     -45.651 103.938   8.964  0.00  0.00    +0.000 C 
BRANCH  38  39
ATOM     39  C   UNL     1     -46.820 103.631   9.906  0.00  0.00    +0.000 C 
ATOM     40  C   UNL     1     -47.735 103.405  10.649  0.00  0.00    +0.000 C 
BRANCH  40  41
ATOM     41  C   UNL     1     -48.903 103.124  11.599  0.00  0.00    +0.000 C 
ATOM     42  C   UNL     1     -49.917 102.880  12.428  0.00  0.00    +0.000 C 
ENDBRANCH  40  41
ENDBRANCH  38  39
ENDBRANCH  36  37
ENDBRANCH  24  36
BRANCH  15  43
ATOM     43  O   UNL     1     -45.228  99.704   1.886  0.00  0.00    +0.000 OA
BRANCH  43  45
ATOM     44  O   UNL     1     -47.007 101.207   1.929  0.00  0.00    +0.000 OA
ATOM     45  C   UNL     1     -46.537 100.087   1.784  0.00  0.00    +0.000 C 
BRANCH  45  46
ATOM     46  C   UNL     1     -47.389  98.980   1.475  0.00  0.00    +0.000 C 
ATOM     47  C   UNL     1     -48.101  98.055   1.211  0.00  0.00    +0.000 C 
ATOM     48  C   UNL     1     -49.016  96.871   0.888  0.00  0.00    +0.000 C 
ENDBRANCH  45  46
ENDBRANCH  43  45
ENDBRANCH  15  43
TORSDOF 10
ENDMDL
MODEL 7
REMARK VINA RESULT:      -5.8     24.460     27.514
REMARK  Name = Thapsigargin.pdbqt.pdb
REMARK  10 active torsions:
REMARK  status: ('A' for Active; 'I' for Inactive)
REMARK    1  A    between atoms: O_2  and  C_24
REMARK    2  A    between atoms: C_17  and  O_43
REMARK    3  A    between atoms: C_19  and  C_24
REMARK    4  A    between atoms: C_19  and  O_47
REMARK    5  A    between atoms: C_27  and  C_35
REMARK    6  A    between atoms: C_35  and  C_36
REMARK    7  A    between atoms: C_37  and  C_38
REMARK    8  A    between atoms: C_39  and  C_40
REMARK    9  A    between atoms: C_42  and  O_43
REMARK   10  A    between atoms: C_42  and  C_44
REMARK                            x       y       z     vdW  Elec       q    Type
REMARK                         _______ _______ _______ _____ _____    ______ ____
ROOT
ATOM      1  O   UNL     1     -40.316  86.212  -4.260  0.00  0.00    +0.000 OA
ATOM      2  O   UNL     1     -34.322  85.979  -3.411  0.00  0.00    +0.000 OA
ATOM      3  O   UNL     1     -34.983  83.513  -3.564  0.00  0.00    +0.000 OA
ATOM      4  O   UNL     1     -37.106  85.004  -0.292  0.00  0.00    +0.000 OA
ATOM      5  O   UNL     1     -42.144  86.426  -5.616  0.00  0.00    +0.000 OA
ATOM      6  O   UNL     1     -34.740  84.083  -4.901  0.00  0.00    +0.000 OA
ATOM      7  O   UNL     1     -33.695  82.431  -1.785  0.00  0.00    +0.000 OA
ATOM      8  O   UNL     1     -39.304  83.931  -0.762  0.00  0.00    +0.000 OA
ATOM      9  C   UNL     1     -36.634  87.003  -3.171  0.00  0.00    +0.000 C 
ATOM     10  C   UNL     1     -38.759  87.282  -5.612  0.00  0.00    +0.000 C 
ATOM     11  C   UNL     1     -39.006  86.665  -4.344  0.00  0.00    +0.000 C 
ATOM     12  C   UNL     1     -35.872  87.739  -4.221  0.00  0.00    +0.000 C 
ATOM     13  C   UNL     1     -38.118  86.565  -3.330  0.00  0.00    +0.000 C 
ATOM     14  C   UNL     1     -37.619  87.866  -5.789  0.00  0.00    +0.000 C 
ATOM     15  C   UNL     1     -36.327  88.256  -5.378  0.00  0.00    +0.000 C 
ATOM     16  C   UNL     1     -36.368  86.849  -1.759  0.00  0.00    +0.000 C 
ATOM     17  C   UNL     1     -39.980  87.218  -6.436  0.00  0.00    +0.000 C 
ATOM     18  C   UNL     1     -37.374  86.044  -1.189  0.00  0.00    +0.000 C 
ATOM     19  C   UNL     1     -38.437  85.989  -2.019  0.00  0.00    +0.000 C 
ATOM     20  C   UNL     1     -35.600  86.308  -3.989  0.00  0.00    +0.000 C 
ATOM     21  C   UNL     1     -40.940  86.577  -5.431  0.00  0.00    +0.000 C 
ATOM     22  C   UNL     1     -39.280  84.942  -1.623  0.00  0.00    +0.000 C 
ATOM     23  C   UNL     1     -34.566  85.518  -4.747  0.00  0.00    +0.000 C 
ATOM     24  C   UNL     1     -33.816  82.909  -3.084  0.00  0.00    +0.000 C 
ATOM     25  C   UNL     1     -37.932  83.823  -0.386  0.00  0.00    +0.000 C 
ATOM     26  C   UNL     1     -33.618  86.142  -5.780  0.00  0.00    +0.000 C 
ATOM     27  C   UNL     1     -37.343  82.609  -0.374  0.00  0.00    +0.000 C 
ATOM     28  C   UNL     1     -38.145  81.334  -0.513  0.00  0.00    +0.000 C 
ATOM     29  C   UNL     1     -35.947  82.490  -0.632  0.00  0.00    +0.000 C 
ATOM     30  C   UNL     1     -34.853  82.450  -1.128  0.00  0.00    +0.000 C 
ENDROOT
BRANCH  17  31
ATOM     31  O   UNL     1     -40.384  88.514  -6.840  0.00  0.00    +0.000 OA
ATOM     32  H   UNL     1     -39.865  88.713  -7.641  0.00  0.00    +0.000 HD
ENDBRANCH  17  31
BRANCH  17  33
ATOM     33  C   UNL     1     -39.764  86.371  -7.623  0.00  0.00    +0.000 C 
BRANCH  33  34
ATOM     34  O   UNL     1     -39.592  85.596  -8.693  0.00  0.00    +0.000 OA
ATOM     35  H   UNL     1     -40.297  84.925  -8.757  0.00  0.00    +0.000 HD
ENDBRANCH  33  34
ENDBRANCH  17  33
BRANCH  24  36
ATOM     36  C   UNL     1     -32.712  82.928  -3.769  0.00  0.00    +0.000 C 
BRANCH  36  37
ATOM     37  C   UNL     1     -31.388  82.979  -4.539  0.00  0.00    +0.000 C 
ATOM     38  C   UNL     1     -30.347  83.053  -5.132  0.00  0.00    +0.000 C 
BRANCH  38  39
ATOM     39  C   UNL     1     -29.015  83.173  -5.878  0.00  0.00    +0.000 C 
ATOM     40  C   UNL     1     -27.964  83.273  -6.451  0.00  0.00    +0.000 C 
BRANCH  40  41
ATOM     41  C   UNL     1     -26.621  83.403  -7.175  0.00  0.00    +0.000 C 
ATOM     42  C   UNL     1     -25.452  83.518  -7.805  0.00  0.00    +0.000 C 
ENDBRANCH  40  41
ENDBRANCH  38  39
ENDBRANCH  36  37
ENDBRANCH  24  36
BRANCH  15  43
ATOM     43  O   UNL     1     -35.677  89.339  -5.981  0.00  0.00    +0.000 OA
BRANCH  43  45
ATOM     44  O   UNL     1     -36.161  91.217  -4.691  0.00  0.00    +0.000 OA
ATOM     45  C   UNL     1     -36.249  90.552  -5.714  0.00  0.00    +0.000 C 
BRANCH  45  46
ATOM     46  C   UNL     1     -37.030  91.022  -6.817  0.00  0.00    +0.000 C 
ATOM     47  C   UNL     1     -37.679  91.417  -7.743  0.00  0.00    +0.000 C 
ATOM     48  C   UNL     1     -38.520  91.921  -8.917  0.00  0.00    +0.000 C 
ENDBRANCH  45  46
ENDBRANCH  43  45
ENDBRANCH  15  43
TORSDOF 10
ENDMDL
MODEL 8
REMARK VINA RESULT:      -5.7     13.161     17.068
REMARK  Name = Thapsigargin.pdbqt.pdb
REMARK  10 active torsions:
REMARK  status: ('A' for Active; 'I' for Inactive)
REMARK    1  A    between atoms: O_2  and  C_24
REMARK    2  A    between atoms: C_17  and  O_43
REMARK    3  A    between atoms: C_19  and  C_24
REMARK    4  A    between atoms: C_19  and  O_47
REMARK    5  A    between atoms: C_27  and  C_35
REMARK    6  A    between atoms: C_35  and  C_36
REMARK    7  A    between atoms: C_37  and  C_38
REMARK    8  A    between atoms: C_39  and  C_40
REMARK    9  A    between atoms: C_42  and  O_43
REMARK   10  A    between atoms: C_42  and  C_44
REMARK                            x       y       z     vdW  Elec       q    Type
REMARK                         _______ _______ _______ _____ _____    ______ ____
ROOT
ATOM      1  O   UNL     1     -18.529 100.701   3.193  0.00  0.00    +0.000 OA
ATOM      2  O   UNL     1     -23.033 102.736   6.696  0.00  0.00    +0.000 OA
ATOM      3  O   UNL     1     -21.009 102.795   8.260  0.00  0.00    +0.000 OA
ATOM      4  O   UNL     1     -21.402  98.791   7.143  0.00  0.00    +0.000 OA
ATOM      5  O   UNL     1     -16.893 101.035   1.631  0.00  0.00    +0.000 OA
ATOM      6  O   UNL     1     -21.107 104.034   7.469  0.00  0.00    +0.000 OA
ATOM      7  O   UNL     1     -21.860 101.919  10.382  0.00  0.00    +0.000 OA
ATOM      8  O   UNL     1     -18.999  98.291   6.719  0.00  0.00    +0.000 OA
ATOM      9  C   UNL     1     -22.041 101.364   4.803  0.00  0.00    +0.000 C 
ATOM     10  C   UNL     1     -19.883 102.513   2.664  0.00  0.00    +0.000 C 
ATOM     11  C   UNL     1     -19.733 101.337   3.467  0.00  0.00    +0.000 C 
ATOM     12  C   UNL     1     -22.709 102.574   4.242  0.00  0.00    +0.000 C 
ATOM     13  C   UNL     1     -20.642 100.860   4.346  0.00  0.00    +0.000 C 
ATOM     14  C   UNL     1     -21.012 103.140   2.717  0.00  0.00    +0.000 C 
ATOM     15  C   UNL     1     -22.322 103.337   3.203  0.00  0.00    +0.000 C 
ATOM     16  C   UNL     1     -22.591 100.255   5.549  0.00  0.00    +0.000 C 
ATOM     17  C   UNL     1     -18.691 102.683   1.814  0.00  0.00    +0.000 C 
ATOM     18  C   UNL     1     -21.551  99.362   5.875  0.00  0.00    +0.000 C 
ATOM     19  C   UNL     1     -20.477  99.610   5.094  0.00  0.00    +0.000 C 
ATOM     20  C   UNL     1     -22.115 102.627   5.591  0.00  0.00    +0.000 C 
ATOM     21  C   UNL     1     -17.922 101.413   2.184  0.00  0.00    +0.000 C 
ATOM     22  C   UNL     1     -19.355  98.968   5.634  0.00  0.00    +0.000 C 
ATOM     23  C   UNL     1     -22.152 103.846   6.475  0.00  0.00    +0.000 C 
ATOM     24  C   UNL     1     -21.648 102.965   9.493  0.00  0.00    +0.000 C 
ATOM     25  C   UNL     1     -20.054  98.602   7.628  0.00  0.00    +0.000 C 
ATOM     26  C   UNL     1     -22.893 105.136   6.102  0.00  0.00    +0.000 C 
ATOM     27  C   UNL     1     -19.753  98.976   8.889  0.00  0.00    +0.000 C 
ATOM     28  C   UNL     1     -18.353  98.846   9.444  0.00  0.00    +0.000 C 
ATOM     29  C   UNL     1     -20.618  99.857   9.598  0.00  0.00    +0.000 C 
ATOM     30  C   UNL     1     -21.235 100.803  10.010  0.00  0.00    +0.000 C 
ENDROOT
BRANCH  17  31
ATOM     31  O   UNL     1     -19.052 102.733   0.444  0.00  0.00    +0.000 OA
ATOM     32  H   UNL     1     -18.399 103.322   0.022  0.00  0.00    +0.000 HD
ENDBRANCH  17  31
BRANCH  17  33
ATOM     33  C   UNL     1     -17.959 103.909   2.180  0.00  0.00    +0.000 C 
BRANCH  33  34
ATOM     34  O   UNL     1     -17.318 105.026   2.521  0.00  0.00    +0.000 OA
ATOM     35  H   UNL     1     -17.936 105.690   2.880  0.00  0.00    +0.000 HD
ENDBRANCH  33  34
ENDBRANCH  17  33
BRANCH  24  36
ATOM     36  C   UNL     1     -22.248 104.077   9.798  0.00  0.00    +0.000 C 
BRANCH  36  37
ATOM     37  C   UNL     1     -22.912 105.412  10.151  0.00  0.00    +0.000 C 
ATOM     38  C   UNL     1     -23.444 106.460  10.394  0.00  0.00    +0.000 C 
BRANCH  38  39
ATOM     39  C   UNL     1     -24.133 107.798  10.678  0.00  0.00    +0.000 C 
ATOM     40  C   UNL     1     -24.678 108.847  10.887  0.00  0.00    +0.000 C 
BRANCH  40  41
ATOM     41  C   UNL     1     -25.378 110.185  11.146  0.00  0.00    +0.000 C 
ATOM     42  C   UNL     1     -25.987 111.349  11.369  0.00  0.00    +0.000 C 
ENDBRANCH  40  41
ENDBRANCH  38  39
ENDBRANCH  36  37
ENDBRANCH  24  36
BRANCH  15  43
ATOM     43  O   UNL     1     -23.260 104.069   2.466  0.00  0.00    +0.000 OA
BRANCH  43  45
ATOM     44  O   UNL     1     -23.879 102.144   1.308  0.00  0.00    +0.000 OA
ATOM     45  C   UNL     1     -23.862 103.357   1.464  0.00  0.00    +0.000 C 
BRANCH  45  46
ATOM     46  C   UNL     1     -24.520 104.216   0.528  0.00  0.00    +0.000 C 
ATOM     47  C   UNL     1     -25.070 104.930  -0.260  0.00  0.00    +0.000 C 
ATOM     48  C   UNL     1     -25.772 105.855  -1.257  0.00  0.00    +0.000 C 
ENDBRANCH  45  46
ENDBRANCH  43  45
ENDBRANCH  15  43
TORSDOF 10
ENDMDL
MODEL 9
REMARK VINA RESULT:      -5.7     14.906     19.048
REMARK  Name = Thapsigargin.pdbqt.pdb
REMARK  10 active torsions:
REMARK  status: ('A' for Active; 'I' for Inactive)
REMARK    1  A    between atoms: O_2  and  C_24
REMARK    2  A    between atoms: C_17  and  O_43
REMARK    3  A    between atoms: C_19  and  C_24
REMARK    4  A    between atoms: C_19  and  O_47
REMARK    5  A    between atoms: C_27  and  C_35
REMARK    6  A    between atoms: C_35  and  C_36
REMARK    7  A    between atoms: C_37  and  C_38
REMARK    8  A    between atoms: C_39  and  C_40
REMARK    9  A    between atoms: C_42  and  O_43
REMARK   10  A    between atoms: C_42  and  C_44
REMARK                            x       y       z     vdW  Elec       q    Type
REMARK                         _______ _______ _______ _____ _____    ______ ____
ROOT
ATOM      1  O   UNL     1     -42.872 103.376   5.090  0.00  0.00    +0.000 OA
ATOM      2  O   UNL     1     -40.445 103.283  -0.460  0.00  0.00    +0.000 OA
ATOM      3  O   UNL     1     -42.285 105.049  -0.660  0.00  0.00    +0.000 OA
ATOM      4  O   UNL     1     -44.270 101.527   0.385  0.00  0.00    +0.000 OA
ATOM      5  O   UNL     1     -42.896 104.099   7.258  0.00  0.00    +0.000 OA
ATOM      6  O   UNL     1     -41.033 105.639  -0.157  0.00  0.00    +0.000 OA
ATOM      7  O   UNL     1     -43.337 104.582  -2.822  0.00  0.00    +0.000 OA
ATOM      8  O   UNL     1     -45.817 102.471   2.094  0.00  0.00    +0.000 OA
ATOM      9  C   UNL     1     -41.102 102.266   1.773  0.00  0.00    +0.000 C 
ATOM     10  C   UNL     1     -40.618 103.713   4.640  0.00  0.00    +0.000 C 
ATOM     11  C   UNL     1     -41.864 103.204   4.150  0.00  0.00    +0.000 C 
ATOM     12  C   UNL     1     -39.641 102.567   1.775  0.00  0.00    +0.000 C 
ATOM     13  C   UNL     1     -42.052 102.592   2.961  0.00  0.00    +0.000 C 
ATOM     14  C   UNL     1     -39.560 103.509   3.927  0.00  0.00    +0.000 C 
ATOM     15  C   UNL     1     -38.882 103.022   2.789  0.00  0.00    +0.000 C 
ATOM     16  C   UNL     1     -41.869 101.365   0.942  0.00  0.00    +0.000 C 
ATOM     17  C   UNL     1     -40.814 104.280   5.987  0.00  0.00    +0.000 C 
ATOM     18  C   UNL     1     -43.226 101.445   1.313  0.00  0.00    +0.000 C 
ATOM     19  C   UNL     1     -43.332 102.020   2.530  0.00  0.00    +0.000 C 
ATOM     20  C   UNL     1     -40.557 103.399   0.972  0.00  0.00    +0.000 C 
ATOM     21  C   UNL     1     -42.290 103.935   6.204  0.00  0.00    +0.000 C 
ATOM     22  C   UNL     1     -44.663 102.401   2.747  0.00  0.00    +0.000 C 
ATOM     23  C   UNL     1     -40.107 104.552   0.115  0.00  0.00    +0.000 C 
ATOM     24  C   UNL     1     -42.352 105.187  -2.051  0.00  0.00    +0.000 C 
ATOM     25  C   UNL     1     -45.400 102.356   0.734  0.00  0.00    +0.000 C 
ATOM     26  C   UNL     1     -38.633 104.929  -0.086  0.00  0.00    +0.000 C 
ATOM     27  C   UNL     1     -45.888 103.217  -0.183  0.00  0.00    +0.000 C 
ATOM     28  C   UNL     1     -47.040 104.145   0.132  0.00  0.00    +0.000 C 
ATOM     29  C   UNL     1     -45.106 103.570  -1.319  0.00  0.00    +0.000 C 
ATOM     30  C   UNL     1     -44.290 104.022  -2.078  0.00  0.00    +0.000 C 
ENDROOT
BRANCH  17  31
ATOM     31  O   UNL     1     -39.955 103.658   6.926  0.00  0.00    +0.000 OA
ATOM     32  H   UNL     1     -40.459 102.901   7.280  0.00  0.00    +0.000 HD
ENDBRANCH  17  31
BRANCH  17  33
ATOM     33  C   UNL     1     -40.574 105.735   5.981  0.00  0.00    +0.000 C 
BRANCH  33  34
ATOM     34  O   UNL     1     -40.376 107.052   5.959  0.00  0.00    +0.000 OA
ATOM     35  H   UNL     1     -40.828 107.488   6.705  0.00  0.00    +0.000 HD
ENDBRANCH  33  34
ENDBRANCH  17  33
BRANCH  24  36
ATOM     36  C   UNL     1     -41.386 105.736  -2.725  0.00  0.00    +0.000 C 
BRANCH  36  37
ATOM     37  C   UNL     1     -40.253 106.426  -3.492  0.00  0.00    +0.000 C 
ATOM     38  C   UNL     1     -39.371 106.942  -4.120  0.00  0.00    +0.000 C 
BRANCH  38  39
ATOM     39  C   UNL     1     -38.250 107.586  -4.944  0.00  0.00    +0.000 C 
ATOM     40  C   UNL     1     -37.368 108.097  -5.577  0.00  0.00    +0.000 C 
BRANCH  40  41
ATOM     41  C   UNL     1     -36.238 108.751  -6.378  0.00  0.00    +0.000 C 
ATOM     42  C   UNL     1     -35.255 109.323  -7.073  0.00  0.00    +0.000 C 
ENDBRANCH  40  41
ENDBRANCH  38  39
ENDBRANCH  36  37
ENDBRANCH  24  36
BRANCH  15  43
ATOM     43  O   UNL     1     -37.509 102.754   2.830  0.00  0.00    +0.000 OA
BRANCH  43  45
ATOM     44  O   UNL     1     -36.701 103.959   4.653  0.00  0.00    +0.000 OA
ATOM     45  C   UNL     1     -36.770 103.721   3.455  0.00  0.00    +0.000 C 
BRANCH  45  46
ATOM     46  C   UNL     1     -36.024 104.504   2.518  0.00  0.00    +0.000 C 
ATOM     47  C   UNL     1     -35.396 105.154   1.733  0.00  0.00    +0.000 C 
ATOM     48  C   UNL     1     -34.602 105.999   0.734  0.00  0.00    +0.000 C 
ENDBRANCH  45  46
ENDBRANCH  43  45
ENDBRANCH  15  43
TORSDOF 10
ENDMDL
