MODEL 1
REMARK VINA RESULT:      -5.4      0.000      0.000
REMARK  Name = Thioguanosine.pdbqt.pdb
REMARK  5 active torsions:
REMARK  status: ('A' for Active; 'I' for Inactive)
REMARK    1  A    between atoms: N_2  and  C1*_12
REMARK    2  A    between atoms: C4*_14  and  C5*_17
REMARK    3  A    between atoms: C3*_15  and  O3*_20
REMARK    4  A    between atoms: C2*_16  and  O2*_22
REMARK    5  A    between atoms: C5*_17  and  O5*_18
REMARK                            x       y       z     vdW  Elec       q    Type
REMARK                         _______ _______ _______ _____ _____    ______ ____
ROOT
ATOM      1  S   UNL     1     -30.067  97.405  19.194  0.00  0.00    +0.000 S 
ATOM      2  N   UNL     1     -33.255  99.501  16.122  0.00  0.00    +0.000 N 
ATOM      3  N   UNL     1     -34.075  97.467  17.240  0.00  0.00    +0.000 N 
ATOM      4  N   UNL     1     -31.221  99.532  17.117  0.00  0.00    +0.000 NA
ATOM      5  N   UNL     1     -32.550  96.385  18.710  0.00  0.00    +0.000 NA
ATOM      6  C   UNL     1     -33.170  98.425  16.969  0.00  0.00    +0.000 A 
ATOM      7  C   UNL     1     -32.036 100.143  16.280  0.00  0.00    +0.000 A 
ATOM      8  C   UNL     1     -31.929  98.439  17.553  0.00  0.00    +0.000 A 
ATOM      9  C   UNL     1     -31.579  97.364  18.484  0.00  0.00    +0.000 A 
ATOM     10  C   UNL     1     -33.701  96.479  18.110  0.00  0.00    +0.000 A 
ATOM     11  H   UNL     1     -34.984  97.422  16.786  0.00  0.00    +0.000 HD
ATOM     12  N   UNL     1     -34.662  95.546  18.316  0.00  0.00    +0.000 N 
ATOM     13  H   UNL     1     -35.580  95.927  18.504  0.00  0.00    +0.000 HD
ATOM     14  H   UNL     1     -34.382  94.906  19.056  0.00  0.00    +0.000 HD
ENDROOT
BRANCH   2  15
ATOM     15  C1* UNL     1     -34.265  99.902  15.269  0.00  0.00    +0.000 A 
ATOM     16  O4* UNL     1     -35.609  99.504  15.461  0.00  0.00    +0.000 OA
ATOM     17  C4* UNL     1     -36.405 100.048  14.440  0.00  0.00    +0.000 A 
ATOM     18  C3* UNL     1     -35.557 100.819  13.575  0.00  0.00    +0.000 A 
ATOM     19  C2* UNL     1     -34.227 100.739  14.095  0.00  0.00    +0.000 A 
BRANCH  18  20
ATOM     20  O3* UNL     1     -35.767 100.947  12.229  0.00  0.00    +0.000 OA
ATOM     21  H3* UNL     1     -35.028 101.411  11.793  0.00  0.00    +0.000 HD
ENDBRANCH  18  20
BRANCH  19  22
ATOM     22  O2* UNL     1     -33.145 100.805  13.260  0.00  0.00    +0.000 OA
ATOM     23  H2* UNL     1     -32.459 101.374  13.664  0.00  0.00    +0.000 HD
ENDBRANCH  19  22
BRANCH  17  24
ATOM     24  C5* UNL     1     -37.731  99.639  14.206  0.00  0.00    +0.000 C 
BRANCH  24  25
ATOM     25  O5* UNL     1     -38.978  99.232  13.995  0.00  0.00    +0.000 OA
ATOM     26  H5* UNL     1     -39.611  99.819  14.445  0.00  0.00    +0.000 HD
ENDBRANCH  24  25
ENDBRANCH  17  24
ENDBRANCH   2  15
TORSDOF 5
ENDMDL
MODEL 2
REMARK VINA RESULT:      -5.1      1.389      2.336
REMARK  Name = Thioguanosine.pdbqt.pdb
REMARK  5 active torsions:
REMARK  status: ('A' for Active; 'I' for Inactive)
REMARK    1  A    between atoms: N_2  and  C1*_12
REMARK    2  A    between atoms: C4*_14  and  C5*_17
REMARK    3  A    between atoms: C3*_15  and  O3*_20
REMARK    4  A    between atoms: C2*_16  and  O2*_22
REMARK    5  A    between atoms: C5*_17  and  O5*_18
REMARK                            x       y       z     vdW  Elec       q    Type
REMARK                         _______ _______ _______ _____ _____    ______ ____
ROOT
ATOM      1  S   UNL     1     -29.842  98.611  17.717  0.00  0.00    +0.000 S 
ATOM      2  N   UNL     1     -34.197  99.480  15.651  0.00  0.00    +0.000 N 
ATOM      3  N   UNL     1     -34.102  97.465  17.062  0.00  0.00    +0.000 N 
ATOM      4  N   UNL     1     -32.052 100.122  15.984  0.00  0.00    +0.000 NA
ATOM      5  N   UNL     1     -31.997  96.973  18.054  0.00  0.00    +0.000 NA
ATOM      6  C   UNL     1     -33.597  98.571  16.485  0.00  0.00    +0.000 A 
ATOM      7  C   UNL     1     -33.200 100.410  15.403  0.00  0.00    +0.000 A 
ATOM      8  C   UNL     1     -32.293  98.954  16.666  0.00  0.00    +0.000 A 
ATOM      9  C   UNL     1     -31.425  98.120  17.499  0.00  0.00    +0.000 A 
ATOM     10  C   UNL     1     -33.252  96.713  17.826  0.00  0.00    +0.000 A 
ATOM     11  H   UNL     1     -35.055  97.148  16.906  0.00  0.00    +0.000 HD
ATOM     12  N   UNL     1     -33.833  95.610  18.357  0.00  0.00    +0.000 N 
ATOM     13  H   UNL     1     -34.729  95.780  18.794  0.00  0.00    +0.000 HD
ATOM     14  H   UNL     1     -33.199  95.153  19.008  0.00  0.00    +0.000 HD
ENDROOT
BRANCH   2  15
ATOM     15  C1* UNL     1     -35.474  99.518  15.124  0.00  0.00    +0.000 A 
ATOM     16  O4* UNL     1     -35.802 100.338  14.018  0.00  0.00    +0.000 OA
ATOM     17  C4* UNL     1     -37.165 100.182  13.714  0.00  0.00    +0.000 A 
ATOM     18  C3* UNL     1     -37.724  99.238  14.638  0.00  0.00    +0.000 A 
ATOM     19  C2* UNL     1     -36.672  98.815  15.510  0.00  0.00    +0.000 A 
BRANCH  18  20
ATOM     20  O3* UNL     1     -39.015  99.297  15.090  0.00  0.00    +0.000 OA
ATOM     21  H3* UNL     1     -39.619  99.642  14.407  0.00  0.00    +0.000 HD
ENDBRANCH  18  20
BRANCH  19  22
ATOM     22  O2* UNL     1     -36.939  98.447  16.800  0.00  0.00    +0.000 OA
ATOM     23  H2* UNL     1     -36.890  99.236  17.378  0.00  0.00    +0.000 HD
ENDBRANCH  19  22
BRANCH  17  24
ATOM     24  C5* UNL     1     -37.852 101.039  12.834  0.00  0.00    +0.000 C 
BRANCH  24  25
ATOM     25  O5* UNL     1     -38.493 101.866  12.015  0.00  0.00    +0.000 OA
ATOM     26  H5* UNL     1     -39.147 102.395  12.505  0.00  0.00    +0.000 HD
ENDBRANCH  24  25
ENDBRANCH  17  24
ENDBRANCH   2  15
TORSDOF 5
ENDMDL
MODEL 3
REMARK VINA RESULT:      -5.0      3.810      4.441
REMARK  Name = Thioguanosine.pdbqt.pdb
REMARK  5 active torsions:
REMARK  status: ('A' for Active; 'I' for Inactive)
REMARK    1  A    between atoms: N_2  and  C1*_12
REMARK    2  A    between atoms: C4*_14  and  C5*_17
REMARK    3  A    between atoms: C3*_15  and  O3*_20
REMARK    4  A    between atoms: C2*_16  and  O2*_22
REMARK    5  A    between atoms: C5*_17  and  O5*_18
REMARK                            x       y       z     vdW  Elec       q    Type
REMARK                         _______ _______ _______ _____ _____    ______ ____
ROOT
ATOM      1  S   UNL     1     -29.557 104.298  16.748  0.00  0.00    +0.000 S 
ATOM      2  N   UNL     1     -33.653 102.279  14.976  0.00  0.00    +0.000 N 
ATOM      3  N   UNL     1     -31.645 100.865  14.812  0.00  0.00    +0.000 N 
ATOM      4  N   UNL     1     -32.644 104.031  15.994  0.00  0.00    +0.000 NA
ATOM      5  N   UNL     1     -29.619 101.815  15.619  0.00  0.00    +0.000 NA
ATOM      6  C   UNL     1     -32.326 101.976  15.147  0.00  0.00    +0.000 A 
ATOM      7  C   UNL     1     -33.779 103.541  15.535  0.00  0.00    +0.000 A 
ATOM      8  C   UNL     1     -31.717 103.049  15.745  0.00  0.00    +0.000 A 
ATOM      9  C   UNL     1     -30.278 102.984  16.007  0.00  0.00    +0.000 A 
ATOM     10  C   UNL     1     -30.301 100.852  15.070  0.00  0.00    +0.000 A 
ATOM     11  H   UNL     1     -32.075 100.077  14.333  0.00  0.00    +0.000 HD
ATOM     12  N   UNL     1     -29.688  99.706  14.689  0.00  0.00    +0.000 N 
ATOM     13  H   UNL     1     -30.165  98.861  14.977  0.00  0.00    +0.000 HD
ATOM     14  H   UNL     1     -28.721  99.697  15.008  0.00  0.00    +0.000 HD
ENDROOT
BRANCH   2  15
ATOM     15  C1* UNL     1     -34.675 101.563  14.381  0.00  0.00    +0.000 A 
ATOM     16  O4* UNL     1     -35.831 102.197  13.867  0.00  0.00    +0.000 OA
ATOM     17  C4* UNL     1     -36.697 101.225  13.339  0.00  0.00    +0.000 A 
ATOM     18  C3* UNL     1     -36.083  99.939  13.510  0.00  0.00    +0.000 A 
ATOM     19  C2* UNL     1     -34.820 100.147  14.149  0.00  0.00    +0.000 A 
BRANCH  18  20
ATOM     20  O3* UNL     1     -36.789  98.788  13.735  0.00  0.00    +0.000 OA
ATOM     21  H3* UNL     1     -37.117  98.400  12.903  0.00  0.00    +0.000 HD
ENDBRANCH  18  20
BRANCH  19  22
ATOM     22  O2* UNL     1     -34.291  99.197  14.978  0.00  0.00    +0.000 OA
ATOM     23  H2* UNL     1     -34.051  98.406  14.453  0.00  0.00    +0.000 HD
ENDBRANCH  19  22
BRANCH  17  24
ATOM     24  C5* UNL     1     -38.029 101.503  12.982  0.00  0.00    +0.000 C 
BRANCH  24  25
ATOM     25  O5* UNL     1     -39.294 101.758  12.664  0.00  0.00    +0.000 OA
ATOM     26  H5* UNL     1     -39.843 101.816  13.466  0.00  0.00    +0.000 HD
ENDBRANCH  24  25
ENDBRANCH  17  24
ENDBRANCH   2  15
TORSDOF 5
ENDMDL
MODEL 4
REMARK VINA RESULT:      -5.0      2.961      4.486
REMARK  Name = Thioguanosine.pdbqt.pdb
REMARK  5 active torsions:
REMARK  status: ('A' for Active; 'I' for Inactive)
REMARK    1  A    between atoms: N_2  and  C1*_12
REMARK    2  A    between atoms: C4*_14  and  C5*_17
REMARK    3  A    between atoms: C3*_15  and  O3*_20
REMARK    4  A    between atoms: C2*_16  and  O2*_22
REMARK    5  A    between atoms: C5*_17  and  O5*_18
REMARK                            x       y       z     vdW  Elec       q    Type
REMARK                         _______ _______ _______ _____ _____    ______ ____
ROOT
ATOM      1  S   UNL     1     -37.119  97.482  20.637  0.00  0.00    +0.000 S 
ATOM      2  N   UNL     1     -37.741  99.186  16.087  0.00  0.00    +0.000 N 
ATOM      3  N   UNL     1     -35.481  98.344  16.579  0.00  0.00    +0.000 N 
ATOM      4  N   UNL     1     -38.627  98.732  18.120  0.00  0.00    +0.000 NA
ATOM      5  N   UNL     1     -35.113  97.545  18.789  0.00  0.00    +0.000 NA
ATOM      6  C   UNL     1     -36.765  98.624  16.869  0.00  0.00    +0.000 A 
ATOM      7  C   UNL     1     -38.856  99.202  16.910  0.00  0.00    +0.000 A 
ATOM      8  C   UNL     1     -37.302  98.371  18.106  0.00  0.00    +0.000 A 
ATOM      9  C   UNL     1     -36.441  97.794  19.141  0.00  0.00    +0.000 A 
ATOM     10  C   UNL     1     -34.713  97.813  17.579  0.00  0.00    +0.000 A 
ATOM     11  H   UNL     1     -35.059  98.561  15.680  0.00  0.00    +0.000 HD
ATOM     12  N   UNL     1     -33.432  97.575  17.210  0.00  0.00    +0.000 N 
ATOM     13  H   UNL     1     -33.335  97.095  16.325  0.00  0.00    +0.000 HD
ATOM     14  H   UNL     1     -32.938  97.073  17.945  0.00  0.00    +0.000 HD
ENDROOT
BRANCH   2  15
ATOM     15  C1* UNL     1     -37.698  99.665  14.792  0.00  0.00    +0.000 A 
ATOM     16  O4* UNL     1     -36.519  99.604  14.011  0.00  0.00    +0.000 OA
ATOM     17  C4* UNL     1     -36.767 100.175  12.752  0.00  0.00    +0.000 A 
ATOM     18  C3* UNL     1     -38.135 100.606  12.717  0.00  0.00    +0.000 A 
ATOM     19  C2* UNL     1     -38.720 100.280  13.981  0.00  0.00    +0.000 A 
BRANCH  18  20
ATOM     20  O3* UNL     1     -38.565 101.702  12.019  0.00  0.00    +0.000 OA
ATOM     21  H3* UNL     1     -39.411 101.528  11.565  0.00  0.00    +0.000 HD
ENDBRANCH  18  20
BRANCH  19  22
ATOM     22  O2* UNL     1     -39.726 101.046  14.504  0.00  0.00    +0.000 OA
ATOM     23  H2* UNL     1     -39.744 100.936  15.476  0.00  0.00    +0.000 HD
ENDBRANCH  19  22
BRANCH  17  24
ATOM     24  C5* UNL     1     -35.740 100.490  11.842  0.00  0.00    +0.000 C 
BRANCH  24  25
ATOM     25  O5* UNL     1     -34.782 100.808  10.979  0.00  0.00    +0.000 OA
ATOM     26  H5* UNL     1     -34.634 100.081  10.348  0.00  0.00    +0.000 HD
ENDBRANCH  24  25
ENDBRANCH  17  24
ENDBRANCH   2  15
TORSDOF 5
ENDMDL
MODEL 5
REMARK VINA RESULT:      -4.7      3.549      5.037
REMARK  Name = Thioguanosine.pdbqt.pdb
REMARK  5 active torsions:
REMARK  status: ('A' for Active; 'I' for Inactive)
REMARK    1  A    between atoms: N_2  and  C1*_12
REMARK    2  A    between atoms: C4*_14  and  C5*_17
REMARK    3  A    between atoms: C3*_15  and  O3*_20
REMARK    4  A    between atoms: C2*_16  and  O2*_22
REMARK    5  A    between atoms: C5*_17  and  O5*_18
REMARK                            x       y       z     vdW  Elec       q    Type
REMARK                         _______ _______ _______ _____ _____    ______ ____
ROOT
ATOM      1  S   UNL     1     -39.556  97.747  21.078  0.00  0.00    +0.000 S 
ATOM      2  N   UNL     1     -37.951  99.068  16.642  0.00  0.00    +0.000 N 
ATOM      3  N   UNL     1     -36.497  97.485  17.843  0.00  0.00    +0.000 N 
ATOM      4  N   UNL     1     -39.548  99.204  18.241  0.00  0.00    +0.000 NA
ATOM      5  N   UNL     1     -37.209  96.844  20.020  0.00  0.00    +0.000 NA
ATOM      6  C   UNL     1     -37.585  98.262  17.691  0.00  0.00    +0.000 A 
ATOM      7  C   UNL     1     -39.169  99.595  17.040  0.00  0.00    +0.000 A 
ATOM      8  C   UNL     1     -38.546  98.365  18.664  0.00  0.00    +0.000 A 
ATOM      9  C   UNL     1     -38.367  97.617  19.910  0.00  0.00    +0.000 A 
ATOM     10  C   UNL     1     -36.369  96.810  19.027  0.00  0.00    +0.000 A 
ATOM     11  H   UNL     1     -35.758  97.428  17.147  0.00  0.00    +0.000 HD
ATOM     12  N   UNL     1     -35.241  96.064  19.106  0.00  0.00    +0.000 N 
ATOM     13  H   UNL     1     -35.061  95.492  18.291  0.00  0.00    +0.000 HD
ATOM     14  H   UNL     1     -35.251  95.493  19.948  0.00  0.00    +0.000 HD
ENDROOT
BRANCH   2  15
ATOM     15  C1* UNL     1     -37.306  99.354  15.455  0.00  0.00    +0.000 A 
ATOM     16  O4* UNL     1     -35.962  99.799  15.421  0.00  0.00    +0.000 OA
ATOM     17  C4* UNL     1     -35.581 100.023  14.088  0.00  0.00    +0.000 A 
ATOM     18  C3* UNL     1     -36.699  99.709  13.245  0.00  0.00    +0.000 A 
ATOM     19  C2* UNL     1     -37.770  99.283  14.091  0.00  0.00    +0.000 A 
BRANCH  18  20
ATOM     20  O3* UNL     1     -36.964 100.359  12.069  0.00  0.00    +0.000 OA
ATOM     21  H3* UNL     1     -36.274 100.188  11.401  0.00  0.00    +0.000 HD
ENDBRANCH  18  20
BRANCH  19  22
ATOM     22  O2* UNL     1     -39.072  99.500  13.734  0.00  0.00    +0.000 OA
ATOM     23  H2* UNL     1     -39.113  99.737  12.785  0.00  0.00    +0.000 HD
ENDBRANCH  19  22
BRANCH  17  24
ATOM     24  C5* UNL     1     -34.399 100.701  13.737  0.00  0.00    +0.000 C 
BRANCH  24  25
ATOM     25  O5* UNL     1     -33.291 101.360  13.417  0.00  0.00    +0.000 OA
ATOM     26  H5* UNL     1     -32.525 100.759  13.408  0.00  0.00    +0.000 HD
ENDBRANCH  24  25
ENDBRANCH  17  24
ENDBRANCH   2  15
TORSDOF 5
ENDMDL
MODEL 6
REMARK VINA RESULT:      -4.6      3.509      4.752
REMARK  Name = Thioguanosine.pdbqt.pdb
REMARK  5 active torsions:
REMARK  status: ('A' for Active; 'I' for Inactive)
REMARK    1  A    between atoms: N_2  and  C1*_12
REMARK    2  A    between atoms: C4*_14  and  C5*_17
REMARK    3  A    between atoms: C3*_15  and  O3*_20
REMARK    4  A    between atoms: C2*_16  and  O2*_22
REMARK    5  A    between atoms: C5*_17  and  O5*_18
REMARK                            x       y       z     vdW  Elec       q    Type
REMARK                         _______ _______ _______ _____ _____    ______ ____
ROOT
ATOM      1  S   UNL     1     -37.349  96.826  20.661  0.00  0.00    +0.000 S 
ATOM      2  N   UNL     1     -38.417  99.404  16.635  0.00  0.00    +0.000 N 
ATOM      3  N   UNL     1     -36.089  98.615  16.775  0.00  0.00    +0.000 N 
ATOM      4  N   UNL     1     -39.112  98.482  18.582  0.00  0.00    +0.000 NA
ATOM      5  N   UNL     1     -35.506  97.395  18.731  0.00  0.00    +0.000 NA
ATOM      6  C   UNL     1     -37.355  98.751  17.209  0.00  0.00    +0.000 A 
ATOM      7  C   UNL     1     -39.460  99.180  17.520  0.00  0.00    +0.000 A 
ATOM      8  C   UNL     1     -37.778  98.212  18.397  0.00  0.00    +0.000 A 
ATOM      9  C   UNL     1     -36.811  97.485  19.222  0.00  0.00    +0.000 A 
ATOM     10  C   UNL     1     -35.219  97.934  17.582  0.00  0.00    +0.000 A 
ATOM     11  H   UNL     1     -35.752  99.042  15.915  0.00  0.00    +0.000 HD
ATOM     12  N   UNL     1     -33.963  97.857  17.081  0.00  0.00    +0.000 N 
ATOM     13  H   UNL     1     -33.917  97.579  16.109  0.00  0.00    +0.000 HD
ATOM     14  H   UNL     1     -33.389  97.243  17.655  0.00  0.00    +0.000 HD
ENDROOT
BRANCH   2  15
ATOM     15  C1* UNL     1     -38.500 100.146  15.472  0.00  0.00    +0.000 A 
ATOM     16  O4* UNL     1     -39.347 101.275  15.365  0.00  0.00    +0.000 OA
ATOM     17  C4* UNL     1     -39.236 101.816  14.073  0.00  0.00    +0.000 A 
ATOM     18  C3* UNL     1     -38.293 101.025  13.336  0.00  0.00    +0.000 A 
ATOM     19  C2* UNL     1     -37.826  99.991  14.207  0.00  0.00    +0.000 A 
BRANCH  18  20
ATOM     20  O3* UNL     1     -38.382 100.804  11.988  0.00  0.00    +0.000 OA
ATOM     21  H3* UNL     1     -38.456 101.641  11.492  0.00  0.00    +0.000 HD
ENDBRANCH  18  20
BRANCH  19  22
ATOM     22  O2* UNL     1     -37.445  98.775  13.708  0.00  0.00    +0.000 OA
ATOM     23  H2* UNL     1     -36.528  98.583  13.990  0.00  0.00    +0.000 HD
ENDBRANCH  19  22
BRANCH  17  24
ATOM     24  C5* UNL     1     -40.126 102.784  13.574  0.00  0.00    +0.000 C 
BRANCH  24  25
ATOM     25  O5* UNL     1     -40.958 103.714  13.116  0.00  0.00    +0.000 OA
ATOM     26  H5* UNL     1     -41.130 104.386  13.799  0.00  0.00    +0.000 HD
ENDBRANCH  24  25
ENDBRANCH  17  24
ENDBRANCH   2  15
TORSDOF 5
ENDMDL
MODEL 7
REMARK VINA RESULT:      -4.4     15.927     17.466
REMARK  Name = Thioguanosine.pdbqt.pdb
REMARK  5 active torsions:
REMARK  status: ('A' for Active; 'I' for Inactive)
REMARK    1  A    between atoms: N_2  and  C1*_12
REMARK    2  A    between atoms: C4*_14  and  C5*_17
REMARK    3  A    between atoms: C3*_15  and  O3*_20
REMARK    4  A    between atoms: C2*_16  and  O2*_22
REMARK    5  A    between atoms: C5*_17  and  O5*_18
REMARK                            x       y       z     vdW  Elec       q    Type
REMARK                         _______ _______ _______ _____ _____    ______ ____
ROOT
ATOM      1  S   UNL     1     -19.035  85.525  16.150  0.00  0.00    +0.000 S 
ATOM      2  N   UNL     1     -19.858  89.685  18.602  0.00  0.00    +0.000 N 
ATOM      3  N   UNL     1     -19.987  89.882  16.151  0.00  0.00    +0.000 N 
ATOM      4  N   UNL     1     -19.410  87.466  18.652  0.00  0.00    +0.000 NA
ATOM      5  N   UNL     1     -19.552  87.900  14.911  0.00  0.00    +0.000 NA
ATOM      6  C   UNL     1     -19.810  89.223  17.311  0.00  0.00    +0.000 A 
ATOM      7  C   UNL     1     -19.625  88.553  19.367  0.00  0.00    +0.000 A 
ATOM      8  C   UNL     1     -19.518  87.883  17.348  0.00  0.00    +0.000 A 
ATOM      9  C   UNL     1     -19.379  87.160  16.083  0.00  0.00    +0.000 A 
ATOM     10  C   UNL     1     -19.840  89.166  14.995  0.00  0.00    +0.000 A 
ATOM     11  H   UNL     1     -20.165  90.882  16.107  0.00  0.00    +0.000 HD
ATOM     12  N   UNL     1     -20.019  89.906  13.873  0.00  0.00    +0.000 N 
ATOM     13  H   UNL     1     -20.843  90.492  13.887  0.00  0.00    +0.000 HD
ATOM     14  H   UNL     1     -20.018  89.309  13.050  0.00  0.00    +0.000 HD
ENDROOT
BRANCH   2  15
ATOM     15  C1* UNL     1     -20.062  90.958  19.099  0.00  0.00    +0.000 A 
ATOM     16  O4* UNL     1     -18.999  91.878  19.257  0.00  0.00    +0.000 OA
ATOM     17  C4* UNL     1     -19.498  93.077  19.793  0.00  0.00    +0.000 A 
ATOM     18  C3* UNL     1     -20.914  92.928  19.977  0.00  0.00    +0.000 A 
ATOM     19  C2* UNL     1     -21.269  91.615  19.537  0.00  0.00    +0.000 A 
BRANCH  18  20
ATOM     20  O3* UNL     1     -21.611  93.529  20.990  0.00  0.00    +0.000 OA
ATOM     21  H3* UNL     1     -21.218  93.336  21.861  0.00  0.00    +0.000 HD
ENDBRANCH  18  20
BRANCH  19  22
ATOM     22  O2* UNL     1     -22.318  90.946  20.106  0.00  0.00    +0.000 OA
ATOM     23  H2* UNL     1     -22.394  90.058  19.701  0.00  0.00    +0.000 HD
ENDBRANCH  19  22
BRANCH  17  24
ATOM     24  C5* UNL     1     -18.665  94.092  20.296  0.00  0.00    +0.000 C 
BRANCH  24  25
ATOM     25  O5* UNL     1     -17.862  95.046  20.756  0.00  0.00    +0.000 OA
ATOM     26  H5* UNL     1     -17.725  95.734  20.081  0.00  0.00    +0.000 HD
ENDBRANCH  24  25
ENDBRANCH  17  24
ENDBRANCH   2  15
TORSDOF 5
ENDMDL
MODEL 8
REMARK VINA RESULT:      -4.2     16.010     17.385
REMARK  Name = Thioguanosine.pdbqt.pdb
REMARK  5 active torsions:
REMARK  status: ('A' for Active; 'I' for Inactive)
REMARK    1  A    between atoms: N_2  and  C1*_12
REMARK    2  A    between atoms: C4*_14  and  C5*_17
REMARK    3  A    between atoms: C3*_15  and  O3*_20
REMARK    4  A    between atoms: C2*_16  and  O2*_22
REMARK    5  A    between atoms: C5*_17  and  O5*_18
REMARK                            x       y       z     vdW  Elec       q    Type
REMARK                         _______ _______ _______ _____ _____    ______ ____
ROOT
ATOM      1  S   UNL     1     -23.132  88.466  26.764  0.00  0.00    +0.000 S 
ATOM      2  N   UNL     1     -21.414  90.638  22.724  0.00  0.00    +0.000 N 
ATOM      3  N   UNL     1     -19.812  90.497  24.587  0.00  0.00    +0.000 N 
ATOM      4  N   UNL     1     -23.117  89.579  23.776  0.00  0.00    +0.000 NA
ATOM      5  N   UNL     1     -20.610  89.490  26.588  0.00  0.00    +0.000 NA
ATOM      6  C   UNL     1     -20.998  90.295  23.985  0.00  0.00    +0.000 A 
ATOM      7  C   UNL     1     -22.711  90.152  22.659  0.00  0.00    +0.000 A 
ATOM      8  C   UNL     1     -22.040  89.672  24.623  0.00  0.00    +0.000 A 
ATOM      9  C   UNL     1     -21.854  89.234  26.008  0.00  0.00    +0.000 A 
ATOM     10  C   UNL     1     -19.687  90.077  25.883  0.00  0.00    +0.000 A 
ATOM     11  H   UNL     1     -19.044  90.991  24.140  0.00  0.00    +0.000 HD
ATOM     12  N   UNL     1     -18.470  90.333  26.420  0.00  0.00    +0.000 N 
ATOM     13  H   UNL     1     -17.690  90.070  25.831  0.00  0.00    +0.000 HD
ATOM     14  H   UNL     1     -18.387  89.898  27.337  0.00  0.00    +0.000 HD
ENDROOT
BRANCH   2  15
ATOM     15  C1* UNL     1     -20.767  91.323  21.713  0.00  0.00    +0.000 A 
ATOM     16  O4* UNL     1     -19.813  92.332  21.985  0.00  0.00    +0.000 OA
ATOM     17  C4* UNL     1     -19.336  92.858  20.773  0.00  0.00    +0.000 A 
ATOM     18  C3* UNL     1     -19.990  92.168  19.698  0.00  0.00    +0.000 A 
ATOM     19  C2* UNL     1     -20.873  91.205  20.280  0.00  0.00    +0.000 A 
BRANCH  18  20
ATOM     20  O3* UNL     1     -20.299  92.754  18.501  0.00  0.00    +0.000 OA
ATOM     21  H3* UNL     1     -19.525  93.199  18.108  0.00  0.00    +0.000 HD
ENDBRANCH  18  20
BRANCH  19  22
ATOM     22  O2* UNL     1     -22.028  90.842  19.644  0.00  0.00    +0.000 OA
ATOM     23  H2* UNL     1     -21.847  90.088  19.047  0.00  0.00    +0.000 HD
ENDBRANCH  19  22
BRANCH  17  24
ATOM     24  C5* UNL     1     -18.571  94.036  20.702  0.00  0.00    +0.000 C 
BRANCH  24  25
ATOM     25  O5* UNL     1     -17.833  95.141  20.651  0.00  0.00    +0.000 OA
ATOM     26  H5* UNL     1     -16.929  94.964  20.964  0.00  0.00    +0.000 HD
ENDBRANCH  24  25
ENDBRANCH  17  24
ENDBRANCH   2  15
TORSDOF 5
ENDMDL
MODEL 9
REMARK VINA RESULT:      -4.2     13.214     14.678
REMARK  Name = Thioguanosine.pdbqt.pdb
REMARK  5 active torsions:
REMARK  status: ('A' for Active; 'I' for Inactive)
REMARK    1  A    between atoms: N_2  and  C1*_12
REMARK    2  A    between atoms: C4*_14  and  C5*_17
REMARK    3  A    between atoms: C3*_15  and  O3*_20
REMARK    4  A    between atoms: C2*_16  and  O2*_22
REMARK    5  A    between atoms: C5*_17  and  O5*_18
REMARK                            x       y       z     vdW  Elec       q    Type
REMARK                         _______ _______ _______ _____ _____    ______ ____
ROOT
ATOM      1  S   UNL     1     -29.492  90.702  16.752  0.00  0.00    +0.000 S 
ATOM      2  N   UNL     1     -27.420  87.455  13.725  0.00  0.00    +0.000 N 
ATOM      3  N   UNL     1     -29.090  86.514  15.270  0.00  0.00    +0.000 N 
ATOM      4  N   UNL     1     -27.617  89.601  14.419  0.00  0.00    +0.000 NA
ATOM      5  N   UNL     1     -30.095  88.041  16.791  0.00  0.00    +0.000 NA
ATOM      6  C   UNL     1     -28.357  87.503  14.726  0.00  0.00    +0.000 A 
ATOM      7  C   UNL     1     -27.026  88.776  13.577  0.00  0.00    +0.000 A 
ATOM      8  C   UNL     1     -28.457  88.802  15.155  0.00  0.00    +0.000 A 
ATOM      9  C   UNL     1     -29.377  89.111  16.251  0.00  0.00    +0.000 A 
ATOM     10  C   UNL     1     -29.931  86.849  16.296  0.00  0.00    +0.000 A 
ATOM     11  H   UNL     1     -28.999  85.541  14.988  0.00  0.00    +0.000 HD
ATOM     12  N   UNL     1     -30.620  85.796  16.797  0.00  0.00    +0.000 N 
ATOM     13  H   UNL     1     -31.049  85.206  16.096  0.00  0.00    +0.000 HD
ATOM     14  H   UNL     1     -31.314  86.113  17.471  0.00  0.00    +0.000 HD
ENDROOT
BRANCH   2  15
ATOM     15  C1* UNL     1     -26.920  86.387  13.005  0.00  0.00    +0.000 A 
ATOM     16  O4* UNL     1     -27.714  85.675  12.074  0.00  0.00    +0.000 OA
ATOM     17  C4* UNL     1     -26.950  84.641  11.509  0.00  0.00    +0.000 A 
ATOM     18  C3* UNL     1     -25.635  84.691  12.082  0.00  0.00    +0.000 A 
ATOM     19  C2* UNL     1     -25.611  85.783  13.006  0.00  0.00    +0.000 A 
BRANCH  18  20
ATOM     20  O3* UNL     1     -24.864  83.582  12.303  0.00  0.00    +0.000 OA
ATOM     21  H3* UNL     1     -25.010  82.902  11.620  0.00  0.00    +0.000 HD
ENDBRANCH  18  20
BRANCH  19  22
ATOM     22  O2* UNL     1     -24.807  85.745  14.112  0.00  0.00    +0.000 OA
ATOM     23  H2* UNL     1     -24.909  84.879  14.557  0.00  0.00    +0.000 HD
ENDBRANCH  19  22
BRANCH  17  24
ATOM     24  C5* UNL     1     -27.516  83.607  10.740  0.00  0.00    +0.000 C 
BRANCH  24  25
ATOM     25  O5* UNL     1     -28.046  82.616  10.031  0.00  0.00    +0.000 OA
ATOM     26  H5* UNL     1     -29.018  82.669  10.042  0.00  0.00    +0.000 HD
ENDBRANCH  24  25
ENDBRANCH  17  24
ENDBRANCH   2  15
TORSDOF 5
ENDMDL
