MODEL 1
REMARK VINA RESULT:      -6.1      0.000      0.000
REMARK  Name = Trifluridine.pdbqt.pdb
REMARK  5 active torsions:
REMARK  status: ('A' for Active; 'I' for Inactive)
REMARK    1  A    between atoms: N_3  and  C1*_10
REMARK    2  A    between atoms: C_7  and  C_20
REMARK    3  A    between atoms: C4*_12  and  C5*_15
REMARK    4  A    between atoms: C3*_13  and  O3*_18
REMARK    5  A    between atoms: C5*_15  and  O5*_16
REMARK                            x       y       z     vdW  Elec       q    Type
REMARK                         _______ _______ _______ _____ _____    ______ ____
ROOT
ATOM      1  O   UNL     1     -32.778  99.049  17.125  0.00  0.00    +0.000 OA
ATOM      2  O   UNL     1     -28.384 100.351  17.366  0.00  0.00    +0.000 OA
ATOM      3  N   UNL     1     -31.925 100.416  15.390  0.00  0.00    +0.000 N 
ATOM      4  N   UNL     1     -30.585  99.726  17.186  0.00  0.00    +0.000 N 
ATOM      5  C   UNL     1     -30.791 101.032  15.002  0.00  0.00    +0.000 A 
ATOM      6  C   UNL     1     -31.870  99.677  16.594  0.00  0.00    +0.000 A 
ATOM      7  C   UNL     1     -29.591 101.137  15.469  0.00  0.00    +0.000 A 
ATOM      8  C   UNL     1     -29.435 100.390  16.742  0.00  0.00    +0.000 A 
ATOM      9  H   UNL     1     -30.493  99.213  18.051  0.00  0.00    +0.000 HD
ENDROOT
BRANCH   3  10
ATOM     10  C1* UNL     1     -33.047 100.541  14.621  0.00  0.00    +0.000 A 
ATOM     11  O4* UNL     1     -34.204  99.795  14.870  0.00  0.00    +0.000 OA
ATOM     12  C4* UNL     1     -35.136 100.149  13.885  0.00  0.00    +0.000 A 
ATOM     13  C3* UNL     1     -34.548 101.134  13.012  0.00  0.00    +0.000 A 
ATOM     14  C2* UNL     1     -33.242 101.353  13.487  0.00  0.00    +0.000 A 
BRANCH  13  15
ATOM     15  O3* UNL     1     -34.909 101.213  11.697  0.00  0.00    +0.000 OA
ATOM     16  H3* UNL     1     -34.477 101.968  11.262  0.00  0.00    +0.000 HD
ENDBRANCH  13  15
BRANCH  12  17
ATOM     17  C5* UNL     1     -36.342  99.446  13.699  0.00  0.00    +0.000 C 
BRANCH  17  18
ATOM     18  O5* UNL     1     -37.478  98.778  13.524  0.00  0.00    +0.000 OA
ATOM     19  H5* UNL     1     -37.658  98.213  14.294  0.00  0.00    +0.000 HD
ENDBRANCH  17  18
ENDBRANCH  12  17
ENDBRANCH   3  10
BRANCH   7  20
ATOM     20  C   UNL     1     -28.435 101.879  14.947  0.00  0.00    +0.000 C 
ATOM     21  F   UNL     1     -27.943 102.772  15.841  0.00  0.00    +0.000 F 
ATOM     22  F   UNL     1     -27.402 101.047  14.638  0.00  0.00    +0.000 F 
ATOM     23  F   UNL     1     -28.724 102.558  13.809  0.00  0.00    +0.000 F 
ENDBRANCH   7  20
TORSDOF 5
ENDMDL
MODEL 2
REMARK VINA RESULT:      -5.9      3.187      4.534
REMARK  Name = Trifluridine.pdbqt.pdb
REMARK  5 active torsions:
REMARK  status: ('A' for Active; 'I' for Inactive)
REMARK    1  A    between atoms: N_3  and  C1*_10
REMARK    2  A    between atoms: C_7  and  C_20
REMARK    3  A    between atoms: C4*_12  and  C5*_15
REMARK    4  A    between atoms: C3*_13  and  O3*_18
REMARK    5  A    between atoms: C5*_15  and  O5*_16
REMARK                            x       y       z     vdW  Elec       q    Type
REMARK                         _______ _______ _______ _____ _____    ______ ____
ROOT
ATOM      1  O   UNL     1     -34.821 102.084  12.449  0.00  0.00    +0.000 OA
ATOM      2  O   UNL     1     -30.959 100.337  14.209  0.00  0.00    +0.000 OA
ATOM      3  N   UNL     1     -35.013 100.434  14.138  0.00  0.00    +0.000 N 
ATOM      4  N   UNL     1     -32.925 101.178  13.374  0.00  0.00    +0.000 N 
ATOM      5  C   UNL     1     -34.254  99.654  14.932  0.00  0.00    +0.000 A 
ATOM      6  C   UNL     1     -34.330 101.300  13.253  0.00  0.00    +0.000 A 
ATOM      7  C   UNL     1     -32.988  99.471  15.110  0.00  0.00    +0.000 A 
ATOM      8  C   UNL     1     -32.182 100.342  14.217  0.00  0.00    +0.000 A 
ATOM      9  H   UNL     1     -32.389 101.776  12.761  0.00  0.00    +0.000 HD
ENDROOT
BRANCH   3  10
ATOM     10  C1* UNL     1     -36.373 100.345  14.221  0.00  0.00    +0.000 A 
ATOM     11  O4* UNL     1     -37.029 100.106  15.434  0.00  0.00    +0.000 OA
ATOM     12  C4* UNL     1     -38.400 100.050  15.151  0.00  0.00    +0.000 A 
ATOM     13  C3* UNL     1     -38.599 100.261  13.739  0.00  0.00    +0.000 A 
ATOM     14  C2* UNL     1     -37.319 100.433  13.181  0.00  0.00    +0.000 A 
BRANCH  13  15
ATOM     15  O3* UNL     1     -39.650  99.686  13.084  0.00  0.00    +0.000 OA
ATOM     16  H3* UNL     1     -39.792 100.103  12.216  0.00  0.00    +0.000 HD
ENDBRANCH  13  15
BRANCH  12  17
ATOM     17  C5* UNL     1     -39.350  99.620  16.098  0.00  0.00    +0.000 C 
BRANCH  17  18
ATOM     18  O5* UNL     1     -40.243  99.215  16.996  0.00  0.00    +0.000 OA
ATOM     19  H5* UNL     1     -39.816  98.655  17.665  0.00  0.00    +0.000 HD
ENDBRANCH  17  18
ENDBRANCH  12  17
ENDBRANCH   3  10
BRANCH   7  20
ATOM     20  C   UNL     1     -32.282  98.549  16.009  0.00  0.00    +0.000 C 
ATOM     21  F   UNL     1     -31.551  99.196  16.951  0.00  0.00    +0.000 F 
ATOM     22  F   UNL     1     -33.148  97.749  16.690  0.00  0.00    +0.000 F 
ATOM     23  F   UNL     1     -31.444  97.715  15.345  0.00  0.00    +0.000 F 
ENDBRANCH   7  20
TORSDOF 5
ENDMDL
MODEL 3
REMARK VINA RESULT:      -5.8     14.082     15.119
REMARK  Name = Trifluridine.pdbqt.pdb
REMARK  5 active torsions:
REMARK  status: ('A' for Active; 'I' for Inactive)
REMARK    1  A    between atoms: N_3  and  C1*_10
REMARK    2  A    between atoms: C_7  and  C_20
REMARK    3  A    between atoms: C4*_12  and  C5*_15
REMARK    4  A    between atoms: C3*_13  and  O3*_18
REMARK    5  A    between atoms: C5*_15  and  O5*_16
REMARK                            x       y       z     vdW  Elec       q    Type
REMARK                         _______ _______ _______ _____ _____    ______ ____
ROOT
ATOM      1  O   UNL     1     -26.747  85.340  15.631  0.00  0.00    +0.000 OA
ATOM      2  O   UNL     1     -27.433  83.263  11.596  0.00  0.00    +0.000 OA
ATOM      3  N   UNL     1     -28.122  86.428  14.039  0.00  0.00    +0.000 N 
ATOM      4  N   UNL     1     -27.135  84.347  13.598  0.00  0.00    +0.000 N 
ATOM      5  C   UNL     1     -28.613  86.267  12.794  0.00  0.00    +0.000 A 
ATOM      6  C   UNL     1     -27.295  85.394  14.536  0.00  0.00    +0.000 A 
ATOM      7  C   UNL     1     -28.521  85.365  11.874  0.00  0.00    +0.000 A 
ATOM      8  C   UNL     1     -27.665  84.231  12.307  0.00  0.00    +0.000 A 
ATOM      9  H   UNL     1     -26.550  83.582  13.905  0.00  0.00    +0.000 HD
ENDROOT
BRANCH   3  10
ATOM     10  C1* UNL     1     -28.435  87.558  14.737  0.00  0.00    +0.000 A 
ATOM     11  O4* UNL     1     -29.468  87.587  15.680  0.00  0.00    +0.000 OA
ATOM     12  C4* UNL     1     -29.529  88.895  16.178  0.00  0.00    +0.000 A 
ATOM     13  C3* UNL     1     -28.514  89.691  15.535  0.00  0.00    +0.000 A 
ATOM     14  C2* UNL     1     -27.853  88.837  14.635  0.00  0.00    +0.000 A 
BRANCH  13  15
ATOM     15  O3* UNL     1     -28.697  91.029  15.329  0.00  0.00    +0.000 OA
ATOM     16  H3* UNL     1     -28.414  91.544  16.105  0.00  0.00    +0.000 HD
ENDBRANCH  13  15
BRANCH  12  17
ATOM     17  C5* UNL     1     -30.586  89.344  16.994  0.00  0.00    +0.000 C 
BRANCH  17  18
ATOM     18  O5* UNL     1     -31.584  89.763  17.765  0.00  0.00    +0.000 OA
ATOM     19  H5* UNL     1     -32.302  90.125  17.218  0.00  0.00    +0.000 HD
ENDBRANCH  17  18
ENDBRANCH  12  17
ENDBRANCH   3  10
BRANCH   7  20
ATOM     20  C   UNL     1     -29.098  85.328  10.523  0.00  0.00    +0.000 C 
ATOM     21  F   UNL     1     -30.009  86.312  10.320  0.00  0.00    +0.000 F 
ATOM     22  F   UNL     1     -28.145  85.493   9.565  0.00  0.00    +0.000 F 
ATOM     23  F   UNL     1     -29.705  84.147  10.249  0.00  0.00    +0.000 F 
ENDBRANCH   7  20
TORSDOF 5
ENDMDL
MODEL 4
REMARK VINA RESULT:      -5.8      2.736      3.948
REMARK  Name = Trifluridine.pdbqt.pdb
REMARK  5 active torsions:
REMARK  status: ('A' for Active; 'I' for Inactive)
REMARK    1  A    between atoms: N_3  and  C1*_10
REMARK    2  A    between atoms: C_7  and  C_20
REMARK    3  A    between atoms: C4*_12  and  C5*_15
REMARK    4  A    between atoms: C3*_13  and  O3*_18
REMARK    5  A    between atoms: C5*_15  and  O5*_16
REMARK                            x       y       z     vdW  Elec       q    Type
REMARK                         _______ _______ _______ _____ _____    ______ ____
ROOT
ATOM      1  O   UNL     1     -36.458  98.276  16.986  0.00  0.00    +0.000 OA
ATOM      2  O   UNL     1     -31.877  98.396  17.228  0.00  0.00    +0.000 OA
ATOM      3  N   UNL     1     -35.280  99.373  15.249  0.00  0.00    +0.000 N 
ATOM      4  N   UNL     1     -34.165  98.362  17.047  0.00  0.00    +0.000 N 
ATOM      5  C   UNL     1     -34.024  99.674  14.861  0.00  0.00    +0.000 A 
ATOM      6  C   UNL     1     -35.418  98.646  16.454  0.00  0.00    +0.000 A 
ATOM      7  C   UNL     1     -32.838  99.465  15.329  0.00  0.00    +0.000 A 
ATOM      8  C   UNL     1     -32.881  98.705  16.603  0.00  0.00    +0.000 A 
ATOM      9  H   UNL     1     -34.209  97.844  17.913  0.00  0.00    +0.000 HD
ENDROOT
BRANCH   3  10
ATOM     10  C1* UNL     1     -36.330  99.783  14.479  0.00  0.00    +0.000 A 
ATOM     11  O4* UNL     1     -36.437 101.095  14.005  0.00  0.00    +0.000 OA
ATOM     12  C4* UNL     1     -37.635 101.171  13.282  0.00  0.00    +0.000 A 
ATOM     13  C3* UNL     1     -38.281  99.883  13.306  0.00  0.00    +0.000 A 
ATOM     14  C2* UNL     1     -37.452  99.038  14.066  0.00  0.00    +0.000 A 
BRANCH  13  15
ATOM     15  O3* UNL     1     -39.642  99.778  13.255  0.00  0.00    +0.000 OA
ATOM     16  H3* UNL     1     -40.058 100.289  13.971  0.00  0.00    +0.000 HD
ENDBRANCH  13  15
BRANCH  12  17
ATOM     17  C5* UNL     1     -38.171 102.394  12.836  0.00  0.00    +0.000 C 
BRANCH  17  18
ATOM     18  O5* UNL     1     -38.680 103.549  12.419  0.00  0.00    +0.000 OA
ATOM     19  H5* UNL     1     -39.103 104.017  13.159  0.00  0.00    +0.000 HD
ENDBRANCH  17  18
ENDBRANCH  12  17
ENDBRANCH   3  10
BRANCH   7  20
ATOM     20  C   UNL     1     -31.529  99.882  14.807  0.00  0.00    +0.000 C 
ATOM     21  F   UNL     1     -31.605 100.382  13.549  0.00  0.00    +0.000 F 
ATOM     22  F   UNL     1     -30.974 100.863  15.570  0.00  0.00    +0.000 F 
ATOM     23  F   UNL     1     -30.631  98.866  14.789  0.00  0.00    +0.000 F 
ENDBRANCH   7  20
TORSDOF 5
ENDMDL
MODEL 5
REMARK VINA RESULT:      -5.6     26.955     28.697
REMARK  Name = Trifluridine.pdbqt.pdb
REMARK  5 active torsions:
REMARK  status: ('A' for Active; 'I' for Inactive)
REMARK    1  A    between atoms: N_3  and  C1*_10
REMARK    2  A    between atoms: C_7  and  C_20
REMARK    3  A    between atoms: C4*_12  and  C5*_15
REMARK    4  A    between atoms: C3*_13  and  O3*_18
REMARK    5  A    between atoms: C5*_15  and  O5*_16
REMARK                            x       y       z     vdW  Elec       q    Type
REMARK                         _______ _______ _______ _____ _____    ______ ____
ROOT
ATOM      1  O   UNL     1     -34.118  94.994 -13.552  0.00  0.00    +0.000 OA
ATOM      2  O   UNL     1     -29.725  94.383 -14.731  0.00  0.00    +0.000 OA
ATOM      3  N   UNL     1     -32.699  96.890 -13.580  0.00  0.00    +0.000 N 
ATOM      4  N   UNL     1     -31.913  94.753 -14.142  0.00  0.00    +0.000 N 
ATOM      5  C   UNL     1     -31.423  97.240 -13.834  0.00  0.00    +0.000 A 
ATOM      6  C   UNL     1     -33.028  95.523 -13.734  0.00  0.00    +0.000 A 
ATOM      7  C   UNL     1     -30.351  96.620 -14.201  0.00  0.00    +0.000 A 
ATOM      8  C   UNL     1     -30.598  95.169 -14.388  0.00  0.00    +0.000 A 
ATOM      9  H   UNL     1     -32.095  93.767 -14.265  0.00  0.00    +0.000 HD
ENDROOT
BRANCH   3  10
ATOM     10  C1* UNL     1     -33.587  97.850 -13.188  0.00  0.00    +0.000 A 
ATOM     11  O4* UNL     1     -33.899  98.068 -11.841  0.00  0.00    +0.000 OA
ATOM     12  C4* UNL     1     -34.852  99.094 -11.805  0.00  0.00    +0.000 A 
ATOM     13  C3* UNL     1     -35.135  99.522 -13.153  0.00  0.00    +0.000 A 
ATOM     14  C2* UNL     1     -34.340  98.724 -13.995  0.00  0.00    +0.000 A 
BRANCH  13  15
ATOM     15  O3* UNL     1     -36.365 100.008 -13.493  0.00  0.00    +0.000 OA
ATOM     16  H3* UNL     1     -36.946  99.295 -13.810  0.00  0.00    +0.000 HD
ENDBRANCH  13  15
BRANCH  12  17
ATOM     17  C5* UNL     1     -35.550  99.437 -10.631  0.00  0.00    +0.000 C 
BRANCH  17  18
ATOM     18  O5* UNL     1     -36.209  99.765  -9.524  0.00  0.00    +0.000 OA
ATOM     19  H5* UNL     1     -35.663 100.345  -8.967  0.00  0.00    +0.000 HD
ENDBRANCH  17  18
ENDBRANCH  12  17
ENDBRANCH   3  10
BRANCH   7  20
ATOM     20  C   UNL     1     -28.990  97.131 -14.420  0.00  0.00    +0.000 C 
ATOM     21  F   UNL     1     -28.863  98.437 -14.076  0.00  0.00    +0.000 F 
ATOM     22  F   UNL     1     -28.074  96.454 -13.675  0.00  0.00    +0.000 F 
ATOM     23  F   UNL     1     -28.591  97.009 -15.710  0.00  0.00    +0.000 F 
ENDBRANCH   7  20
TORSDOF 5
ENDMDL
MODEL 6
REMARK VINA RESULT:      -5.4     13.972     16.733
REMARK  Name = Trifluridine.pdbqt.pdb
REMARK  5 active torsions:
REMARK  status: ('A' for Active; 'I' for Inactive)
REMARK    1  A    between atoms: N_3  and  C1*_10
REMARK    2  A    between atoms: C_7  and  C_20
REMARK    3  A    between atoms: C4*_12  and  C5*_15
REMARK    4  A    between atoms: C3*_13  and  O3*_18
REMARK    5  A    between atoms: C5*_15  and  O5*_16
REMARK                            x       y       z     vdW  Elec       q    Type
REMARK                         _______ _______ _______ _____ _____    ______ ____
ROOT
ATOM      1  O   UNL     1     -39.350 103.996  -0.003  0.00  0.00    +0.000 OA
ATOM      2  O   UNL     1     -43.245 101.654  -0.639  0.00  0.00    +0.000 OA
ATOM      3  N   UNL     1     -40.160 102.675   1.788  0.00  0.00    +0.000 N 
ATOM      4  N   UNL     1     -41.289 102.795  -0.264  0.00  0.00    +0.000 N 
ATOM      5  C   UNL     1     -41.178 101.851   2.106  0.00  0.00    +0.000 A 
ATOM      6  C   UNL     1     -40.170 103.228   0.487  0.00  0.00    +0.000 A 
ATOM      7  C   UNL     1     -42.230 101.407   1.502  0.00  0.00    +0.000 A 
ATOM      8  C   UNL     1     -42.328 101.937   0.119  0.00  0.00    +0.000 A 
ATOM      9  H   UNL     1     -41.343 103.164  -1.202  0.00  0.00    +0.000 HD
ENDROOT
BRANCH   3  10
ATOM     10  C1* UNL     1     -39.197 102.933   2.720  0.00  0.00    +0.000 A 
ATOM     11  O4* UNL     1     -39.317 103.978   3.644  0.00  0.00    +0.000 OA
ATOM     12  C4* UNL     1     -38.151 103.971   4.421  0.00  0.00    +0.000 A 
ATOM     13  C3* UNL     1     -37.294 102.901   3.974  0.00  0.00    +0.000 A 
ATOM     14  C2* UNL     1     -37.965 102.276   2.908  0.00  0.00    +0.000 A 
BRANCH  13  15
ATOM     15  O3* UNL     1     -35.935 103.002   4.072  0.00  0.00    +0.000 OA
ATOM     16  H3* UNL     1     -35.564 103.471   3.304  0.00  0.00    +0.000 HD
ENDBRANCH  13  15
BRANCH  12  17
ATOM     17  C5* UNL     1     -37.833 105.012   5.314  0.00  0.00    +0.000 C 
BRANCH  17  18
ATOM     18  O5* UNL     1     -37.531 105.992   6.160  0.00  0.00    +0.000 OA
ATOM     19  H5* UNL     1     -36.585 106.207   6.101  0.00  0.00    +0.000 HD
ENDBRANCH  17  18
ENDBRANCH  12  17
ENDBRANCH   3  10
BRANCH   7  20
ATOM     20  C   UNL     1     -43.294 100.517   1.986  0.00  0.00    +0.000 C 
ATOM     21  F   UNL     1     -44.516 100.858   1.508  0.00  0.00    +0.000 F 
ATOM     22  F   UNL     1     -43.085  99.228   1.600  0.00  0.00    +0.000 F 
ATOM     23  F   UNL     1     -43.377 100.495   3.340  0.00  0.00    +0.000 F 
ENDBRANCH   7  20
TORSDOF 5
ENDMDL
MODEL 7
REMARK VINA RESULT:      -5.4     14.211     17.010
REMARK  Name = Trifluridine.pdbqt.pdb
REMARK  5 active torsions:
REMARK  status: ('A' for Active; 'I' for Inactive)
REMARK    1  A    between atoms: N_3  and  C1*_10
REMARK    2  A    between atoms: C_7  and  C_20
REMARK    3  A    between atoms: C4*_12  and  C5*_15
REMARK    4  A    between atoms: C3*_13  and  O3*_18
REMARK    5  A    between atoms: C5*_15  and  O5*_16
REMARK                            x       y       z     vdW  Elec       q    Type
REMARK                         _______ _______ _______ _____ _____    ______ ____
ROOT
ATOM      1  O   UNL     1     -41.511 100.774  -0.329  0.00  0.00    +0.000 OA
ATOM      2  O   UNL     1     -45.326 100.140   2.142  0.00  0.00    +0.000 OA
ATOM      3  N   UNL     1     -41.610 101.735   1.834  0.00  0.00    +0.000 N 
ATOM      4  N   UNL     1     -43.389 100.484   0.958  0.00  0.00    +0.000 N 
ATOM      5  C   UNL     1     -42.432 101.844   2.896  0.00  0.00    +0.000 A 
ATOM      6  C   UNL     1     -42.088 100.992   0.730  0.00  0.00    +0.000 A 
ATOM      7  C   UNL     1     -43.618 101.427   3.192  0.00  0.00    +0.000 A 
ATOM      8  C   UNL     1     -44.208 100.632   2.085  0.00  0.00    +0.000 A 
ATOM      9  H   UNL     1     -43.778  99.946   0.197  0.00  0.00    +0.000 HD
ENDROOT
BRANCH   3  10
ATOM     10  C1* UNL     1     -40.387 102.341   1.874  0.00  0.00    +0.000 A 
ATOM     11  O4* UNL     1     -39.362 101.890   2.714  0.00  0.00    +0.000 OA
ATOM     12  C4* UNL     1     -38.271 102.747   2.522  0.00  0.00    +0.000 A 
ATOM     13  C3* UNL     1     -38.623 103.745   1.542  0.00  0.00    +0.000 A 
ATOM     14  C2* UNL     1     -39.949 103.475   1.162  0.00  0.00    +0.000 A 
BRANCH  13  15
ATOM     15  O3* UNL     1     -38.078 104.997   1.587  0.00  0.00    +0.000 OA
ATOM     16  H3* UNL     1     -37.112 104.961   1.474  0.00  0.00    +0.000 HD
ENDBRANCH  13  15
BRANCH  12  17
ATOM     17  C5* UNL     1     -37.135 102.722   3.354  0.00  0.00    +0.000 C 
BRANCH  17  18
ATOM     18  O5* UNL     1     -36.065 102.699   4.143  0.00  0.00    +0.000 OA
ATOM     19  H5* UNL     1     -36.248 102.173   4.940  0.00  0.00    +0.000 HD
ENDBRANCH  17  18
ENDBRANCH  12  17
ENDBRANCH   3  10
BRANCH   7  20
ATOM     20  C   UNL     1     -44.423 101.646   4.401  0.00  0.00    +0.000 C 
ATOM     21  F   UNL     1     -44.812 100.486   4.986  0.00  0.00    +0.000 F 
ATOM     22  F   UNL     1     -43.728 102.332   5.350  0.00  0.00    +0.000 F 
ATOM     23  F   UNL     1     -45.541 102.374   4.156  0.00  0.00    +0.000 F 
ENDBRANCH   7  20
TORSDOF 5
ENDMDL
MODEL 8
REMARK VINA RESULT:      -5.3      4.353      6.401
REMARK  Name = Trifluridine.pdbqt.pdb
REMARK  5 active torsions:
REMARK  status: ('A' for Active; 'I' for Inactive)
REMARK    1  A    between atoms: N_3  and  C1*_10
REMARK    2  A    between atoms: C_7  and  C_20
REMARK    3  A    between atoms: C4*_12  and  C5*_15
REMARK    4  A    between atoms: C3*_13  and  O3*_18
REMARK    5  A    between atoms: C5*_15  and  O5*_16
REMARK                            x       y       z     vdW  Elec       q    Type
REMARK                         _______ _______ _______ _____ _____    ______ ____
ROOT
ATOM      1  O   UNL     1     -31.718 100.968  15.507  0.00  0.00    +0.000 OA
ATOM      2  O   UNL     1     -34.739 102.219  12.286  0.00  0.00    +0.000 OA
ATOM      3  N   UNL     1     -33.626  99.603  15.180  0.00  0.00    +0.000 N 
ATOM      4  N   UNL     1     -33.261 101.537  13.905  0.00  0.00    +0.000 N 
ATOM      5  C   UNL     1     -34.738  99.520  14.423  0.00  0.00    +0.000 A 
ATOM      6  C   UNL     1     -32.770 100.701  14.937  0.00  0.00    +0.000 A 
ATOM      7  C   UNL     1     -35.266 100.223  13.477  0.00  0.00    +0.000 A 
ATOM      8  C   UNL     1     -34.433 101.408  13.149  0.00  0.00    +0.000 A 
ATOM      9  H   UNL     1     -32.685 102.339  13.693  0.00  0.00    +0.000 HD
ENDROOT
BRANCH   3  10
ATOM     10  C1* UNL     1     -33.393  98.648  16.127  0.00  0.00    +0.000 A 
ATOM     11  O4* UNL     1     -34.434  97.987  16.788  0.00  0.00    +0.000 OA
ATOM     12  C4* UNL     1     -33.841  97.103  17.700  0.00  0.00    +0.000 A 
ATOM     13  C3* UNL     1     -32.408  97.215  17.601  0.00  0.00    +0.000 A 
ATOM     14  C2* UNL     1     -32.155  98.191  16.620  0.00  0.00    +0.000 A 
BRANCH  13  15
ATOM     15  O3* UNL     1     -31.608  96.994  18.686  0.00  0.00    +0.000 OA
ATOM     16  H3* UNL     1     -30.923  97.680  18.761  0.00  0.00    +0.000 HD
ENDBRANCH  13  15
BRANCH  12  17
ATOM     17  C5* UNL     1     -34.584  96.423  18.684  0.00  0.00    +0.000 C 
BRANCH  17  18
ATOM     18  O5* UNL     1     -35.289  95.785  19.613  0.00  0.00    +0.000 OA
ATOM     19  H5* UNL     1     -34.831  94.971  19.882  0.00  0.00    +0.000 HD
ENDBRANCH  17  18
ENDBRANCH  12  17
ENDBRANCH   3  10
BRANCH   7  20
ATOM     20  C   UNL     1     -36.524 100.029  12.742  0.00  0.00    +0.000 C 
ATOM     21  F   UNL     1     -36.324  99.766  11.427  0.00  0.00    +0.000 F 
ATOM     22  F   UNL     1     -37.234  98.976  13.233  0.00  0.00    +0.000 F 
ATOM     23  F   UNL     1     -37.344 101.106  12.823  0.00  0.00    +0.000 F 
ENDBRANCH   7  20
TORSDOF 5
ENDMDL
MODEL 9
REMARK VINA RESULT:      -5.2      2.384      2.983
REMARK  Name = Trifluridine.pdbqt.pdb
REMARK  5 active torsions:
REMARK  status: ('A' for Active; 'I' for Inactive)
REMARK    1  A    between atoms: N_3  and  C1*_10
REMARK    2  A    between atoms: C_7  and  C_20
REMARK    3  A    between atoms: C4*_12  and  C5*_15
REMARK    4  A    between atoms: C3*_13  and  O3*_18
REMARK    5  A    between atoms: C5*_15  and  O5*_16
REMARK                            x       y       z     vdW  Elec       q    Type
REMARK                         _______ _______ _______ _____ _____    ______ ____
ROOT
ATOM      1  O   UNL     1     -35.792  99.527  17.707  0.00  0.00    +0.000 OA
ATOM      2  O   UNL     1     -31.355  98.733  18.571  0.00  0.00    +0.000 OA
ATOM      3  N   UNL     1     -34.269  99.627  15.896  0.00  0.00    +0.000 N 
ATOM      4  N   UNL     1     -33.561  99.131  18.075  0.00  0.00    +0.000 N 
ATOM      5  C   UNL     1     -32.958  99.485  15.619  0.00  0.00    +0.000 A 
ATOM      6  C   UNL     1     -34.661  99.442  17.242  0.00  0.00    +0.000 A 
ATOM      7  C   UNL     1     -31.895  99.211  16.300  0.00  0.00    +0.000 A 
ATOM      8  C   UNL     1     -32.208  99.000  17.736  0.00  0.00    +0.000 A 
ATOM      9  H   UNL     1     -33.788  98.990  19.049  0.00  0.00    +0.000 HD
ENDROOT
BRANCH   3  10
ATOM     10  C1* UNL     1     -35.132  99.943  14.885  0.00  0.00    +0.000 A 
ATOM     11  O4* UNL     1     -36.516  99.779  15.012  0.00  0.00    +0.000 OA
ATOM     12  C4* UNL     1     -37.086 100.169  13.793  0.00  0.00    +0.000 A 
ATOM     13  C3* UNL     1     -36.038 100.585  12.895  0.00  0.00    +0.000 A 
ATOM     14  C2* UNL     1     -34.829 100.426  13.597  0.00  0.00    +0.000 A 
BRANCH  13  15
ATOM     15  O3* UNL     1     -36.166 100.429  11.544  0.00  0.00    +0.000 OA
ATOM     16  H3* UNL     1     -36.304  99.494  11.313  0.00  0.00    +0.000 HD
ENDBRANCH  13  15
BRANCH  12  17
ATOM     17  C5* UNL     1     -38.441  99.941  13.485  0.00  0.00    +0.000 C 
BRANCH  17  18
ATOM     18  O5* UNL     1     -39.721  99.722  13.199  0.00  0.00    +0.000 OA
ATOM     19  H5* UNL     1     -40.291 100.203  13.821  0.00  0.00    +0.000 HD
ENDBRANCH  17  18
ENDBRANCH  12  17
ENDBRANCH   3  10
BRANCH   7  20
ATOM     20  C   UNL     1     -30.494  99.113  15.868  0.00  0.00    +0.000 C 
ATOM     21  F   UNL     1     -30.334  99.398  14.552  0.00  0.00    +0.000 F 
ATOM     22  F   UNL     1     -29.698  99.986  16.543  0.00  0.00    +0.000 F 
ATOM     23  F   UNL     1     -29.969  97.881  16.085  0.00  0.00    +0.000 F 
ENDBRANCH   7  20
TORSDOF 5
ENDMDL
