MODEL 1
REMARK VINA RESULT:      -8.1      0.000      0.000
REMARK  Name = Troglitazone.pdbqt.pdb
REMARK  4 active torsions:
REMARK  status: ('A' for Active; 'I' for Inactive)
REMARK    1  A    between atoms: C_1  and  O_2
REMARK    2  A    between atoms: C_1  and  C_18
REMARK    3  A    between atoms: O_2  and  C_3
REMARK    4  A    between atoms: C_26  and  O_32
REMARK                            x       y       z     vdW  Elec       q    Type
REMARK                         _______ _______ _______ _____ _____    ______ ____
ROOT
ATOM      1  C   UNL     1     -23.529 101.566   5.123  0.00  0.00    +0.000 C 
ENDROOT
BRANCH   1   2
ATOM      2  C   UNL     1     -23.072 102.478   4.062  0.00  0.00    +0.000 C 
ATOM      3  O   UNL     1     -24.218 103.328   3.697  0.00  0.00    +0.000 OA
ATOM      4  C   UNL     1     -24.445 103.806   2.400  0.00  0.00    +0.000 A 
ATOM      5  C   UNL     1     -23.891 103.217   1.226  0.00  0.00    +0.000 A 
ATOM      6  C   UNL     1     -25.325 104.902   2.271  0.00  0.00    +0.000 A 
ATOM      7  C   UNL     1     -23.035 102.112   1.473  0.00  0.00    +0.000 C 
ATOM      8  C   UNL     1     -24.179 103.719  -0.049  0.00  0.00    +0.000 A 
ATOM      9  C   UNL     1     -22.648 101.756   2.869  0.00  0.00    +0.000 C 
ATOM     10  C   UNL     1     -25.040 104.821  -0.164  0.00  0.00    +0.000 A 
ATOM     11  C   UNL     1     -23.577 103.074  -1.280  0.00  0.00    +0.000 C 
ATOM     12  C   UNL     1     -25.611 105.408   0.984  0.00  0.00    +0.000 A 
ATOM     13  C   UNL     1     -26.547 106.591   0.735  0.00  0.00    +0.000 C 
ATOM     14  C   UNL     1     -25.951 105.493   3.528  0.00  0.00    +0.000 C 
ATOM     15  C   UNL     1     -21.955 103.426   4.566  0.00  0.00    +0.000 C 
BRANCH  10  16
ATOM     16  O   UNL     1     -25.342 105.335  -1.415  0.00  0.00    +0.000 OA
ATOM     17  H   UNL     1     -25.519 106.297  -1.316  0.00  0.00    +0.000 HD
ENDBRANCH  10  16
ENDBRANCH   1   2
BRANCH   1  18
ATOM     18  O   UNL     1     -23.934 100.734   6.085  0.00  0.00    +0.000 OA
BRANCH  18  19
ATOM     19  C   UNL     1     -23.022 100.536   7.092  0.00  0.00    +0.000 C 
ATOM     20  C   UNL     1     -21.780  99.921   6.924  0.00  0.00    +0.000 C 
ATOM     21  C   UNL     1     -20.918  99.771   8.008  0.00  0.00    +0.000 C 
ATOM     22  C   UNL     1     -21.298 100.237   9.264  0.00  0.00    +0.000 C 
ATOM     23  C   UNL     1     -22.536 100.852   9.438  0.00  0.00    +0.000 C 
ATOM     24  C   UNL     1     -23.396 101.002   8.352  0.00  0.00    +0.000 C 
ATOM     25  C   UNL     1     -20.418 100.087  10.373  0.00  0.00    +0.000 C 
ATOM     26  C   UNL     1     -19.553  99.934  11.480  0.00  0.00    +0.000 C 
ATOM     27  S   UNL     1     -17.843 100.135  11.430  0.00  0.00    +0.000 S 
ATOM     28  C   UNL     1     -17.684  99.780  13.138  0.00  0.00    +0.000 C 
ATOM     29  O   UNL     1     -16.625  99.775  13.743  0.00  0.00    +0.000 OA
ATOM     30  N   UNL     1     -18.904  99.522  13.671  0.00  0.00    +0.000 N 
ATOM     31  C   UNL     1     -19.990  99.588  12.849  0.00  0.00    +0.000 C 
ATOM     32  H   UNL     1     -19.004  99.301  14.650  0.00  0.00    +0.000 HD
ATOM     33  O   UNL     1     -21.142  99.395  13.197  0.00  0.00    +0.000 OA
ENDBRANCH  18  19
ENDBRANCH   1  18
TORSDOF 4
ENDMDL
MODEL 2
REMARK VINA RESULT:      -7.8      5.405     11.775
REMARK  Name = Troglitazone.pdbqt.pdb
REMARK  4 active torsions:
REMARK  status: ('A' for Active; 'I' for Inactive)
REMARK    1  A    between atoms: C_1  and  O_2
REMARK    2  A    between atoms: C_1  and  C_18
REMARK    3  A    between atoms: O_2  and  C_3
REMARK    4  A    between atoms: C_26  and  O_32
REMARK                            x       y       z     vdW  Elec       q    Type
REMARK                         _______ _______ _______ _____ _____    ______ ____
ROOT
ATOM      1  C   UNL     1     -24.285 102.436   3.979  0.00  0.00    +0.000 C 
ENDROOT
BRANCH   1   2
ATOM      2  C   UNL     1     -23.954 101.101   4.506  0.00  0.00    +0.000 C 
ATOM      3  O   UNL     1     -23.491 101.285   5.893  0.00  0.00    +0.000 OA
ATOM      4  C   UNL     1     -22.511 100.486   6.494  0.00  0.00    +0.000 A 
ATOM      5  C   UNL     1     -21.556  99.715   5.767  0.00  0.00    +0.000 A 
ATOM      6  C   UNL     1     -22.449 100.508   7.903  0.00  0.00    +0.000 A 
ATOM      7  C   UNL     1     -21.702  99.780   4.357  0.00  0.00    +0.000 C 
ATOM      8  C   UNL     1     -20.577  98.958   6.422  0.00  0.00    +0.000 A 
ATOM      9  C   UNL     1     -22.878 100.470   3.752  0.00  0.00    +0.000 C 
ATOM     10  C   UNL     1     -20.537  98.972   7.825  0.00  0.00    +0.000 A 
ATOM     11  C   UNL     1     -19.576  98.148   5.626  0.00  0.00    +0.000 C 
ATOM     12  C   UNL     1     -21.462  99.741   8.562  0.00  0.00    +0.000 A 
ATOM     13  C   UNL     1     -21.311  99.693  10.082  0.00  0.00    +0.000 C 
ATOM     14  C   UNL     1     -23.441 101.374   8.669  0.00  0.00    +0.000 C 
ATOM     15  C   UNL     1     -25.202 100.187   4.569  0.00  0.00    +0.000 C 
BRANCH  10  16
ATOM     16  O   UNL     1     -19.577  98.234   8.497  0.00  0.00    +0.000 OA
ATOM     17  H   UNL     1     -19.562  98.530   9.434  0.00  0.00    +0.000 HD
ENDBRANCH  10  16
ENDBRANCH   1   2
BRANCH   1  18
ATOM     18  O   UNL     1     -24.591 103.647   3.511  0.00  0.00    +0.000 OA
BRANCH  18  19
ATOM     19  C   UNL     1     -24.528 103.766   2.145  0.00  0.00    +0.000 C 
ATOM     20  C   UNL     1     -23.785 102.927   1.312  0.00  0.00    +0.000 C 
ATOM     21  C   UNL     1     -23.789 103.124  -0.067  0.00  0.00    +0.000 C 
ATOM     22  C   UNL     1     -24.538 104.161  -0.616  0.00  0.00    +0.000 C 
ATOM     23  C   UNL     1     -25.282 105.002   0.210  0.00  0.00    +0.000 C 
ATOM     24  C   UNL     1     -25.277 104.803   1.589  0.00  0.00    +0.000 C 
ATOM     25  C   UNL     1     -24.546 104.363  -2.025  0.00  0.00    +0.000 C 
ATOM     26  C   UNL     1     -24.551 104.574  -3.422  0.00  0.00    +0.000 C 
ATOM     27  S   UNL     1     -24.587 103.325  -4.608  0.00  0.00    +0.000 S 
ATOM     28  C   UNL     1     -24.583 104.481  -5.924  0.00  0.00    +0.000 C 
ATOM     29  O   UNL     1     -24.611 104.178  -7.105  0.00  0.00    +0.000 OA
ATOM     30  N   UNL     1     -24.549 105.744  -5.429  0.00  0.00    +0.000 N 
ATOM     31  C   UNL     1     -24.538 105.901  -4.074  0.00  0.00    +0.000 C 
ATOM     32  H   UNL     1     -24.546 106.541  -6.046  0.00  0.00    +0.000 HD
ATOM     33  O   UNL     1     -24.523 106.974  -3.496  0.00  0.00    +0.000 OA
ENDBRANCH  18  19
ENDBRANCH   1  18
TORSDOF 4
ENDMDL
MODEL 3
REMARK VINA RESULT:      -7.5     13.772     17.182
REMARK  Name = Troglitazone.pdbqt.pdb
REMARK  4 active torsions:
REMARK  status: ('A' for Active; 'I' for Inactive)
REMARK    1  A    between atoms: C_1  and  O_2
REMARK    2  A    between atoms: C_1  and  C_18
REMARK    3  A    between atoms: O_2  and  C_3
REMARK    4  A    between atoms: C_26  and  O_32
REMARK                            x       y       z     vdW  Elec       q    Type
REMARK                         _______ _______ _______ _____ _____    ______ ____
ROOT
ATOM      1  C   UNL     1     -35.178 104.810   3.131  0.00  0.00    +0.000 C 
ENDROOT
BRANCH   1   2
ATOM      2  C   UNL     1     -34.694 105.817   2.171  0.00  0.00    +0.000 C 
ATOM      3  O   UNL     1     -34.866 105.249   0.823  0.00  0.00    +0.000 OA
ATOM      4  C   UNL     1     -33.999 105.512  -0.244  0.00  0.00    +0.000 A 
ATOM      5  C   UNL     1     -32.659 105.975  -0.086  0.00  0.00    +0.000 A 
ATOM      6  C   UNL     1     -34.483 105.239  -1.540  0.00  0.00    +0.000 A 
ATOM      7  C   UNL     1     -32.272 106.200   1.261  0.00  0.00    +0.000 C 
ATOM      8  C   UNL     1     -31.825 106.190  -1.189  0.00  0.00    +0.000 A 
ATOM      9  C   UNL     1     -33.279 106.111   2.359  0.00  0.00    +0.000 C 
ATOM     10  C   UNL     1     -32.324 105.933  -2.476  0.00  0.00    +0.000 A 
ATOM     11  C   UNL     1     -30.406 106.682  -0.993  0.00  0.00    +0.000 C 
ATOM     12  C   UNL     1     -33.641 105.459  -2.653  0.00  0.00    +0.000 A 
ATOM     13  C   UNL     1     -34.070 105.199  -4.097  0.00  0.00    +0.000 C 
ATOM     14  C   UNL     1     -35.899 104.696  -1.696  0.00  0.00    +0.000 C 
ATOM     15  C   UNL     1     -35.544 107.110   2.224  0.00  0.00    +0.000 C 
BRANCH  10  16
ATOM     16  O   UNL     1     -31.519 106.136  -3.584  0.00  0.00    +0.000 OA
ATOM     17  H   UNL     1     -30.612 106.344  -3.270  0.00  0.00    +0.000 HD
ENDBRANCH  10  16
ENDBRANCH   1   2
BRANCH   1  18
ATOM     18  O   UNL     1     -35.609 103.901   4.007  0.00  0.00    +0.000 OA
BRANCH  18  19
ATOM     19  C   UNL     1     -36.869 103.417   3.758  0.00  0.00    +0.000 C 
ATOM     20  C   UNL     1     -37.712 102.871   4.728  0.00  0.00    +0.000 C 
ATOM     21  C   UNL     1     -38.980 102.412   4.379  0.00  0.00    +0.000 C 
ATOM     22  C   UNL     1     -39.406 102.497   3.056  0.00  0.00    +0.000 C 
ATOM     23  C   UNL     1     -38.570 103.040   2.083  0.00  0.00    +0.000 C 
ATOM     24  C   UNL     1     -37.303 103.501   2.435  0.00  0.00    +0.000 C 
ATOM     25  C   UNL     1     -40.702 102.029   2.696  0.00  0.00    +0.000 C 
ATOM     26  C   UNL     1     -41.984 101.559   2.331  0.00  0.00    +0.000 C 
ATOM     27  S   UNL     1     -43.412 101.760   3.273  0.00  0.00    +0.000 S 
ATOM     28  C   UNL     1     -44.393 100.926   2.085  0.00  0.00    +0.000 C 
ATOM     29  O   UNL     1     -45.594 100.742   2.192  0.00  0.00    +0.000 OA
ATOM     30  N   UNL     1     -43.619 100.529   1.044  0.00  0.00    +0.000 N 
ATOM     31  C   UNL     1     -42.291 100.835   1.080  0.00  0.00    +0.000 C 
ATOM     32  H   UNL     1     -44.019 100.036   0.261  0.00  0.00    +0.000 HD
ATOM     33  O   UNL     1     -41.485 100.554   0.209  0.00  0.00    +0.000 OA
ENDBRANCH  18  19
ENDBRANCH   1  18
TORSDOF 4
ENDMDL
MODEL 4
REMARK VINA RESULT:      -7.2     21.169     23.831
REMARK  Name = Troglitazone.pdbqt.pdb
REMARK  4 active torsions:
REMARK  status: ('A' for Active; 'I' for Inactive)
REMARK    1  A    between atoms: C_1  and  O_2
REMARK    2  A    between atoms: C_1  and  C_18
REMARK    3  A    between atoms: O_2  and  C_3
REMARK    4  A    between atoms: C_26  and  O_32
REMARK                            x       y       z     vdW  Elec       q    Type
REMARK                         _______ _______ _______ _____ _____    ______ ____
ROOT
ATOM      1  C   UNL     1     -47.080 101.805   5.110  0.00  0.00    +0.000 C 
ENDROOT
BRANCH   1   2
ATOM      2  C   UNL     1     -47.945 101.255   4.052  0.00  0.00    +0.000 C 
ATOM      3  O   UNL     1     -48.648 100.095   4.627  0.00  0.00    +0.000 OA
ATOM      4  C   UNL     1     -48.996  98.958   3.888  0.00  0.00    +0.000 A 
ATOM      5  C   UNL     1     -48.372  98.582   2.662  0.00  0.00    +0.000 A 
ATOM      6  C   UNL     1     -49.987  98.119   4.441  0.00  0.00    +0.000 A 
ATOM      7  C   UNL     1     -47.379  99.488   2.209  0.00  0.00    +0.000 C 
ATOM      8  C   UNL     1     -48.740  97.415   1.982  0.00  0.00    +0.000 A 
ATOM      9  C   UNL     1     -47.175 100.792   2.905  0.00  0.00    +0.000 C 
ATOM     10  C   UNL     1     -49.740  96.598   2.532  0.00  0.00    +0.000 A 
ATOM     11  C   UNL     1     -48.061  97.039   0.682  0.00  0.00    +0.000 C 
ATOM     12  C   UNL     1     -50.360  96.944   3.751  0.00  0.00    +0.000 A 
ATOM     13  C   UNL     1     -51.422  95.971   4.261  0.00  0.00    +0.000 C 
ATOM     14  C   UNL     1     -50.613  98.503   5.776  0.00  0.00    +0.000 C 
ATOM     15  C   UNL     1     -49.034 102.268   3.621  0.00  0.00    +0.000 C 
BRANCH  10  16
ATOM     16  O   UNL     1     -50.122  95.437   1.880  0.00  0.00    +0.000 OA
ATOM     17  H   UNL     1     -50.010  95.577   0.914  0.00  0.00    +0.000 HD
ENDBRANCH  10  16
ENDBRANCH   1   2
BRANCH   1  18
ATOM     18  O   UNL     1     -46.288 102.304   6.060  0.00  0.00    +0.000 OA
BRANCH  18  19
ATOM     19  C   UNL     1     -44.973 102.448   5.693  0.00  0.00    +0.000 C 
ATOM     20  C   UNL     1     -44.178 103.549   6.017  0.00  0.00    +0.000 C 
ATOM     21  C   UNL     1     -42.849 103.602   5.604  0.00  0.00    +0.000 C 
ATOM     22  C   UNL     1     -42.312 102.552   4.865  0.00  0.00    +0.000 C 
ATOM     23  C   UNL     1     -43.100 101.451   4.537  0.00  0.00    +0.000 C 
ATOM     24  C   UNL     1     -44.429 101.399   4.952  0.00  0.00    +0.000 C 
ATOM     25  C   UNL     1     -40.953 102.603   4.442  0.00  0.00    +0.000 C 
ATOM     26  C   UNL     1     -39.608 102.651   4.013  0.00  0.00    +0.000 C 
ATOM     27  S   UNL     1     -38.294 103.249   4.953  0.00  0.00    +0.000 S 
ATOM     28  C   UNL     1     -37.140 102.909   3.680  0.00  0.00    +0.000 C 
ATOM     29  O   UNL     1     -35.943 103.126   3.762  0.00  0.00    +0.000 OA
ATOM     30  N   UNL     1     -37.779 102.372   2.610  0.00  0.00    +0.000 N 
ATOM     31  C   UNL     1     -39.126 102.183   2.697  0.00  0.00    +0.000 C 
ATOM     32  H   UNL     1     -37.268 102.109   1.782  0.00  0.00    +0.000 HD
ATOM     33  O   UNL     1     -39.821 101.698   1.820  0.00  0.00    +0.000 OA
ENDBRANCH  18  19
ENDBRANCH   1  18
TORSDOF 4
ENDMDL
MODEL 5
REMARK VINA RESULT:      -7.1     18.447     21.812
REMARK  Name = Troglitazone.pdbqt.pdb
REMARK  4 active torsions:
REMARK  status: ('A' for Active; 'I' for Inactive)
REMARK    1  A    between atoms: C_1  and  O_2
REMARK    2  A    between atoms: C_1  and  C_18
REMARK    3  A    between atoms: O_2  and  C_3
REMARK    4  A    between atoms: C_26  and  O_32
REMARK                            x       y       z     vdW  Elec       q    Type
REMARK                         _______ _______ _______ _____ _____    ______ ____
ROOT
ATOM      1  C   UNL     1     -26.911  86.772  13.381  0.00  0.00    +0.000 C 
ENDROOT
BRANCH   1   2
ATOM      2  C   UNL     1     -27.229  87.275  14.728  0.00  0.00    +0.000 C 
ATOM      3  O   UNL     1     -28.487  86.632  15.145  0.00  0.00    +0.000 OA
ATOM      4  C   UNL     1     -29.444  87.257  15.954  0.00  0.00    +0.000 A 
ATOM      5  C   UNL     1     -29.550  88.670  16.116  0.00  0.00    +0.000 A 
ATOM      6  C   UNL     1     -30.384  86.419  16.590  0.00  0.00    +0.000 A 
ATOM      7  C   UNL     1     -28.565  89.415  15.418  0.00  0.00    +0.000 C 
ATOM      8  C   UNL     1     -30.549  89.241  16.914  0.00  0.00    +0.000 A 
ATOM      9  C   UNL     1     -27.436  88.718  14.735  0.00  0.00    +0.000 C 
ATOM     10  C   UNL     1     -31.467  88.396  17.557  0.00  0.00    +0.000 A 
ATOM     11  C   UNL     1     -30.639  90.744  17.069  0.00  0.00    +0.000 C 
ATOM     12  C   UNL     1     -31.389  86.997  17.397  0.00  0.00    +0.000 A 
ATOM     13  C   UNL     1     -32.452  86.179  18.131  0.00  0.00    +0.000 C 
ATOM     14  C   UNL     1     -30.293  84.914  16.371  0.00  0.00    +0.000 C 
ATOM     15  C   UNL     1     -26.152  86.861  15.760  0.00  0.00    +0.000 C 
BRANCH  10  16
ATOM     16  O   UNL     1     -32.466  88.936  18.351  0.00  0.00    +0.000 OA
ATOM     17  H   UNL     1     -33.305  88.469  18.147  0.00  0.00    +0.000 HD
ENDBRANCH  10  16
ENDBRANCH   1   2
BRANCH   1  18
ATOM     18  O   UNL     1     -26.634  86.315  12.159  0.00  0.00    +0.000 OA
BRANCH  18  19
ATOM     19  C   UNL     1     -27.452  85.301  11.727  0.00  0.00    +0.000 C 
ATOM     20  C   UNL     1     -28.277  85.375  10.603  0.00  0.00    +0.000 C 
ATOM     21  C   UNL     1     -29.068  84.287  10.240  0.00  0.00    +0.000 C 
ATOM     22  C   UNL     1     -29.035  83.123  11.002  0.00  0.00    +0.000 C 
ATOM     23  C   UNL     1     -28.214  83.042  12.125  0.00  0.00    +0.000 C 
ATOM     24  C   UNL     1     -27.423  84.131  12.485  0.00  0.00    +0.000 C 
ATOM     25  C   UNL     1     -29.842  82.009  10.632  0.00  0.00    +0.000 C 
ATOM     26  C   UNL     1     -30.647  80.903  10.275  0.00  0.00    +0.000 C 
ATOM     27  S   UNL     1     -30.931  80.371   8.662  0.00  0.00    +0.000 S 
ATOM     28  C   UNL     1     -31.946  79.050   9.205  0.00  0.00    +0.000 C 
ATOM     29  O   UNL     1     -32.481  78.245   8.462  0.00  0.00    +0.000 OA
ATOM     30  N   UNL     1     -32.035  79.064  10.558  0.00  0.00    +0.000 N 
ATOM     31  C   UNL     1     -31.355  80.032  11.236  0.00  0.00    +0.000 C 
ATOM     32  H   UNL     1     -32.578  78.369  11.047  0.00  0.00    +0.000 HD
ATOM     33  O   UNL     1     -31.335  80.152  12.449  0.00  0.00    +0.000 OA
ENDBRANCH  18  19
ENDBRANCH   1  18
TORSDOF 4
ENDMDL
MODEL 6
REMARK VINA RESULT:      -7.0      1.825      2.345
REMARK  Name = Troglitazone.pdbqt.pdb
REMARK  4 active torsions:
REMARK  status: ('A' for Active; 'I' for Inactive)
REMARK    1  A    between atoms: C_1  and  O_2
REMARK    2  A    between atoms: C_1  and  C_18
REMARK    3  A    between atoms: O_2  and  C_3
REMARK    4  A    between atoms: C_26  and  O_32
REMARK                            x       y       z     vdW  Elec       q    Type
REMARK                         _______ _______ _______ _____ _____    ______ ____
ROOT
ATOM      1  C   UNL     1     -24.144 102.333   3.702  0.00  0.00    +0.000 C 
ENDROOT
BRANCH   1   2
ATOM      2  C   UNL     1     -23.652 103.193   2.612  0.00  0.00    +0.000 C 
ATOM      3  O   UNL     1     -24.761 104.084   2.229  0.00  0.00    +0.000 OA
ATOM      4  C   UNL     1     -24.974 104.535   0.921  0.00  0.00    +0.000 A 
ATOM      5  C   UNL     1     -24.456 103.887  -0.239  0.00  0.00    +0.000 A 
ATOM      6  C   UNL     1     -25.803 105.666   0.765  0.00  0.00    +0.000 A 
ATOM      7  C   UNL     1     -23.651 102.751   0.035  0.00  0.00    +0.000 C 
ATOM      8  C   UNL     1     -24.729 104.365  -1.527  0.00  0.00    +0.000 A 
ATOM      9  C   UNL     1     -23.271 102.418   1.438  0.00  0.00    +0.000 C 
ATOM     10  C   UNL     1     -25.540 105.502  -1.669  0.00  0.00    +0.000 A 
ATOM     11  C   UNL     1     -24.166 103.658  -2.742  0.00  0.00    +0.000 C 
ATOM     12  C   UNL     1     -26.075 106.148  -0.535  0.00  0.00    +0.000 A 
ATOM     13  C   UNL     1     -26.956 107.366  -0.813  0.00  0.00    +0.000 C 
ATOM     14  C   UNL     1     -26.393 106.321   2.007  0.00  0.00    +0.000 C 
ATOM     15  C   UNL     1     -22.490 104.102   3.083  0.00  0.00    +0.000 C 
BRANCH  10  16
ATOM     16  O   UNL     1     -25.826 105.994  -2.932  0.00  0.00    +0.000 OA
ATOM     17  H   UNL     1     -26.030 105.233  -3.518  0.00  0.00    +0.000 HD
ENDBRANCH  10  16
ENDBRANCH   1   2
BRANCH   1  18
ATOM     18  O   UNL     1     -24.591 101.546   4.682  0.00  0.00    +0.000 OA
BRANCH  18  19
ATOM     19  C   UNL     1     -23.680 101.297   5.678  0.00  0.00    +0.000 C 
ATOM     20  C   UNL     1     -23.475 102.120   6.787  0.00  0.00    +0.000 C 
ATOM     21  C   UNL     1     -22.529 101.777   7.750  0.00  0.00    +0.000 C 
ATOM     22  C   UNL     1     -21.784 100.610   7.605  0.00  0.00    +0.000 C 
ATOM     23  C   UNL     1     -21.983  99.785   6.500  0.00  0.00    +0.000 C 
ATOM     24  C   UNL     1     -22.931 100.128   5.538  0.00  0.00    +0.000 C 
ATOM     25  C   UNL     1     -20.818 100.257   8.589  0.00  0.00    +0.000 C 
ATOM     26  C   UNL     1     -19.851  99.906   9.558  0.00  0.00    +0.000 C 
ATOM     27  S   UNL     1     -20.043 100.102  11.258  0.00  0.00    +0.000 S 
ATOM     28  C   UNL     1     -18.458  99.428  11.583  0.00  0.00    +0.000 C 
ATOM     29  O   UNL     1     -17.988  99.286  12.699  0.00  0.00    +0.000 OA
ATOM     30  N   UNL     1     -17.852  99.092  10.417  0.00  0.00    +0.000 N 
ATOM     31  C   UNL     1     -18.534  99.307   9.255  0.00  0.00    +0.000 C 
ATOM     32  H   UNL     1     -16.931  98.684  10.412  0.00  0.00    +0.000 HD
ATOM     33  O   UNL     1     -18.117  99.039   8.141  0.00  0.00    +0.000 OA
ENDBRANCH  18  19
ENDBRANCH   1  18
TORSDOF 4
ENDMDL
MODEL 7
REMARK VINA RESULT:      -7.0     18.771     21.311
REMARK  Name = Troglitazone.pdbqt.pdb
REMARK  4 active torsions:
REMARK  status: ('A' for Active; 'I' for Inactive)
REMARK    1  A    between atoms: C_1  and  O_2
REMARK    2  A    between atoms: C_1  and  C_18
REMARK    3  A    between atoms: O_2  and  C_3
REMARK    4  A    between atoms: C_26  and  O_32
REMARK                            x       y       z     vdW  Elec       q    Type
REMARK                         _______ _______ _______ _____ _____    ______ ____
ROOT
ATOM      1  C   UNL     1     -31.381  86.970  -7.807  0.00  0.00    +0.000 C 
ENDROOT
BRANCH   1   2
ATOM      2  C   UNL     1     -32.196  85.962  -7.107  0.00  0.00    +0.000 C 
ATOM      3  O   UNL     1     -33.245  86.688  -6.371  0.00  0.00    +0.000 OA
ATOM      4  C   UNL     1     -33.761  86.264  -5.140  0.00  0.00    +0.000 A 
ATOM      5  C   UNL     1     -33.082  85.374  -4.256  0.00  0.00    +0.000 A 
ATOM      6  C   UNL     1     -35.001  86.810  -4.748  0.00  0.00    +0.000 A 
ATOM      7  C   UNL     1     -31.837  84.900  -4.745  0.00  0.00    +0.000 C 
ATOM      8  C   UNL     1     -33.633  85.008  -3.022  0.00  0.00    +0.000 A 
ATOM      9  C   UNL     1     -31.411  85.203  -6.142  0.00  0.00    +0.000 C 
ATOM     10  C   UNL     1     -34.876  85.543  -2.650  0.00  0.00    +0.000 A 
ATOM     11  C   UNL     1     -32.891  84.061  -2.103  0.00  0.00    +0.000 C 
ATOM     12  C   UNL     1     -35.556  86.438  -3.503  0.00  0.00    +0.000 A 
ATOM     13  C   UNL     1     -36.893  86.968  -2.986  0.00  0.00    +0.000 C 
ATOM     14  C   UNL     1     -35.695  87.799  -5.676  0.00  0.00    +0.000 C 
ATOM     15  C   UNL     1     -32.917  85.021  -8.103  0.00  0.00    +0.000 C 
BRANCH  10  16
ATOM     16  O   UNL     1     -35.441  85.200  -1.433  0.00  0.00    +0.000 OA
ATOM     17  H   UNL     1     -34.878  85.568  -0.718  0.00  0.00    +0.000 HD
ENDBRANCH  10  16
ENDBRANCH   1   2
BRANCH   1  18
ATOM     18  O   UNL     1     -30.649  87.882  -8.450  0.00  0.00    +0.000 OA
BRANCH  18  19
ATOM     19  C   UNL     1     -29.394  88.078  -7.931  0.00  0.00    +0.000 C 
ATOM     20  C   UNL     1     -28.600  87.070  -7.379  0.00  0.00    +0.000 C 
ATOM     21  C   UNL     1     -27.333  87.367  -6.883  0.00  0.00    +0.000 C 
ATOM     22  C   UNL     1     -26.856  88.674  -6.939  0.00  0.00    +0.000 C 
ATOM     23  C   UNL     1     -27.643  89.684  -7.488  0.00  0.00    +0.000 C 
ATOM     24  C   UNL     1     -28.910  89.385  -7.984  0.00  0.00    +0.000 C 
ATOM     25  C   UNL     1     -25.560  88.979  -6.434  0.00  0.00    +0.000 C 
ATOM     26  C   UNL     1     -24.278  89.291  -5.927  0.00  0.00    +0.000 C 
ATOM     27  S   UNL     1     -22.881  88.300  -6.106  0.00  0.00    +0.000 S 
ATOM     28  C   UNL     1     -21.878  89.440  -5.231  0.00  0.00    +0.000 C 
ATOM     29  O   UNL     1     -20.687  89.286  -5.019  0.00  0.00    +0.000 OA
ATOM     30  N   UNL     1     -22.624  90.503  -4.839  0.00  0.00    +0.000 N 
ATOM     31  C   UNL     1     -23.944  90.519  -5.177  0.00  0.00    +0.000 C 
ATOM     32  H   UNL     1     -22.208  91.263  -4.324  0.00  0.00    +0.000 HD
ATOM     33  O   UNL     1     -24.724  91.416  -4.903  0.00  0.00    +0.000 OA
ENDBRANCH  18  19
ENDBRANCH   1  18
TORSDOF 4
ENDMDL
MODEL 8
REMARK VINA RESULT:      -6.8      6.839     12.207
REMARK  Name = Troglitazone.pdbqt.pdb
REMARK  4 active torsions:
REMARK  status: ('A' for Active; 'I' for Inactive)
REMARK    1  A    between atoms: C_1  and  O_2
REMARK    2  A    between atoms: C_1  and  C_18
REMARK    3  A    between atoms: O_2  and  C_3
REMARK    4  A    between atoms: C_26  and  O_32
REMARK                            x       y       z     vdW  Elec       q    Type
REMARK                         _______ _______ _______ _____ _____    ______ ____
ROOT
ATOM      1  C   UNL     1     -23.758 105.871   1.591  0.00  0.00    +0.000 C 
ENDROOT
BRANCH   1   2
ATOM      2  C   UNL     1     -23.646 105.099   2.841  0.00  0.00    +0.000 C 
ATOM      3  O   UNL     1     -22.559 104.122   2.651  0.00  0.00    +0.000 OA
ATOM      4  C   UNL     1     -22.555 102.848   3.232  0.00  0.00    +0.000 A 
ATOM      5  C   UNL     1     -23.727 102.179   3.694  0.00  0.00    +0.000 A 
ATOM      6  C   UNL     1     -21.312 102.183   3.298  0.00  0.00    +0.000 A 
ATOM      7  C   UNL     1     -24.921 102.934   3.563  0.00  0.00    +0.000 C 
ATOM      8  C   UNL     1     -23.666 100.890   4.237  0.00  0.00    +0.000 A 
ATOM      9  C   UNL     1     -24.868 104.362   3.136  0.00  0.00    +0.000 C 
ATOM     10  C   UNL     1     -22.422 100.246   4.315  0.00  0.00    +0.000 A 
ATOM     11  C   UNL     1     -24.926 100.203   4.721  0.00  0.00    +0.000 C 
ATOM     12  C   UNL     1     -21.253 100.884   3.849  0.00  0.00    +0.000 A 
ATOM     13  C   UNL     1     -19.959 100.080   3.969  0.00  0.00    +0.000 C 
ATOM     14  C   UNL     1     -20.074 102.886   2.755  0.00  0.00    +0.000 C 
ATOM     15  C   UNL     1     -23.235 105.999   4.032  0.00  0.00    +0.000 C 
BRANCH  10  16
ATOM     16  O   UNL     1     -22.335  98.970   4.847  0.00  0.00    +0.000 OA
ATOM     17  H   UNL     1     -23.087  98.442   4.499  0.00  0.00    +0.000 HD
ENDBRANCH  10  16
ENDBRANCH   1   2
BRANCH   1  18
ATOM     18  O   UNL     1     -23.867 106.563   0.456  0.00  0.00    +0.000 OA
BRANCH  18  19
ATOM     19  C   UNL     1     -23.917 105.795  -0.681  0.00  0.00    +0.000 C 
ATOM     20  C   UNL     1     -24.339 104.464  -0.719  0.00  0.00    +0.000 C 
ATOM     21  C   UNL     1     -24.360 103.769  -1.925  0.00  0.00    +0.000 C 
ATOM     22  C   UNL     1     -23.959 104.404  -3.097  0.00  0.00    +0.000 C 
ATOM     23  C   UNL     1     -23.537 105.731  -3.067  0.00  0.00    +0.000 C 
ATOM     24  C   UNL     1     -23.517 106.426  -1.859  0.00  0.00    +0.000 C 
ATOM     25  C   UNL     1     -23.982 103.695  -4.332  0.00  0.00    +0.000 C 
ATOM     26  C   UNL     1     -23.995 102.995  -5.559  0.00  0.00    +0.000 C 
ATOM     27  S   UNL     1     -25.220 101.887  -6.050  0.00  0.00    +0.000 S 
ATOM     28  C   UNL     1     -24.424 101.581  -7.581  0.00  0.00    +0.000 C 
ATOM     29  O   UNL     1     -24.851 100.826  -8.438  0.00  0.00    +0.000 OA
ATOM     30  N   UNL     1     -23.281 102.308  -7.660  0.00  0.00    +0.000 N 
ATOM     31  C   UNL     1     -22.963 103.118  -6.610  0.00  0.00    +0.000 C 
ATOM     32  H   UNL     1     -22.694 102.259  -8.478  0.00  0.00    +0.000 HD
ATOM     33  O   UNL     1     -21.978 103.834  -6.555  0.00  0.00    +0.000 OA
ENDBRANCH  18  19
ENDBRANCH   1  18
TORSDOF 4
ENDMDL
MODEL 9
REMARK VINA RESULT:      -6.8     16.179     17.909
REMARK  Name = Troglitazone.pdbqt.pdb
REMARK  4 active torsions:
REMARK  status: ('A' for Active; 'I' for Inactive)
REMARK    1  A    between atoms: C_1  and  O_2
REMARK    2  A    between atoms: C_1  and  C_18
REMARK    3  A    between atoms: O_2  and  C_3
REMARK    4  A    between atoms: C_26  and  O_32
REMARK                            x       y       z     vdW  Elec       q    Type
REMARK                         _______ _______ _______ _____ _____    ______ ____
ROOT
ATOM      1  C   UNL     1     -39.038 101.562  13.349  0.00  0.00    +0.000 C 
ENDROOT
BRANCH   1   2
ATOM      2  C   UNL     1     -39.876 102.573  14.018  0.00  0.00    +0.000 C 
ATOM      3  O   UNL     1     -41.099 102.724  13.210  0.00  0.00    +0.000 OA
ATOM      4  C   UNL     1     -41.789 103.935  13.072  0.00  0.00    +0.000 A 
ATOM      5  C   UNL     1     -41.207 105.215  13.307  0.00  0.00    +0.000 A 
ATOM      6  C   UNL     1     -43.122 103.859  12.616  0.00  0.00    +0.000 A 
ATOM      7  C   UNL     1     -39.858 105.173  13.746  0.00  0.00    +0.000 C 
ATOM      8  C   UNL     1     -41.936 106.396  13.121  0.00  0.00    +0.000 A 
ATOM      9  C   UNL     1     -39.215 103.870  14.083  0.00  0.00    +0.000 C 
ATOM     10  C   UNL     1     -43.267 106.307  12.685  0.00  0.00    +0.000 A 
ATOM     11  C   UNL     1     -41.293 107.742  13.378  0.00  0.00    +0.000 C 
ATOM     12  C   UNL     1     -43.857 105.050  12.432  0.00  0.00    +0.000 A 
ATOM     13  C   UNL     1     -45.306 105.078  11.945  0.00  0.00    +0.000 C 
ATOM     14  C   UNL     1     -43.719 102.489  12.320  0.00  0.00    +0.000 C 
ATOM     15  C   UNL     1     -40.324 102.103  15.424  0.00  0.00    +0.000 C 
BRANCH  10  16
ATOM     16  O   UNL     1     -44.011 107.460  12.492  0.00  0.00    +0.000 OA
ATOM     17  H   UNL     1     -43.434 108.128  12.062  0.00  0.00    +0.000 HD
ENDBRANCH  10  16
ENDBRANCH   1   2
BRANCH   1  18
ATOM     18  O   UNL     1     -38.276 100.644  12.754  0.00  0.00    +0.000 OA
BRANCH  18  19
ATOM     19  C   UNL     1     -37.017 100.512  13.285  0.00  0.00    +0.000 C 
ATOM     20  C   UNL     1     -35.961 101.395  13.044  0.00  0.00    +0.000 C 
ATOM     21  C   UNL     1     -34.719 101.181  13.636  0.00  0.00    +0.000 C 
ATOM     22  C   UNL     1     -34.529 100.083  14.469  0.00  0.00    +0.000 C 
ATOM     23  C   UNL     1     -35.577  99.198  14.713  0.00  0.00    +0.000 C 
ATOM     24  C   UNL     1     -36.820  99.414  14.122  0.00  0.00    +0.000 C 
ATOM     25  C   UNL     1     -33.259  99.863  15.076  0.00  0.00    +0.000 C 
ATOM     26  C   UNL     1     -32.000  99.634  15.675  0.00  0.00    +0.000 C 
ATOM     27  S   UNL     1     -30.977 100.862  16.317  0.00  0.00    +0.000 S 
ATOM     28  C   UNL     1     -29.765  99.693  16.802  0.00  0.00    +0.000 C 
ATOM     29  O   UNL     1     -28.722  99.978  17.365  0.00  0.00    +0.000 OA
ATOM     30  N   UNL     1     -30.169  98.443  16.462  0.00  0.00    +0.000 N 
ATOM     31  C   UNL     1     -31.379  98.305  15.849  0.00  0.00    +0.000 C 
ATOM     32  H   UNL     1     -29.595  97.641  16.670  0.00  0.00    +0.000 HD
ATOM     33  O   UNL     1     -31.869  97.243  15.504  0.00  0.00    +0.000 OA
ENDBRANCH  18  19
ENDBRANCH   1  18
TORSDOF 4
ENDMDL
