MODEL 1
REMARK VINA RESULT:      -6.8      0.000      0.000
REMARK  Name = 
REMARK  19 active torsions:
REMARK  status: ('A' for Active; 'I' for Inactive)
REMARK    1  A    between atoms: O_1  and  C_20
REMARK    2  A    between atoms: O_1  and  C_36
REMARK    3  A    between atoms: O_2  and  C_18
REMARK    4  A    between atoms: O_3  and  C_28
REMARK    5  A    between atoms: O_3  and  C_42
REMARK    6  A    between atoms: O_5  and  C_34
REMARK    7  A    between atoms: O_5  and  C_50
REMARK    8  A    between atoms: O_7  and  C_40
REMARK    9  A    between atoms: O_7  and  C_56
REMARK   10  A    between atoms: O_9  and  C_46
REMARK   11  A    between atoms: N_11  and  C_30
REMARK   12  A    between atoms: C_17  and  C_23
REMARK   13  A    between atoms: C_18  and  C_28
REMARK   14  A    between atoms: C_23  and  C_32
REMARK   15  A    between atoms: C_33  and  C_35
REMARK   16  A    between atoms: C_35  and  C_40
REMARK   17  A    between atoms: C_36  and  C_41
REMARK   18  A    between atoms: C_46  and  C_53
REMARK   19  A    between atoms: C_53  and  C_57
REMARK                            x       y       z     vdW  Elec       q    Type
REMARK                         _______ _______ _______ _____ _____    ______ ____
ROOT
ATOM      1  N   UNL     1     -33.315 100.187  16.803  0.00  0.00    +0.000 NA
ATOM      2  N   UNL     1     -30.002 103.495  17.726  0.00  0.00    +0.000 N 
ATOM      3  C   UNL     1     -31.669 101.780  17.238  0.00  0.00    +0.000 C 
ATOM      4  C   UNL     1     -31.972 100.573  16.332  0.00  0.00    +0.000 C 
ATOM      5  C   UNL     1     -30.161 102.096  17.230  0.00  0.00    +0.000 C 
ATOM      6  C   UNL     1     -30.836  99.449  16.358  0.00  0.00    +0.000 C 
ATOM      7  C   UNL     1     -29.242 101.004  17.802  0.00  0.00    +0.000 C 
ATOM      8  C   UNL     1     -32.389 101.473  18.566  0.00  0.00    +0.000 C 
ATOM      9  C   UNL     1     -29.855  99.578  17.606  0.00  0.00    +0.000 C 
ATOM     10  C   UNL     1     -32.138 103.154  16.799  0.00  0.00    +0.000 A 
ATOM     11  C   UNL     1     -33.347 100.326  18.253  0.00  0.00    +0.000 C 
ATOM     12  C   UNL     1     -31.167 104.098  17.160  0.00  0.00    +0.000 A 
ATOM     13  C   UNL     1     -31.438  98.042  16.385  0.00  0.00    +0.000 C 
ATOM     14  C   UNL     1     -33.784  98.897  16.319  0.00  0.00    +0.000 C 
ATOM     15  C   UNL     1     -32.758  97.811  16.354  0.00  0.00    +0.000 C 
ATOM     16  C   UNL     1     -33.335 103.522  16.194  0.00  0.00    +0.000 A 
ATOM     17  C   UNL     1     -28.750 104.184  17.416  0.00  0.00    +0.000 C 
ATOM     18  C   UNL     1     -31.411 105.442  16.949  0.00  0.00    +0.000 A 
ATOM     19  C   UNL     1     -33.612 104.883  15.961  0.00  0.00    +0.000 A 
ATOM     20  C   UNL     1     -32.627 105.832  16.363  0.00  0.00    +0.000 A 
ENDROOT
BRANCH  19  23
ATOM     21  N   UNL     1     -38.270 107.001  13.065  0.00  0.00    +0.000 NA
ATOM     22  N   UNL     1     -35.023 103.034  14.292  0.00  0.00    +0.000 N 
ATOM     23  C   UNL     1     -34.968 105.360  15.301  0.00  0.00    +0.000 C 
ATOM     24  C   UNL     1     -34.703 106.392  14.112  0.00  0.00    +0.000 C 
ATOM     25  C   UNL     1     -35.746 104.146  14.689  0.00  0.00    +0.000 A 
ATOM     26  C   UNL     1     -35.877 106.672  13.159  0.00  0.00    +0.000 C 
ATOM     27  C   UNL     1     -35.532 107.541  11.951  0.00  0.00    +0.000 C 
ATOM     28  C   UNL     1     -37.077 107.328  13.826  0.00  0.00    +0.000 C 
ATOM     29  C   UNL     1     -37.080 103.895  14.321  0.00  0.00    +0.000 A 
ATOM     30  C   UNL     1     -36.764 107.745  11.019  0.00  0.00    +0.000 C 
ATOM     31  C   UNL     1     -38.184 107.527  11.685  0.00  0.00    +0.000 C 
ATOM     32  C   UNL     1     -38.327 104.761  14.412  0.00  0.00    +0.000 C 
ATOM     33  C   UNL     1     -38.641 105.563  13.113  0.00  0.00    +0.000 C 
ATOM     34  C   UNL     1     -37.115 102.572  13.742  0.00  0.00    +0.000 A 
ATOM     35  C   UNL     1     -35.822 102.070  13.742  0.00  0.00    +0.000 A 
ATOM     36  C   UNL     1     -38.140 101.764  13.199  0.00  0.00    +0.000 A 
ATOM     37  C   UNL     1     -35.489 100.805  13.242  0.00  0.00    +0.000 A 
ATOM     38  C   UNL     1     -37.831 100.496  12.695  0.00  0.00    +0.000 A 
ATOM     39  C   UNL     1     -36.522 100.024  12.717  0.00  0.00    +0.000 A 
ATOM     40  H   UNL     1     -34.024 102.927  14.409  0.00  0.00    +0.000 HD
BRANCH  23  42
ATOM     41  O   UNL     1     -35.959 107.251  16.612  0.00  0.00    +0.000 OA
ATOM     42  C   UNL     1     -35.762 106.052  16.458  0.00  0.00    +0.000 C 
BRANCH  42  43
ATOM     43  O   UNL     1     -36.268 105.100  17.312  0.00  0.00    +0.000 OA
ATOM     44  C   UNL     1     -36.098 105.415  18.694  0.00  0.00    +0.000 C 
ENDBRANCH  42  43
ENDBRANCH  23  42
BRANCH  30  45
ATOM     45  O   UNL     1     -36.697 109.130  10.596  0.00  0.00    +0.000 OA
ATOM     46  H   UNL     1     -36.703 109.136   9.622  0.00  0.00    +0.000 HD
ENDBRANCH  30  45
BRANCH  30  47
ATOM     47  C   UNL     1     -36.617 106.948   9.701  0.00  0.00    +0.000 C 
ATOM     48  C   UNL     1     -35.900 107.649   8.560  0.00  0.00    +0.000 C 
ENDBRANCH  30  47
ENDBRANCH  19  23
BRANCH   7  49
ATOM     49  O   UNL     1     -28.032 101.040  16.978  0.00  0.00    +0.000 OA
ATOM     50  H   UNL     1     -28.338 100.997  16.049  0.00  0.00    +0.000 HD
ENDBRANCH   7  49
BRANCH   7  52
ATOM     51  O   UNL     1     -29.462 101.944  20.090  0.00  0.00    +0.000 OA
ATOM     52  C   UNL     1     -28.840 101.279  19.273  0.00  0.00    +0.000 C 
BRANCH  52  53
ATOM     53  O   UNL     1     -27.691 100.589  19.573  0.00  0.00    +0.000 OA
ATOM     54  C   UNL     1     -27.640 100.105  20.917  0.00  0.00    +0.000 C 
ENDBRANCH  52  53
ENDBRANCH   7  52
BRANCH  20  55
ATOM     55  O   UNL     1     -32.883 107.154  16.097  0.00  0.00    +0.000 OA
ATOM     56  C   UNL     1     -31.758 108.022  16.199  0.00  0.00    +0.000 C 
ENDBRANCH  20  55
BRANCH   6  57
ATOM     57  C   UNL     1     -29.980  99.532  15.041  0.00  0.00    +0.000 C 
ATOM     58  C   UNL     1     -30.495 100.472  13.950  0.00  0.00    +0.000 C 
ENDBRANCH   6  57
BRANCH   9  59
ATOM     59  O   UNL     1     -30.561  99.122  18.785  0.00  0.00    +0.000 OA
BRANCH  59  61
ATOM     60  O   UNL     1     -29.117  97.392  19.200  0.00  0.00    +0.000 OA
ATOM     61  C   UNL     1     -30.228  97.897  19.275  0.00  0.00    +0.000 C 
ATOM     62  C   UNL     1     -31.410  97.273  19.949  0.00  0.00    +0.000 C 
ENDBRANCH  59  61
ENDBRANCH   9  59
TORSDOF 12
ENDMDL
MODEL 2
REMARK VINA RESULT:      -6.6     13.020     18.123
REMARK  Name = 
REMARK  19 active torsions:
REMARK  status: ('A' for Active; 'I' for Inactive)
REMARK    1  A    between atoms: O_1  and  C_20
REMARK    2  A    between atoms: O_1  and  C_36
REMARK    3  A    between atoms: O_2  and  C_18
REMARK    4  A    between atoms: O_3  and  C_28
REMARK    5  A    between atoms: O_3  and  C_42
REMARK    6  A    between atoms: O_5  and  C_34
REMARK    7  A    between atoms: O_5  and  C_50
REMARK    8  A    between atoms: O_7  and  C_40
REMARK    9  A    between atoms: O_7  and  C_56
REMARK   10  A    between atoms: O_9  and  C_46
REMARK   11  A    between atoms: N_11  and  C_30
REMARK   12  A    between atoms: C_17  and  C_23
REMARK   13  A    between atoms: C_18  and  C_28
REMARK   14  A    between atoms: C_23  and  C_32
REMARK   15  A    between atoms: C_33  and  C_35
REMARK   16  A    between atoms: C_35  and  C_40
REMARK   17  A    between atoms: C_36  and  C_41
REMARK   18  A    between atoms: C_46  and  C_53
REMARK   19  A    between atoms: C_53  and  C_57
REMARK                            x       y       z     vdW  Elec       q    Type
REMARK                         _______ _______ _______ _____ _____    ______ ____
ROOT
ATOM      1  N   UNL     1     -43.196 100.992   2.387  0.00  0.00    +0.000 NA
ATOM      2  N   UNL     1     -43.633 104.792   5.241  0.00  0.00    +0.000 N 
ATOM      3  C   UNL     1     -43.390 102.870   3.756  0.00  0.00    +0.000 C 
ATOM      4  C   UNL     1     -43.152 102.463   2.291  0.00  0.00    +0.000 C 
ATOM      5  C   UNL     1     -42.970 104.336   3.984  0.00  0.00    +0.000 C 
ATOM      6  C   UNL     1     -41.841 103.115   1.648  0.00  0.00    +0.000 C 
ATOM      7  C   UNL     1     -41.477 104.646   3.784  0.00  0.00    +0.000 C 
ATOM      8  C   UNL     1     -42.753 101.743   4.592  0.00  0.00    +0.000 C 
ATOM      9  C   UNL     1     -40.827 103.686   2.734  0.00  0.00    +0.000 C 
ATOM     10  C   UNL     1     -44.817 103.019   4.246  0.00  0.00    +0.000 A 
ATOM     11  C   UNL     1     -42.515 100.596   3.614  0.00  0.00    +0.000 C 
ATOM     12  C   UNL     1     -44.878 104.099   5.137  0.00  0.00    +0.000 A 
ATOM     13  C   UNL     1     -41.078 102.107   0.785  0.00  0.00    +0.000 C 
ATOM     14  C   UNL     1     -42.738 100.288   1.199  0.00  0.00    +0.000 C 
ATOM     15  C   UNL     1     -41.498 100.851   0.583  0.00  0.00    +0.000 C 
ATOM     16  C   UNL     1     -45.929 102.231   3.965  0.00  0.00    +0.000 A 
ATOM     17  C   UNL     1     -43.757 106.233   5.455  0.00  0.00    +0.000 C 
ATOM     18  C   UNL     1     -46.062 104.375   5.794  0.00  0.00    +0.000 A 
ATOM     19  C   UNL     1     -47.152 102.490   4.614  0.00  0.00    +0.000 A 
ATOM     20  C   UNL     1     -47.187 103.573   5.542  0.00  0.00    +0.000 A 
ENDROOT
BRANCH  19  23
ATOM     21  N   UNL     1     -51.521  98.743   3.410  0.00  0.00    +0.000 NA
ATOM     22  N   UNL     1     -48.389 101.212   6.858  0.00  0.00    +0.000 N 
ATOM     23  C   UNL     1     -48.440 101.611   4.354  0.00  0.00    +0.000 C 
ATOM     24  C   UNL     1     -48.067 100.231   3.641  0.00  0.00    +0.000 C 
ATOM     25  C   UNL     1     -49.151 101.252   5.703  0.00  0.00    +0.000 A 
ATOM     26  C   UNL     1     -49.146  99.136   3.639  0.00  0.00    +0.000 C 
ATOM     27  C   UNL     1     -48.690  97.786   3.086  0.00  0.00    +0.000 C 
ATOM     28  C   UNL     1     -50.407  99.505   2.872  0.00  0.00    +0.000 C 
ATOM     29  C   UNL     1     -50.443 100.837   6.074  0.00  0.00    +0.000 A 
ATOM     30  C   UNL     1     -49.828  96.724   3.154  0.00  0.00    +0.000 C 
ATOM     31  C   UNL     1     -51.305  97.290   3.240  0.00  0.00    +0.000 C 
ATOM     32  C   UNL     1     -51.696 100.595   5.248  0.00  0.00    +0.000 C 
ATOM     33  C   UNL     1     -51.887  99.114   4.802  0.00  0.00    +0.000 C 
ATOM     34  C   UNL     1     -50.416 100.605   7.500  0.00  0.00    +0.000 A 
ATOM     35  C   UNL     1     -49.127 100.849   7.950  0.00  0.00    +0.000 A 
ATOM     36  C   UNL     1     -51.380 100.189   8.445  0.00  0.00    +0.000 A 
ATOM     37  C   UNL     1     -48.742 100.712   9.290  0.00  0.00    +0.000 A 
ATOM     38  C   UNL     1     -51.019 100.047   9.790  0.00  0.00    +0.000 A 
ATOM     39  C   UNL     1     -49.717 100.306  10.204  0.00  0.00    +0.000 A 
ATOM     40  H   UNL     1     -47.405 101.443   6.904  0.00  0.00    +0.000 HD
BRANCH  23  42
ATOM     41  O   UNL     1     -50.315 103.156   3.742  0.00  0.00    +0.000 OA
ATOM     42  C   UNL     1     -49.345 102.481   3.420  0.00  0.00    +0.000 C 
BRANCH  42  43
ATOM     43  O   UNL     1     -48.879 102.419   2.127  0.00  0.00    +0.000 OA
ATOM     44  C   UNL     1     -48.775 103.690   1.488  0.00  0.00    +0.000 C 
ENDBRANCH  42  43
ENDBRANCH  23  42
BRANCH  30  45
ATOM     45  O   UNL     1     -49.727  95.977   1.916  0.00  0.00    +0.000 OA
ATOM     46  H   UNL     1     -50.498  95.384   1.871  0.00  0.00    +0.000 HD
ENDBRANCH  30  45
BRANCH  30  47
ATOM     47  C   UNL     1     -49.553  95.665   4.248  0.00  0.00    +0.000 C 
ATOM     48  C   UNL     1     -50.591  94.568   4.407  0.00  0.00    +0.000 C 
ENDBRANCH  30  47
ENDBRANCH  19  23
BRANCH   7  49
ATOM     49  O   UNL     1     -41.433 105.984   3.190  0.00  0.00    +0.000 OA
ATOM     50  H   UNL     1     -41.347 106.609   3.939  0.00  0.00    +0.000 HD
ENDBRANCH   7  49
BRANCH   7  52
ATOM     51  O   UNL     1     -40.739 103.846   6.016  0.00  0.00    +0.000 OA
ATOM     52  C   UNL     1     -40.696 104.679   5.121  0.00  0.00    +0.000 C 
BRANCH  52  53
ATOM     53  O   UNL     1     -39.859 105.768   5.139  0.00  0.00    +0.000 OA
ATOM     54  C   UNL     1     -38.513 105.459   5.506  0.00  0.00    +0.000 C 
ENDBRANCH  52  53
ENDBRANCH   7  52
BRANCH  20  55
ATOM     55  O   UNL     1     -48.391 103.847   6.141  0.00  0.00    +0.000 OA
ATOM     56  C   UNL     1     -48.753 105.225   6.171  0.00  0.00    +0.000 C 
ENDBRANCH  20  55
BRANCH   6  57
ATOM     57  C   UNL     1     -42.253 104.289   0.684  0.00  0.00    +0.000 C 
ATOM     58  C   UNL     1     -43.725 104.349   0.271  0.00  0.00    +0.000 C 
ENDBRANCH   6  57
BRANCH   9  59
ATOM     59  O   UNL     1     -40.159 102.565   3.362  0.00  0.00    +0.000 OA
BRANCH  59  61
ATOM     60  O   UNL     1     -38.110 101.976   4.201  0.00  0.00    +0.000 OA
ATOM     61  C   UNL     1     -38.800 102.595   3.402  0.00  0.00    +0.000 C 
ATOM     62  C   UNL     1     -38.269 103.465   2.306  0.00  0.00    +0.000 C 
ENDBRANCH  59  61
ENDBRANCH   9  59
TORSDOF 12
ENDMDL
MODEL 3
REMARK VINA RESULT:      -6.3      2.117      3.945
REMARK  Name = 
REMARK  19 active torsions:
REMARK  status: ('A' for Active; 'I' for Inactive)
REMARK    1  A    between atoms: O_1  and  C_20
REMARK    2  A    between atoms: O_1  and  C_36
REMARK    3  A    between atoms: O_2  and  C_18
REMARK    4  A    between atoms: O_3  and  C_28
REMARK    5  A    between atoms: O_3  and  C_42
REMARK    6  A    between atoms: O_5  and  C_34
REMARK    7  A    between atoms: O_5  and  C_50
REMARK    8  A    between atoms: O_7  and  C_40
REMARK    9  A    between atoms: O_7  and  C_56
REMARK   10  A    between atoms: O_9  and  C_46
REMARK   11  A    between atoms: N_11  and  C_30
REMARK   12  A    between atoms: C_17  and  C_23
REMARK   13  A    between atoms: C_18  and  C_28
REMARK   14  A    between atoms: C_23  and  C_32
REMARK   15  A    between atoms: C_33  and  C_35
REMARK   16  A    between atoms: C_35  and  C_40
REMARK   17  A    between atoms: C_36  and  C_41
REMARK   18  A    between atoms: C_46  and  C_53
REMARK   19  A    between atoms: C_53  and  C_57
REMARK                            x       y       z     vdW  Elec       q    Type
REMARK                         _______ _______ _______ _____ _____    ______ ____
ROOT
ATOM      1  N   UNL     1     -32.261 101.156  15.433  0.00  0.00    +0.000 NA
ATOM      2  N   UNL     1     -30.981 104.983  17.980  0.00  0.00    +0.000 N 
ATOM      3  C   UNL     1     -31.599 103.019  16.669  0.00  0.00    +0.000 C 
ATOM      4  C   UNL     1     -31.125 102.091  15.536  0.00  0.00    +0.000 C 
ATOM      5  C   UNL     1     -30.411 103.815  17.245  0.00  0.00    +0.000 C 
ATOM      6  C   UNL     1     -29.678 101.460  15.784  0.00  0.00    +0.000 C 
ATOM      7  C   UNL     1     -29.311 102.984  17.925  0.00  0.00    +0.000 C 
ATOM      8  C   UNL     1     -32.450 102.123  17.589  0.00  0.00    +0.000 C 
ATOM      9  C   UNL     1     -29.205 101.553  17.302  0.00  0.00    +0.000 C 
ATOM     10  C   UNL     1     -32.458 104.217  16.315  0.00  0.00    +0.000 A 
ATOM     11  C   UNL     1     -32.730 100.859  16.781  0.00  0.00    +0.000 C 
ATOM     12  C   UNL     1     -32.096 105.291  17.141  0.00  0.00    +0.000 A 
ATOM     13  C   UNL     1     -29.630  99.986  15.374  0.00  0.00    +0.000 C 
ATOM     14  C   UNL     1     -32.010  99.977  14.617  0.00  0.00    +0.000 C 
ATOM     15  C   UNL     1     -30.676  99.340  14.841  0.00  0.00    +0.000 C 
ATOM     16  C   UNL     1     -33.494 104.314  15.392  0.00  0.00    +0.000 A 
ATOM     17  C   UNL     1     -30.092 106.113  18.246  0.00  0.00    +0.000 C 
ATOM     18  C   UNL     1     -32.808 106.473  17.073  0.00  0.00    +0.000 A 
ATOM     19  C   UNL     1     -34.235 105.507  15.294  0.00  0.00    +0.000 A 
ATOM     20  C   UNL     1     -33.874 106.578  16.164  0.00  0.00    +0.000 A 
ENDROOT
BRANCH  19  23
ATOM     21  N   UNL     1     -39.047 106.395  12.033  0.00  0.00    +0.000 NA
ATOM     22  N   UNL     1     -34.063 107.554  13.300  0.00  0.00    +0.000 N 
ATOM     23  C   UNL     1     -35.439 105.664  14.282  0.00  0.00    +0.000 C 
ATOM     24  C   UNL     1     -36.713 106.316  14.990  0.00  0.00    +0.000 C 
ATOM     25  C   UNL     1     -35.046 106.603  13.091  0.00  0.00    +0.000 A 
ATOM     26  C   UNL     1     -37.825 106.847  14.070  0.00  0.00    +0.000 C 
ATOM     27  C   UNL     1     -38.946 107.600  14.785  0.00  0.00    +0.000 C 
ATOM     28  C   UNL     1     -38.501 105.775  13.228  0.00  0.00    +0.000 C 
ATOM     29  C   UNL     1     -35.525 106.818  11.786  0.00  0.00    +0.000 A 
ATOM     30  C   UNL     1     -40.009 108.136  13.780  0.00  0.00    +0.000 C 
ATOM     31  C   UNL     1     -40.071 107.406  12.376  0.00  0.00    +0.000 C 
ATOM     32  C   UNL     1     -36.653 106.158  11.008  0.00  0.00    +0.000 C 
ATOM     33  C   UNL     1     -38.014 106.912  11.098  0.00  0.00    +0.000 C 
ATOM     34  C   UNL     1     -34.745 107.898  11.225  0.00  0.00    +0.000 A 
ATOM     35  C   UNL     1     -33.849 108.326  12.192  0.00  0.00    +0.000 A 
ATOM     36  C   UNL     1     -34.740 108.559   9.976  0.00  0.00    +0.000 A 
ATOM     37  C   UNL     1     -32.939 109.371  11.987  0.00  0.00    +0.000 A 
ATOM     38  C   UNL     1     -33.839 109.605   9.748  0.00  0.00    +0.000 A 
ATOM     39  C   UNL     1     -32.951 110.004  10.741  0.00  0.00    +0.000 A 
ATOM     40  H   UNL     1     -33.541 107.661  14.161  0.00  0.00    +0.000 HD
BRANCH  23  42
ATOM     41  O   UNL     1     -35.376 103.655  12.786  0.00  0.00    +0.000 OA
ATOM     42  C   UNL     1     -35.764 104.209  13.807  0.00  0.00    +0.000 C 
BRANCH  42  43
ATOM     43  O   UNL     1     -36.557 103.579  14.738  0.00  0.00    +0.000 OA
ATOM     44  C   UNL     1     -36.503 102.154  14.676  0.00  0.00    +0.000 C 
ENDBRANCH  42  43
ENDBRANCH  23  42
BRANCH  30  45
ATOM     45  O   UNL     1     -41.288 107.924  14.429  0.00  0.00    +0.000 OA
ATOM     46  H   UNL     1     -41.125 107.892  15.388  0.00  0.00    +0.000 HD
ENDBRANCH  30  45
BRANCH  30  47
ATOM     47  C   UNL     1     -39.923 109.673  13.627  0.00  0.00    +0.000 C 
ATOM     48  C   UNL     1     -38.819 110.204  12.728  0.00  0.00    +0.000 C 
ENDBRANCH  30  47
ENDBRANCH  19  23
BRANCH   7  49
ATOM     49  O   UNL     1     -28.054 103.659  17.599  0.00  0.00    +0.000 OA
ATOM     50  H   UNL     1     -27.590 103.075  16.965  0.00  0.00    +0.000 HD
ENDBRANCH   7  49
BRANCH   7  52
ATOM     51  O   UNL     1     -30.505 102.841  20.098  0.00  0.00    +0.000 OA
ATOM     52  C   UNL     1     -29.463 102.950  19.467  0.00  0.00    +0.000 C 
BRANCH  52  53
ATOM     53  O   UNL     1     -28.220 102.980  20.052  0.00  0.00    +0.000 OA
ATOM     54  C   UNL     1     -28.209 102.537  21.411  0.00  0.00    +0.000 C 
ENDBRANCH  52  53
ENDBRANCH   7  52
BRANCH  20  55
ATOM     55  O   UNL     1     -34.572 107.753  16.037  0.00  0.00    +0.000 OA
ATOM     56  C   UNL     1     -34.044 108.854  16.770  0.00  0.00    +0.000 C 
ENDBRANCH  20  55
BRANCH   6  57
ATOM     57  C   UNL     1     -28.618 102.197  14.886  0.00  0.00    +0.000 C 
ATOM     58  C   UNL     1     -27.241 101.538  14.774  0.00  0.00    +0.000 C 
ENDBRANCH   6  57
BRANCH   9  59
ATOM     59  O   UNL     1     -29.944 100.570  18.067  0.00  0.00    +0.000 OA
BRANCH  59  61
ATOM     60  O   UNL     1     -28.125  99.682  19.139  0.00  0.00    +0.000 OA
ATOM     61  C   UNL     1     -29.232  99.560  18.635  0.00  0.00    +0.000 C 
ATOM     62  C   UNL     1     -30.015  98.285  18.585  0.00  0.00    +0.000 C 
ENDBRANCH  59  61
ENDBRANCH   9  59
TORSDOF 12
ENDMDL
MODEL 4
REMARK VINA RESULT:      -6.3      2.660      9.724
REMARK  Name = 
REMARK  19 active torsions:
REMARK  status: ('A' for Active; 'I' for Inactive)
REMARK    1  A    between atoms: O_1  and  C_20
REMARK    2  A    between atoms: O_1  and  C_36
REMARK    3  A    between atoms: O_2  and  C_18
REMARK    4  A    between atoms: O_3  and  C_28
REMARK    5  A    between atoms: O_3  and  C_42
REMARK    6  A    between atoms: O_5  and  C_34
REMARK    7  A    between atoms: O_5  and  C_50
REMARK    8  A    between atoms: O_7  and  C_40
REMARK    9  A    between atoms: O_7  and  C_56
REMARK   10  A    between atoms: O_9  and  C_46
REMARK   11  A    between atoms: N_11  and  C_30
REMARK   12  A    between atoms: C_17  and  C_23
REMARK   13  A    between atoms: C_18  and  C_28
REMARK   14  A    between atoms: C_23  and  C_32
REMARK   15  A    between atoms: C_33  and  C_35
REMARK   16  A    between atoms: C_35  and  C_40
REMARK   17  A    between atoms: C_36  and  C_41
REMARK   18  A    between atoms: C_46  and  C_53
REMARK   19  A    between atoms: C_53  and  C_57
REMARK                            x       y       z     vdW  Elec       q    Type
REMARK                         _______ _______ _______ _____ _____    ______ ____
ROOT
ATOM      1  N   UNL     1     -35.641 100.051  16.212  0.00  0.00    +0.000 NA
ATOM      2  N   UNL     1     -34.009 104.390  15.077  0.00  0.00    +0.000 N 
ATOM      3  C   UNL     1     -34.879 102.186  15.667  0.00  0.00    +0.000 C 
ATOM      4  C   UNL     1     -35.957 101.464  16.494  0.00  0.00    +0.000 C 
ATOM      5  C   UNL     1     -35.257 103.666  15.461  0.00  0.00    +0.000 C 
ATOM      6  C   UNL     1     -37.444 101.958  16.182  0.00  0.00    +0.000 C 
ATOM      7  C   UNL     1     -36.538 103.926  14.650  0.00  0.00    +0.000 C 
ATOM      8  C   UNL     1     -34.632 101.274  14.450  0.00  0.00    +0.000 C 
ATOM      9  C   UNL     1     -37.565 102.757  14.810  0.00  0.00    +0.000 C 
ATOM     10  C   UNL     1     -33.524 102.439  16.300  0.00  0.00    +0.000 A 
ATOM     11  C   UNL     1     -35.279  99.938  14.805  0.00  0.00    +0.000 C 
ATOM     12  C   UNL     1     -33.054 103.690  15.877  0.00  0.00    +0.000 A 
ATOM     13  C   UNL     1     -38.425 100.785  16.123  0.00  0.00    +0.000 C 
ATOM     14  C   UNL     1     -36.655  99.101  16.644  0.00  0.00    +0.000 C 
ATOM     15  C   UNL     1     -38.060  99.514  16.344  0.00  0.00    +0.000 C 
ATOM     16  C   UNL     1     -32.770 101.607  17.121  0.00  0.00    +0.000 A 
ATOM     17  C   UNL     1     -33.992 105.843  15.244  0.00  0.00    +0.000 C 
ATOM     18  C   UNL     1     -31.789 104.104  16.247  0.00  0.00    +0.000 A 
ATOM     19  C   UNL     1     -31.478 102.003  17.521  0.00  0.00    +0.000 A 
ATOM     20  C   UNL     1     -31.004 103.265  17.055  0.00  0.00    +0.000 A 
ENDROOT
BRANCH  19  23
ATOM     21  N   UNL     1     -27.965  99.151  21.275  0.00  0.00    +0.000 NA
ATOM     22  N   UNL     1     -32.763 100.259  19.393  0.00  0.00    +0.000 N 
ATOM     23  C   UNL     1     -30.566 101.086  18.431  0.00  0.00    +0.000 C 
ATOM     24  C   UNL     1     -29.836 101.939  19.567  0.00  0.00    +0.000 C 
ATOM     25  C   UNL     1     -31.424  99.995  19.158  0.00  0.00    +0.000 A 
ATOM     26  C   UNL     1     -29.204 101.154  20.728  0.00  0.00    +0.000 C 
ATOM     27  C   UNL     1     -28.656 102.016  21.864  0.00  0.00    +0.000 C 
ATOM     28  C   UNL     1     -28.069 100.230  20.309  0.00  0.00    +0.000 C 
ATOM     29  C   UNL     1     -31.159  98.754  19.765  0.00  0.00    +0.000 A 
ATOM     30  C   UNL     1     -28.068 101.144  23.014  0.00  0.00    +0.000 C 
ATOM     31  C   UNL     1     -27.645  99.669  22.623  0.00  0.00    +0.000 C 
ATOM     32  C   UNL     1     -29.867  97.970  19.924  0.00  0.00    +0.000 C 
ATOM     33  C   UNL     1     -29.128  98.227  21.272  0.00  0.00    +0.000 C 
ATOM     34  C   UNL     1     -32.408  98.282  20.318  0.00  0.00    +0.000 A 
ATOM     35  C   UNL     1     -33.378  99.241  20.066  0.00  0.00    +0.000 A 
ATOM     36  C   UNL     1     -32.790  97.122  21.029  0.00  0.00    +0.000 A 
ATOM     37  C   UNL     1     -34.711  99.109  20.473  0.00  0.00    +0.000 A 
ATOM     38  C   UNL     1     -34.118  96.969  21.445  0.00  0.00    +0.000 A 
ATOM     39  C   UNL     1     -35.064  97.950  21.170  0.00  0.00    +0.000 A 
ATOM     40  H   UNL     1     -33.244 101.095  19.088  0.00  0.00    +0.000 HD
BRANCH  23  42
ATOM     41  O   UNL     1     -28.348 100.803  17.303  0.00  0.00    +0.000 OA
ATOM     42  C   UNL     1     -29.514 100.462  17.456  0.00  0.00    +0.000 C 
BRANCH  42  43
ATOM     43  O   UNL     1     -30.075  99.407  16.775  0.00  0.00    +0.000 OA
ATOM     44  C   UNL     1     -29.901  99.473  15.360  0.00  0.00    +0.000 C 
ENDBRANCH  42  43
ENDBRANCH  23  42
BRANCH  30  45
ATOM     45  O   UNL     1     -26.867 101.836  23.441  0.00  0.00    +0.000 OA
ATOM     46  H   UNL     1     -26.139 101.190  23.423  0.00  0.00    +0.000 HD
ENDBRANCH  30  45
BRANCH  30  47
ATOM     47  C   UNL     1     -28.975 101.170  24.267  0.00  0.00    +0.000 C 
ATOM     48  C   UNL     1     -30.193 100.263  24.242  0.00  0.00    +0.000 C 
ENDBRANCH  30  47
ENDBRANCH  19  23
BRANCH   7  49
ATOM     49  O   UNL     1     -37.160 105.098  15.269  0.00  0.00    +0.000 OA
ATOM     50  H   UNL     1     -37.705 105.514  14.569  0.00  0.00    +0.000 HD
ENDBRANCH   7  49
BRANCH   7  52
ATOM     51  O   UNL     1     -35.406 103.722  12.450  0.00  0.00    +0.000 OA
ATOM     52  C   UNL     1     -36.241 104.256  13.166  0.00  0.00    +0.000 C 
BRANCH  52  53
ATOM     53  O   UNL     1     -37.126 105.208  12.720  0.00  0.00    +0.000 OA
ATOM     54  C   UNL     1     -36.656 105.957  11.598  0.00  0.00    +0.000 C 
ENDBRANCH  52  53
ENDBRANCH   7  52
BRANCH  20  55
ATOM     55  O   UNL     1     -29.762 103.664  17.479  0.00  0.00    +0.000 OA
ATOM     56  C   UNL     1     -29.079 104.555  16.602  0.00  0.00    +0.000 C 
ENDBRANCH  20  55
BRANCH   6  57
ATOM     57  C   UNL     1     -37.948 102.888  17.347  0.00  0.00    +0.000 C 
ATOM     58  C   UNL     1     -39.434 103.254  17.334  0.00  0.00    +0.000 C 
ENDBRANCH   6  57
BRANCH   9  59
ATOM     59  O   UNL     1     -37.479 101.805  13.723  0.00  0.00    +0.000 OA
BRANCH  59  61
ATOM     60  O   UNL     1     -38.845 100.478  12.449  0.00  0.00    +0.000 OA
ATOM     61  C   UNL     1     -38.629 101.518  13.055  0.00  0.00    +0.000 C 
ATOM     62  C   UNL     1     -39.604 102.644  13.200  0.00  0.00    +0.000 C 
ENDBRANCH  59  61
ENDBRANCH   9  59
TORSDOF 12
ENDMDL
MODEL 5
REMARK VINA RESULT:      -6.2     18.873     23.895
REMARK  Name = 
REMARK  19 active torsions:
REMARK  status: ('A' for Active; 'I' for Inactive)
REMARK    1  A    between atoms: O_1  and  C_20
REMARK    2  A    between atoms: O_1  and  C_36
REMARK    3  A    between atoms: O_2  and  C_18
REMARK    4  A    between atoms: O_3  and  C_28
REMARK    5  A    between atoms: O_3  and  C_42
REMARK    6  A    between atoms: O_5  and  C_34
REMARK    7  A    between atoms: O_5  and  C_50
REMARK    8  A    between atoms: O_7  and  C_40
REMARK    9  A    between atoms: O_7  and  C_56
REMARK   10  A    between atoms: O_9  and  C_46
REMARK   11  A    between atoms: N_11  and  C_30
REMARK   12  A    between atoms: C_17  and  C_23
REMARK   13  A    between atoms: C_18  and  C_28
REMARK   14  A    between atoms: C_23  and  C_32
REMARK   15  A    between atoms: C_33  and  C_35
REMARK   16  A    between atoms: C_35  and  C_40
REMARK   17  A    between atoms: C_36  and  C_41
REMARK   18  A    between atoms: C_46  and  C_53
REMARK   19  A    between atoms: C_53  and  C_57
REMARK                            x       y       z     vdW  Elec       q    Type
REMARK                         _______ _______ _______ _____ _____    ______ ____
ROOT
ATOM      1  N   UNL     1     -22.927  85.935   7.100  0.00  0.00    +0.000 NA
ATOM      2  N   UNL     1     -21.955  81.312   6.419  0.00  0.00    +0.000 N 
ATOM      3  C   UNL     1     -22.415  83.685   6.763  0.00  0.00    +0.000 C 
ATOM      4  C   UNL     1     -21.777  85.016   7.199  0.00  0.00    +0.000 C 
ATOM      5  C   UNL     1     -21.324  82.665   6.380  0.00  0.00    +0.000 C 
ATOM      6  C   UNL     1     -20.462  85.399   6.375  0.00  0.00    +0.000 C 
ATOM      7  C   UNL     1     -20.453  83.036   5.168  0.00  0.00    +0.000 C 
ATOM      8  C   UNL     1     -23.501  84.077   5.743  0.00  0.00    +0.000 C 
ATOM      9  C   UNL     1     -20.316  84.586   5.013  0.00  0.00    +0.000 C 
ATOM     10  C   UNL     1     -23.095  82.828   7.812  0.00  0.00    +0.000 A 
ATOM     11  C   UNL     1     -23.689  85.583   5.909  0.00  0.00    +0.000 C 
ATOM     12  C   UNL     1     -22.843  81.479   7.526  0.00  0.00    +0.000 A 
ATOM     13  C   UNL     1     -20.429  86.890   6.030  0.00  0.00    +0.000 C 
ATOM     14  C   UNL     1     -22.590  87.347   7.195  0.00  0.00    +0.000 C 
ATOM     15  C   UNL     1     -21.381  87.751   6.415  0.00  0.00    +0.000 C 
ATOM     16  C   UNL     1     -23.903  83.217   8.876  0.00  0.00    +0.000 A 
ATOM     17  C   UNL     1     -21.067  80.155   6.522  0.00  0.00    +0.000 C 
ATOM     18  C   UNL     1     -23.441  80.496   8.291  0.00  0.00    +0.000 A 
ATOM     19  C   UNL     1     -24.523  82.239   9.678  0.00  0.00    +0.000 A 
ATOM     20  C   UNL     1     -24.281  80.872   9.352  0.00  0.00    +0.000 A 
ENDROOT
BRANCH  19  23
ATOM     21  N   UNL     1     -27.986  84.313  13.954  0.00  0.00    +0.000 NA
ATOM     22  N   UNL     1     -27.330  81.751   9.394  0.00  0.00    +0.000 N 
ATOM     23  C   UNL     1     -25.472  82.624  10.883  0.00  0.00    +0.000 C 
ATOM     24  C   UNL     1     -25.652  84.207  10.997  0.00  0.00    +0.000 C 
ATOM     25  C   UNL     1     -26.901  82.013  10.684  0.00  0.00    +0.000 A 
ATOM     26  C   UNL     1     -26.803  84.713  11.883  0.00  0.00    +0.000 C 
ATOM     27  C   UNL     1     -27.033  86.223  11.837  0.00  0.00    +0.000 C 
ATOM     28  C   UNL     1     -26.663  84.348  13.354  0.00  0.00    +0.000 C 
ATOM     29  C   UNL     1     -27.989  81.718  11.524  0.00  0.00    +0.000 A 
ATOM     30  C   UNL     1     -28.237  86.648  12.731  0.00  0.00    +0.000 C 
ATOM     31  C   UNL     1     -28.639  85.638  13.882  0.00  0.00    +0.000 C 
ATOM     32  C   UNL     1     -28.171  81.876  13.025  0.00  0.00    +0.000 C 
ATOM     33  C   UNL     1     -28.848  83.215  13.446  0.00  0.00    +0.000 C 
ATOM     34  C   UNL     1     -29.051  81.224  10.678  0.00  0.00    +0.000 A 
ATOM     35  C   UNL     1     -28.605  81.258   9.365  0.00  0.00    +0.000 A 
ATOM     36  C   UNL     1     -30.366  80.766  10.919  0.00  0.00    +0.000 A 
ATOM     37  C   UNL     1     -29.388  80.854   8.277  0.00  0.00    +0.000 A 
ATOM     38  C   UNL     1     -31.167  80.356   9.847  0.00  0.00    +0.000 A 
ATOM     39  C   UNL     1     -30.682  80.400   8.544  0.00  0.00    +0.000 A 
ATOM     40  H   UNL     1     -26.767  81.885   8.563  0.00  0.00    +0.000 HD
BRANCH  23  42
ATOM     41  O   UNL     1     -25.103  81.106  12.842  0.00  0.00    +0.000 OA
ATOM     42  C   UNL     1     -24.759  82.062  12.158  0.00  0.00    +0.000 C 
BRANCH  42  43
ATOM     43  O   UNL     1     -23.621  82.790  12.417  0.00  0.00    +0.000 OA
ATOM     44  C   UNL     1     -22.479  81.990  12.720  0.00  0.00    +0.000 C 
ENDBRANCH  42  43
ENDBRANCH  23  42
BRANCH  30  45
ATOM     45  O   UNL     1     -27.821  87.882  13.368  0.00  0.00    +0.000 OA
ATOM     46  H   UNL     1     -28.085  87.828  14.304  0.00  0.00    +0.000 HD
ENDBRANCH  30  45
BRANCH  30  47
ATOM     47  C   UNL     1     -29.457  87.065  11.878  0.00  0.00    +0.000 C 
ATOM     48  C   UNL     1     -29.681  86.292  10.589  0.00  0.00    +0.000 C 
ENDBRANCH  30  47
ENDBRANCH  19  23
BRANCH   7  49
ATOM     49  O   UNL     1     -19.112  82.543   5.487  0.00  0.00    +0.000 OA
ATOM     50  H   UNL     1     -18.498  83.277   5.278  0.00  0.00    +0.000 HD
ENDBRANCH   7  49
BRANCH   7  52
ATOM     51  O   UNL     1     -22.085  82.106   3.544  0.00  0.00    +0.000 OA
ATOM     52  C   UNL     1     -20.929  82.349   3.864  0.00  0.00    +0.000 C 
BRANCH  52  53
ATOM     53  O   UNL     1     -19.850  82.110   3.049  0.00  0.00    +0.000 OA
ATOM     54  C   UNL     1     -20.179  82.028   1.660  0.00  0.00    +0.000 C 
ENDBRANCH  52  53
ENDBRANCH   7  52
BRANCH  20  55
ATOM     55  O   UNL     1     -24.854  79.923  10.161  0.00  0.00    +0.000 OA
ATOM     56  C   UNL     1     -25.273  78.733   9.498  0.00  0.00    +0.000 C 
ENDBRANCH  20  55
BRANCH   6  57
ATOM     57  C   UNL     1     -19.187  85.128   7.256  0.00  0.00    +0.000 C 
ATOM     58  C   UNL     1     -19.433  84.819   8.734  0.00  0.00    +0.000 C 
ENDBRANCH   6  57
BRANCH   9  59
ATOM     59  O   UNL     1     -21.266  85.124   4.062  0.00  0.00    +0.000 OA
BRANCH  59  61
ATOM     60  O   UNL     1     -19.691  85.476   2.435  0.00  0.00    +0.000 OA
ATOM     61  C   UNL     1     -20.761  85.746   2.963  0.00  0.00    +0.000 C 
ATOM     62  C   UNL     1     -21.720  86.786   2.472  0.00  0.00    +0.000 C 
ENDBRANCH  59  61
ENDBRANCH   9  59
TORSDOF 12
ENDMDL
MODEL 6
REMARK VINA RESULT:      -6.1     13.003     18.230
REMARK  Name = 
REMARK  19 active torsions:
REMARK  status: ('A' for Active; 'I' for Inactive)
REMARK    1  A    between atoms: O_1  and  C_20
REMARK    2  A    between atoms: O_1  and  C_36
REMARK    3  A    between atoms: O_2  and  C_18
REMARK    4  A    between atoms: O_3  and  C_28
REMARK    5  A    between atoms: O_3  and  C_42
REMARK    6  A    between atoms: O_5  and  C_34
REMARK    7  A    between atoms: O_5  and  C_50
REMARK    8  A    between atoms: O_7  and  C_40
REMARK    9  A    between atoms: O_7  and  C_56
REMARK   10  A    between atoms: O_9  and  C_46
REMARK   11  A    between atoms: N_11  and  C_30
REMARK   12  A    between atoms: C_17  and  C_23
REMARK   13  A    between atoms: C_18  and  C_28
REMARK   14  A    between atoms: C_23  and  C_32
REMARK   15  A    between atoms: C_33  and  C_35
REMARK   16  A    between atoms: C_35  and  C_40
REMARK   17  A    between atoms: C_36  and  C_41
REMARK   18  A    between atoms: C_46  and  C_53
REMARK   19  A    between atoms: C_53  and  C_57
REMARK                            x       y       z     vdW  Elec       q    Type
REMARK                         _______ _______ _______ _____ _____    ______ ____
ROOT
ATOM      1  N   UNL     1     -43.207 101.609   3.090  0.00  0.00    +0.000 NA
ATOM      2  N   UNL     1     -43.723 104.132  -0.929  0.00  0.00    +0.000 N 
ATOM      3  C   UNL     1     -43.494 102.853   1.139  0.00  0.00    +0.000 C 
ATOM      4  C   UNL     1     -44.002 102.746   2.587  0.00  0.00    +0.000 C 
ATOM      5  C   UNL     1     -44.470 103.688   0.286  0.00  0.00    +0.000 C 
ATOM      6  C   UNL     1     -45.592 102.635   2.705  0.00  0.00    +0.000 C 
ATOM      7  C   UNL     1     -45.880 103.100   0.109  0.00  0.00    +0.000 C 
ATOM      8  C   UNL     1     -43.149 101.408   0.728  0.00  0.00    +0.000 C 
ATOM      9  C   UNL     1     -46.295 102.225   1.337  0.00  0.00    +0.000 C 
ATOM     10  C   UNL     1     -42.260 103.688   0.861  0.00  0.00    +0.000 A 
ATOM     11  C   UNL     1     -43.118 100.612   2.030  0.00  0.00    +0.000 C 
ATOM     12  C   UNL     1     -42.428 104.349  -0.364  0.00  0.00    +0.000 A 
ATOM     13  C   UNL     1     -46.007 101.612   3.764  0.00  0.00    +0.000 C 
ATOM     14  C   UNL     1     -43.644 101.078   4.372  0.00  0.00    +0.000 C 
ATOM     15  C   UNL     1     -45.125 100.933   4.511  0.00  0.00    +0.000 C 
ATOM     16  C   UNL     1     -41.087 103.796   1.601  0.00  0.00    +0.000 A 
ATOM     17  C   UNL     1     -44.259 105.270  -1.673  0.00  0.00    +0.000 C 
ATOM     18  C   UNL     1     -41.391 105.101  -0.882  0.00  0.00    +0.000 A 
ATOM     19  C   UNL     1     -40.013 104.560   1.103  0.00  0.00    +0.000 A 
ATOM     20  C   UNL     1     -40.191 105.199  -0.159  0.00  0.00    +0.000 A 
ENDROOT
BRANCH  19  23
ATOM     21  N   UNL     1     -34.639 105.129   3.421  0.00  0.00    +0.000 NA
ATOM     22  N   UNL     1     -39.434 107.057   2.379  0.00  0.00    +0.000 N 
ATOM     23  C   UNL     1     -38.648 104.695   1.890  0.00  0.00    +0.000 C 
ATOM     24  C   UNL     1     -37.408 104.800   0.888  0.00  0.00    +0.000 C 
ATOM     25  C   UNL     1     -38.638 105.993   2.768  0.00  0.00    +0.000 A 
ATOM     26  C   UNL     1     -36.074 105.281   1.481  0.00  0.00    +0.000 C 
ATOM     27  C   UNL     1     -34.963 105.515   0.458  0.00  0.00    +0.000 C 
ATOM     28  C   UNL     1     -35.492 104.353   2.538  0.00  0.00    +0.000 C 
ATOM     29  C   UNL     1     -37.912 106.438   3.887  0.00  0.00    +0.000 A 
ATOM     30  C   UNL     1     -33.659 106.035   1.135  0.00  0.00    +0.000 C 
ATOM     31  C   UNL     1     -33.508 105.729   2.681  0.00  0.00    +0.000 C 
ATOM     32  C   UNL     1     -36.823 105.768   4.710  0.00  0.00    +0.000 C 
ATOM     33  C   UNL     1     -35.375 106.117   4.253  0.00  0.00    +0.000 C 
ATOM     34  C   UNL     1     -38.354 107.785   4.166  0.00  0.00    +0.000 A 
ATOM     35  C   UNL     1     -39.298 108.133   3.211  0.00  0.00    +0.000 A 
ATOM     36  C   UNL     1     -38.016 108.747   5.145  0.00  0.00    +0.000 A 
ATOM     37  C   UNL     1     -39.933 109.380   3.178  0.00  0.00    +0.000 A 
ATOM     38  C   UNL     1     -38.639 110.000   5.132  0.00  0.00    +0.000 A 
ATOM     39  C   UNL     1     -39.585 110.310   4.160  0.00  0.00    +0.000 A 
ATOM     40  H   UNL     1     -40.062 107.043   1.585  0.00  0.00    +0.000 HD
BRANCH  23  42
ATOM     41  O   UNL     1     -37.990 102.344   2.451  0.00  0.00    +0.000 OA
ATOM     42  C   UNL     1     -38.544 103.394   2.752  0.00  0.00    +0.000 C 
BRANCH  42  43
ATOM     43  O   UNL     1     -39.157 103.589   3.968  0.00  0.00    +0.000 OA
ATOM     44  C   UNL     1     -38.681 102.726   5.001  0.00  0.00    +0.000 C 
ENDBRANCH  42  43
ENDBRANCH  23  42
BRANCH  30  45
ATOM     45  O   UNL     1     -32.577 105.351   0.455  0.00  0.00    +0.000 OA
ATOM     46  H   UNL     1     -32.371 105.861  -0.348  0.00  0.00    +0.000 HD
ENDBRANCH  30  45
BRANCH  30  47
ATOM     47  C   UNL     1     -33.411 107.528   0.816  0.00  0.00    +0.000 C 
ATOM     48  C   UNL     1     -34.201 108.537   1.632  0.00  0.00    +0.000 C 
ENDBRANCH  30  47
ENDBRANCH  19  23
BRANCH   7  49
ATOM     49  O   UNL     1     -46.785 104.252   0.110  0.00  0.00    +0.000 OA
ATOM     50  H   UNL     1     -47.271 104.213  -0.740  0.00  0.00    +0.000 HD
ENDBRANCH   7  49
BRANCH   7  52
ATOM     51  O   UNL     1     -45.170 101.766  -1.861  0.00  0.00    +0.000 OA
ATOM     52  C   UNL     1     -46.044 102.351  -1.237  0.00  0.00    +0.000 C 
BRANCH  52  53
ATOM     53  O   UNL     1     -47.365 102.363  -1.613  0.00  0.00    +0.000 OA
ATOM     54  C   UNL     1     -47.763 101.219  -2.370  0.00  0.00    +0.000 C 
ENDBRANCH  52  53
ENDBRANCH   7  52
BRANCH  20  55
ATOM     55  O   UNL     1     -39.157 105.974  -0.621  0.00  0.00    +0.000 OA
ATOM     56  C   UNL     1     -39.320 106.477  -1.944  0.00  0.00    +0.000 C 
ENDBRANCH  20  55
BRANCH   6  57
ATOM     57  C   UNL     1     -46.184 104.014   3.176  0.00  0.00    +0.000 C 
ATOM     58  C   UNL     1     -45.188 105.028   3.743  0.00  0.00    +0.000 C 
ENDBRANCH   6  57
BRANCH   9  59
ATOM     59  O   UNL     1     -46.051 100.816   1.108  0.00  0.00    +0.000 OA
BRANCH  59  61
ATOM     60  O   UNL     1     -47.052  98.758   1.210  0.00  0.00    +0.000 OA
ATOM     61  C   UNL     1     -47.120  99.979   1.191  0.00  0.00    +0.000 C 
ATOM     62  C   UNL     1     -48.388 100.768   1.291  0.00  0.00    +0.000 C 
ENDBRANCH  59  61
ENDBRANCH   9  59
TORSDOF 12
ENDMDL
MODEL 7
REMARK VINA RESULT:      -6.1     12.291     17.694
REMARK  Name = 
REMARK  19 active torsions:
REMARK  status: ('A' for Active; 'I' for Inactive)
REMARK    1  A    between atoms: O_1  and  C_20
REMARK    2  A    between atoms: O_1  and  C_36
REMARK    3  A    between atoms: O_2  and  C_18
REMARK    4  A    between atoms: O_3  and  C_28
REMARK    5  A    between atoms: O_3  and  C_42
REMARK    6  A    between atoms: O_5  and  C_34
REMARK    7  A    between atoms: O_5  and  C_50
REMARK    8  A    between atoms: O_7  and  C_40
REMARK    9  A    between atoms: O_7  and  C_56
REMARK   10  A    between atoms: O_9  and  C_46
REMARK   11  A    between atoms: N_11  and  C_30
REMARK   12  A    between atoms: C_17  and  C_23
REMARK   13  A    between atoms: C_18  and  C_28
REMARK   14  A    between atoms: C_23  and  C_32
REMARK   15  A    between atoms: C_33  and  C_35
REMARK   16  A    between atoms: C_35  and  C_40
REMARK   17  A    between atoms: C_36  and  C_41
REMARK   18  A    between atoms: C_46  and  C_53
REMARK   19  A    between atoms: C_53  and  C_57
REMARK                            x       y       z     vdW  Elec       q    Type
REMARK                         _______ _______ _______ _____ _____    ______ ____
ROOT
ATOM      1  N   UNL     1     -38.985 105.957   3.228  0.00  0.00    +0.000 NA
ATOM      2  N   UNL     1     -36.081 106.685  -0.489  0.00  0.00    +0.000 N 
ATOM      3  C   UNL     1     -37.541 106.288   1.427  0.00  0.00    +0.000 C 
ATOM      4  C   UNL     1     -37.877 105.274   2.536  0.00  0.00    +0.000 C 
ATOM      5  C   UNL     1     -36.148 105.998   0.835  0.00  0.00    +0.000 C 
ATOM      6  C   UNL     1     -36.615 104.846   3.419  0.00  0.00    +0.000 C 
ATOM      7  C   UNL     1     -34.962 106.148   1.802  0.00  0.00    +0.000 C 
ATOM      8  C   UNL     1     -37.850 107.667   2.041  0.00  0.00    +0.000 C 
ATOM      9  C   UNL     1     -35.383 105.845   3.278  0.00  0.00    +0.000 C 
ATOM     10  C   UNL     1     -38.306 106.215   0.120  0.00  0.00    +0.000 A 
ATOM     11  C   UNL     1     -38.672 107.380   3.294  0.00  0.00    +0.000 C 
ATOM     12  C   UNL     1     -37.428 106.509  -0.933  0.00  0.00    +0.000 A 
ATOM     13  C   UNL     1     -36.973 104.758   4.904  0.00  0.00    +0.000 C 
ATOM     14  C   UNL     1     -39.361 105.371   4.506  0.00  0.00    +0.000 C 
ATOM     15  C   UNL     1     -38.208 104.983   5.374  0.00  0.00    +0.000 C 
ATOM     16  C   UNL     1     -39.658 105.968  -0.095  0.00  0.00    +0.000 A 
ATOM     17  C   UNL     1     -35.066 106.229  -1.436  0.00  0.00    +0.000 C 
ATOM     18  C   UNL     1     -37.916 106.599  -2.222  0.00  0.00    +0.000 A 
ATOM     19  C   UNL     1     -40.185 106.047  -1.398  0.00  0.00    +0.000 A 
ATOM     20  C   UNL     1     -39.284 106.379  -2.453  0.00  0.00    +0.000 A 
ENDROOT
BRANCH  19  23
ATOM     21  N   UNL     1     -45.701 104.997  -3.144  0.00  0.00    +0.000 NA
ATOM     22  N   UNL     1     -41.355 103.588  -0.513  0.00  0.00    +0.000 N 
ATOM     23  C   UNL     1     -41.719 105.802  -1.696  0.00  0.00    +0.000 C 
ATOM     24  C   UNL     1     -41.966 105.485  -3.242  0.00  0.00    +0.000 C 
ATOM     25  C   UNL     1     -42.254 104.574  -0.885  0.00  0.00    +0.000 A 
ATOM     26  C   UNL     1     -43.333 104.889  -3.619  0.00  0.00    +0.000 C 
ATOM     27  C   UNL     1     -43.465 104.458  -5.079  0.00  0.00    +0.000 C 
ATOM     28  C   UNL     1     -44.512 105.808  -3.338  0.00  0.00    +0.000 C 
ATOM     29  C   UNL     1     -43.521 104.119  -0.476  0.00  0.00    +0.000 A 
ATOM     30  C   UNL     1     -44.863 103.832  -5.368  0.00  0.00    +0.000 C 
ATOM     31  C   UNL     1     -46.021 104.219  -4.361  0.00  0.00    +0.000 C 
ATOM     32  C   UNL     1     -44.909 104.709  -0.668  0.00  0.00    +0.000 C 
ATOM     33  C   UNL     1     -45.665 104.160  -1.916  0.00  0.00    +0.000 C 
ATOM     34  C   UNL     1     -43.318 102.856   0.195  0.00  0.00    +0.000 A 
ATOM     35  C   UNL     1     -41.964 102.561   0.153  0.00  0.00    +0.000 A 
ATOM     36  C   UNL     1     -44.180 101.928   0.822  0.00  0.00    +0.000 A 
ATOM     37  C   UNL     1     -41.414 101.398   0.707  0.00  0.00    +0.000 A 
ATOM     38  C   UNL     1     -43.652 100.759   1.383  0.00  0.00    +0.000 A 
ATOM     39  C   UNL     1     -42.287 100.500   1.326  0.00  0.00    +0.000 A 
ATOM     40  H   UNL     1     -40.360 103.624  -0.690  0.00  0.00    +0.000 HD
BRANCH  23  42
ATOM     41  O   UNL     1     -42.957 107.402  -0.219  0.00  0.00    +0.000 OA
ATOM     42  C   UNL     1     -42.430 107.136  -1.292  0.00  0.00    +0.000 C 
BRANCH  42  43
ATOM     43  O   UNL     1     -42.365 108.034  -2.331  0.00  0.00    +0.000 OA
ATOM     44  C   UNL     1     -41.794 109.293  -1.973  0.00  0.00    +0.000 C 
ENDBRANCH  42  43
ENDBRANCH  23  42
BRANCH  30  45
ATOM     45  O   UNL     1     -45.243 104.336  -6.673  0.00  0.00    +0.000 OA
ATOM     46  H   UNL     1     -45.003 103.657  -7.328  0.00  0.00    +0.000 HD
ENDBRANCH  30  45
BRANCH  30  47
ATOM     47  C   UNL     1     -44.768 102.302  -5.577  0.00  0.00    +0.000 C 
ATOM     48  C   UNL     1     -44.652 101.452  -4.323  0.00  0.00    +0.000 C 
ENDBRANCH  30  47
ENDBRANCH  19  23
BRANCH   7  49
ATOM     49  O   UNL     1     -34.017 105.093   1.428  0.00  0.00    +0.000 OA
ATOM     50  H   UNL     1     -34.430 104.615   0.679  0.00  0.00    +0.000 HD
ENDBRANCH   7  49
BRANCH   7  52
ATOM     51  O   UNL     1     -34.775 108.620   1.666  0.00  0.00    +0.000 OA
ATOM     52  C   UNL     1     -34.250 107.516   1.657  0.00  0.00    +0.000 C 
BRANCH  52  53
ATOM     53  O   UNL     1     -32.891 107.323   1.595  0.00  0.00    +0.000 OA
ATOM     54  C   UNL     1     -32.133 108.295   2.319  0.00  0.00    +0.000 C 
ENDBRANCH  52  53
ENDBRANCH   7  52
BRANCH  20  55
ATOM     55  O   UNL     1     -39.794 106.415  -3.726  0.00  0.00    +0.000 OA
ATOM     56  C   UNL     1     -39.220 107.398  -4.582  0.00  0.00    +0.000 C 
ENDBRANCH  20  55
BRANCH   6  57
ATOM     57  C   UNL     1     -36.140 103.406   2.999  0.00  0.00    +0.000 C 
ATOM     58  C   UNL     1     -37.238 102.390   2.683  0.00  0.00    +0.000 C 
ENDBRANCH   6  57
BRANCH   9  59
ATOM     59  O   UNL     1     -35.694 107.053   4.014  0.00  0.00    +0.000 OA
BRANCH  59  61
ATOM     60  O   UNL     1     -33.719 107.073   5.175  0.00  0.00    +0.000 OA
ATOM     61  C   UNL     1     -34.907 107.350   5.082  0.00  0.00    +0.000 C 
ATOM     62  C   UNL     1     -35.696 108.096   6.113  0.00  0.00    +0.000 C 
ENDBRANCH  59  61
ENDBRANCH   9  59
TORSDOF 12
ENDMDL
MODEL 8
REMARK VINA RESULT:      -6.0      2.661      9.701
REMARK  Name = 
REMARK  19 active torsions:
REMARK  status: ('A' for Active; 'I' for Inactive)
REMARK    1  A    between atoms: O_1  and  C_20
REMARK    2  A    between atoms: O_1  and  C_36
REMARK    3  A    between atoms: O_2  and  C_18
REMARK    4  A    between atoms: O_3  and  C_28
REMARK    5  A    between atoms: O_3  and  C_42
REMARK    6  A    between atoms: O_5  and  C_34
REMARK    7  A    between atoms: O_5  and  C_50
REMARK    8  A    between atoms: O_7  and  C_40
REMARK    9  A    between atoms: O_7  and  C_56
REMARK   10  A    between atoms: O_9  and  C_46
REMARK   11  A    between atoms: N_11  and  C_30
REMARK   12  A    between atoms: C_17  and  C_23
REMARK   13  A    between atoms: C_18  and  C_28
REMARK   14  A    between atoms: C_23  and  C_32
REMARK   15  A    between atoms: C_33  and  C_35
REMARK   16  A    between atoms: C_35  and  C_40
REMARK   17  A    between atoms: C_36  and  C_41
REMARK   18  A    between atoms: C_46  and  C_53
REMARK   19  A    between atoms: C_53  and  C_57
REMARK                            x       y       z     vdW  Elec       q    Type
REMARK                         _______ _______ _______ _____ _____    ______ ____
ROOT
ATOM      1  N   UNL     1     -36.011 105.282  16.131  0.00  0.00    +0.000 NA
ATOM      2  N   UNL     1     -36.845 101.013  14.167  0.00  0.00    +0.000 N 
ATOM      3  C   UNL     1     -36.432 103.214  15.140  0.00  0.00    +0.000 C 
ATOM      4  C   UNL     1     -36.195 104.694  14.791  0.00  0.00    +0.000 C 
ATOM      5  C   UNL     1     -37.065 102.473  13.945  0.00  0.00    +0.000 C 
ATOM      6  C   UNL     1     -37.334 105.327  13.865  0.00  0.00    +0.000 C 
ATOM      7  C   UNL     1     -38.465 102.950  13.524  0.00  0.00    +0.000 C 
ATOM      8  C   UNL     1     -37.146 103.234  16.505  0.00  0.00    +0.000 C 
ATOM      9  C   UNL     1     -38.675 104.467  13.845  0.00  0.00    +0.000 C 
ATOM     10  C   UNL     1     -35.230 102.302  15.293  0.00  0.00    +0.000 A 
ATOM     11  C   UNL     1     -36.962 104.652  17.039  0.00  0.00    +0.000 C 
ATOM     12  C   UNL     1     -35.550 101.042  14.771  0.00  0.00    +0.000 A 
ATOM     13  C   UNL     1     -37.700 106.744  14.313  0.00  0.00    +0.000 C 
ATOM     14  C   UNL     1     -36.027 106.736  16.168  0.00  0.00    +0.000 C 
ATOM     15  C   UNL     1     -37.097 107.366  15.336  0.00  0.00    +0.000 C 
ATOM     16  C   UNL     1     -34.001 102.562  15.892  0.00  0.00    +0.000 A 
ATOM     17  C   UNL     1     -36.954 100.130  13.006  0.00  0.00    +0.000 C 
ATOM     18  C   UNL     1     -34.642 100.006  14.883  0.00  0.00    +0.000 A 
ATOM     19  C   UNL     1     -33.052 101.529  16.017  0.00  0.00    +0.000 A 
ATOM     20  C   UNL     1     -33.407 100.245  15.508  0.00  0.00    +0.000 A 
ENDROOT
BRANCH  19  23
ATOM     21  N   UNL     1     -28.036 103.033  18.693  0.00  0.00    +0.000 NA
ATOM     22  N   UNL     1     -32.699 100.572  18.693  0.00  0.00    +0.000 N 
ATOM     23  C   UNL     1     -31.650 101.760  16.712  0.00  0.00    +0.000 C 
ATOM     24  C   UNL     1     -31.451 103.291  17.122  0.00  0.00    +0.000 C 
ATOM     25  C   UNL     1     -31.534 100.915  18.026  0.00  0.00    +0.000 A 
ATOM     26  C   UNL     1     -30.311 103.605  18.104  0.00  0.00    +0.000 C 
ATOM     27  C   UNL     1     -30.258 105.054  18.586  0.00  0.00    +0.000 C 
ATOM     28  C   UNL     1     -28.922 103.284  17.570  0.00  0.00    +0.000 C 
ATOM     29  C   UNL     1     -30.476 100.450  18.827  0.00  0.00    +0.000 A 
ATOM     30  C   UNL     1     -29.100 105.279  19.604  0.00  0.00    +0.000 C 
ATOM     31  C   UNL     1     -27.917 104.228  19.556  0.00  0.00    +0.000 C 
ATOM     32  C   UNL     1     -28.969 100.590  18.680  0.00  0.00    +0.000 C 
ATOM     33  C   UNL     1     -28.365 101.800  19.454  0.00  0.00    +0.000 C 
ATOM     34  C   UNL     1     -31.070  99.776  19.958  0.00  0.00    +0.000 A 
ATOM     35  C   UNL     1     -32.448  99.871  19.839  0.00  0.00    +0.000 A 
ATOM     36  C   UNL     1     -30.546  99.105  21.087  0.00  0.00    +0.000 A 
ATOM     37  C   UNL     1     -33.339  99.330  20.774  0.00  0.00    +0.000 A 
ATOM     38  C   UNL     1     -31.418  98.555  22.034  0.00  0.00    +0.000 A 
ATOM     39  C   UNL     1     -32.795  98.667  21.877  0.00  0.00    +0.000 A 
ATOM     40  H   UNL     1     -33.631 100.791  18.367  0.00  0.00    +0.000 HD
BRANCH  23  42
ATOM     41  O   UNL     1     -29.868 100.350  15.657  0.00  0.00    +0.000 OA
ATOM     42  C   UNL     1     -30.590 101.340  15.641  0.00  0.00    +0.000 C 
BRANCH  42  43
ATOM     43  O   UNL     1     -30.586 102.246  14.606  0.00  0.00    +0.000 OA
ATOM     44  C   UNL     1     -29.298 102.459  14.029  0.00  0.00    +0.000 C 
ENDBRANCH  42  43
ENDBRANCH  23  42
BRANCH  30  45
ATOM     45  O   UNL     1     -28.539 106.572  19.264  0.00  0.00    +0.000 OA
ATOM     46  H   UNL     1     -29.013 107.241  19.788  0.00  0.00    +0.000 HD
ENDBRANCH  30  45
BRANCH  30  47
ATOM     47  C   UNL     1     -29.638 105.476  21.041  0.00  0.00    +0.000 C 
ATOM     48  C   UNL     1     -30.958 106.215  21.176  0.00  0.00    +0.000 C 
ENDBRANCH  30  47
ENDBRANCH  19  23
BRANCH   7  49
ATOM     49  O   UNL     1     -38.492 102.839  12.064  0.00  0.00    +0.000 OA
ATOM     50  H   UNL     1     -38.106 103.672  11.723  0.00  0.00    +0.000 HD
ENDBRANCH   7  49
BRANCH   7  52
ATOM     51  O   UNL     1     -39.627 101.553  15.216  0.00  0.00    +0.000 OA
ATOM     52  C   UNL     1     -39.592 102.060  14.103  0.00  0.00    +0.000 C 
BRANCH  52  53
ATOM     53  O   UNL     1     -40.623 101.976  13.199  0.00  0.00    +0.000 OA
ATOM     54  C   UNL     1     -41.895 102.351  13.732  0.00  0.00    +0.000 C 
ENDBRANCH  52  53
ENDBRANCH   7  52
BRANCH  20  55
ATOM     55  O   UNL     1     -32.464  99.252  15.596  0.00  0.00    +0.000 OA
ATOM     56  C   UNL     1     -32.908  98.045  16.208  0.00  0.00    +0.000 C 
ENDBRANCH  20  55
BRANCH   6  57
ATOM     57  C   UNL     1     -36.804 105.459  12.390  0.00  0.00    +0.000 C 
ATOM     58  C   UNL     1     -35.295 105.648  12.221  0.00  0.00    +0.000 C 
ENDBRANCH   6  57
BRANCH   9  59
ATOM     59  O   UNL     1     -39.360 104.667  15.104  0.00  0.00    +0.000 OA
BRANCH  59  61
ATOM     60  O   UNL     1     -41.124 105.711  14.082  0.00  0.00    +0.000 OA
ATOM     61  C   UNL     1     -40.484 105.432  15.086  0.00  0.00    +0.000 C 
ATOM     62  C   UNL     1     -40.844 105.854  16.476  0.00  0.00    +0.000 C 
ENDBRANCH  59  61
ENDBRANCH   9  59
TORSDOF 12
ENDMDL
MODEL 9
REMARK VINA RESULT:      -6.0     14.191     19.835
REMARK  Name = 
REMARK  19 active torsions:
REMARK  status: ('A' for Active; 'I' for Inactive)
REMARK    1  A    between atoms: O_1  and  C_20
REMARK    2  A    between atoms: O_1  and  C_36
REMARK    3  A    between atoms: O_2  and  C_18
REMARK    4  A    between atoms: O_3  and  C_28
REMARK    5  A    between atoms: O_3  and  C_42
REMARK    6  A    between atoms: O_5  and  C_34
REMARK    7  A    between atoms: O_5  and  C_50
REMARK    8  A    between atoms: O_7  and  C_40
REMARK    9  A    between atoms: O_7  and  C_56
REMARK   10  A    between atoms: O_9  and  C_46
REMARK   11  A    between atoms: N_11  and  C_30
REMARK   12  A    between atoms: C_17  and  C_23
REMARK   13  A    between atoms: C_18  and  C_28
REMARK   14  A    between atoms: C_23  and  C_32
REMARK   15  A    between atoms: C_33  and  C_35
REMARK   16  A    between atoms: C_35  and  C_40
REMARK   17  A    between atoms: C_36  and  C_41
REMARK   18  A    between atoms: C_46  and  C_53
REMARK   19  A    between atoms: C_53  and  C_57
REMARK                            x       y       z     vdW  Elec       q    Type
REMARK                         _______ _______ _______ _____ _____    ______ ____
ROOT
ATOM      1  N   UNL     1     -20.256 101.121   9.513  0.00  0.00    +0.000 NA
ATOM      2  N   UNL     1     -17.997  97.461   7.445  0.00  0.00    +0.000 N 
ATOM      3  C   UNL     1     -19.145  99.356   8.472  0.00  0.00    +0.000 C 
ATOM      4  C   UNL     1     -19.238 100.892   8.470  0.00  0.00    +0.000 C 
ATOM      5  C   UNL     1     -18.462  98.856   7.183  0.00  0.00    +0.000 C 
ATOM      6  C   UNL     1     -19.516 101.518   7.026  0.00  0.00    +0.000 C 
ATOM      7  C   UNL     1     -19.207  99.149   5.871  0.00  0.00    +0.000 C 
ATOM      8  C   UNL     1     -20.560  98.869   8.836  0.00  0.00    +0.000 C 
ATOM      9  C   UNL     1     -20.065 100.453   5.976  0.00  0.00    +0.000 C 
ATOM     10  C   UNL     1     -18.193  98.687   9.445  0.00  0.00    +0.000 A 
ATOM     11  C   UNL     1     -21.287 100.099   9.376  0.00  0.00    +0.000 C 
ATOM     12  C   UNL     1     -17.613  97.576   8.816  0.00  0.00    +0.000 A 
ATOM     13  C   UNL     1     -20.528 102.664   7.095  0.00  0.00    +0.000 C 
ATOM     14  C   UNL     1     -20.772 102.481   9.574  0.00  0.00    +0.000 C 
ATOM     15  C   UNL     1     -21.071 103.092   8.244  0.00  0.00    +0.000 C 
ATOM     16  C   UNL     1     -17.923  99.008  10.771  0.00  0.00    +0.000 A 
ATOM     17  C   UNL     1     -16.960  96.920   6.567  0.00  0.00    +0.000 C 
ATOM     18  C   UNL     1     -16.777  96.745   9.537  0.00  0.00    +0.000 A 
ATOM     19  C   UNL     1     -17.071  98.183  11.531  0.00  0.00    +0.000 A 
ATOM     20  C   UNL     1     -16.515  97.040  10.885  0.00  0.00    +0.000 A 
ENDROOT
BRANCH  19  23
ATOM     21  N   UNL     1     -15.882  98.636  17.272  0.00  0.00    +0.000 NA
ATOM     22  N   UNL     1     -14.392  98.920  12.223  0.00  0.00    +0.000 N 
ATOM     23  C   UNL     1     -16.750  98.486  13.050  0.00  0.00    +0.000 C 
ATOM     24  C   UNL     1     -16.715  97.143  13.914  0.00  0.00    +0.000 C 
ATOM     25  C   UNL     1     -15.345  99.162  13.198  0.00  0.00    +0.000 A 
ATOM     26  C   UNL     1     -16.082  97.233  15.312  0.00  0.00    +0.000 C 
ATOM     27  C   UNL     1     -15.930  95.896  16.037  0.00  0.00    +0.000 C 
ATOM     28  C   UNL     1     -16.819  98.156  16.272  0.00  0.00    +0.000 C 
ATOM     29  C   UNL     1     -14.708  99.942  14.180  0.00  0.00    +0.000 A 
ATOM     30  C   UNL     1     -15.248  96.070  17.427  0.00  0.00    +0.000 C 
ATOM     31  C   UNL     1     -15.327  97.517  18.065  0.00  0.00    +0.000 C 
ATOM     32  C   UNL     1     -15.195 100.457  15.525  0.00  0.00    +0.000 C 
ATOM     33  C   UNL     1     -14.831  99.535  16.728  0.00  0.00    +0.000 C 
ATOM     34  C   UNL     1     -13.363 100.188  13.714  0.00  0.00    +0.000 A 
ATOM     35  C   UNL     1     -13.205  99.540  12.498  0.00  0.00    +0.000 A 
ATOM     36  C   UNL     1     -12.257 100.896  14.236  0.00  0.00    +0.000 A 
ATOM     37  C   UNL     1     -12.012  99.563  11.764  0.00  0.00    +0.000 A 
ATOM     38  C   UNL     1     -11.055 100.933  13.520  0.00  0.00    +0.000 A 
ATOM     39  C   UNL     1     -10.937 100.275  12.301  0.00  0.00    +0.000 A 
ATOM     40  H   UNL     1     -14.551  98.368  11.390  0.00  0.00    +0.000 HD
BRANCH  23  42
ATOM     41  O   UNL     1     -17.897 100.638  13.622  0.00  0.00    +0.000 OA
ATOM     42  C   UNL     1     -17.911  99.416  13.533  0.00  0.00    +0.000 C 
BRANCH  42  43
ATOM     43  O   UNL     1     -19.021  98.662  13.835  0.00  0.00    +0.000 OA
ATOM     44  C   UNL     1     -20.250  99.384  13.758  0.00  0.00    +0.000 C 
ENDBRANCH  42  43
ENDBRANCH  23  42
BRANCH  30  45
ATOM     45  O   UNL     1     -15.957  95.171  18.315  0.00  0.00    +0.000 OA
ATOM     46  H   UNL     1     -15.645  94.268  18.124  0.00  0.00    +0.000 HD
ENDBRANCH  30  45
BRANCH  30  47
ATOM     47  C   UNL     1     -13.802  95.521  17.422  0.00  0.00    +0.000 C 
ATOM     48  C   UNL     1     -12.742  96.407  16.791  0.00  0.00    +0.000 C 
ENDBRANCH  30  47
ENDBRANCH  19  23
BRANCH   7  49
ATOM     49  O   UNL     1     -18.163  99.432   4.884  0.00  0.00    +0.000 OA
ATOM     50  H   UNL     1     -17.724  98.575   4.704  0.00  0.00    +0.000 HD
ENDBRANCH   7  49
BRANCH   7  52
ATOM     51  O   UNL     1     -20.707  97.179   6.061  0.00  0.00    +0.000 OA
ATOM     52  C   UNL     1     -20.033  97.935   5.375  0.00  0.00    +0.000 C 
BRANCH  52  53
ATOM     53  O   UNL     1     -19.969  97.863   4.005  0.00  0.00    +0.000 OA
ATOM     54  C   UNL     1     -19.617  96.571   3.507  0.00  0.00    +0.000 C 
ENDBRANCH  52  53
ENDBRANCH   7  52
BRANCH  20  55
ATOM     55  O   UNL     1     -15.654  96.262  11.617  0.00  0.00    +0.000 OA
ATOM     56  C   UNL     1     -15.239  95.055  10.984  0.00  0.00    +0.000 C 
ENDBRANCH  20  55
BRANCH   6  57
ATOM     57  C   UNL     1     -18.190 102.142   6.456  0.00  0.00    +0.000 C 
ATOM     58  C   UNL     1     -17.038 102.320   7.447  0.00  0.00    +0.000 C 
ENDBRANCH   6  57
BRANCH   9  59
ATOM     59  O   UNL     1     -21.447 100.171   6.299  0.00  0.00    +0.000 OA
BRANCH  59  61
ATOM     60  O   UNL     1     -22.178 100.428   4.143  0.00  0.00    +0.000 OA
ATOM     61  C   UNL     1     -22.379 100.454   5.349  0.00  0.00    +0.000 C 
ATOM     62  C   UNL     1     -23.693 100.769   5.993  0.00  0.00    +0.000 C 
ENDBRANCH  59  61
ENDBRANCH   9  59
TORSDOF 12
ENDMDL
