MODEL 1
REMARK VINA RESULT:      -5.1      0.000      0.000
REMARK  Name = Vorinostat.pdbqt.pdb
REMARK  6 active torsions:
REMARK  status: ('A' for Active; 'I' for Inactive)
REMARK    1  A    between atoms: C_1  and  C_2
REMARK    2  A    between atoms: C_3  and  C_4
REMARK    3  A    between atoms: C_5  and  C_8
REMARK    4  A    between atoms: N_7  and  O_10
REMARK    5  A    between atoms: C_12  and  C_15
REMARK    6  A    between atoms: N_14  and  C_17
REMARK                            x       y       z     vdW  Elec       q    Type
REMARK                         _______ _______ _______ _____ _____    ______ ____
ROOT
ATOM      1  C   UNL     1     -30.590  98.382  18.750  0.00  0.00    +0.000 C 
ATOM      2  C   UNL     1     -31.425  98.415  17.467  0.00  0.00    +0.000 C 
ENDROOT
BRANCH   2   5
ATOM      3  O   UNL     1     -32.067  97.543  15.446  0.00  0.00    +0.000 OA
ATOM      4  N   UNL     1     -33.059  99.526  16.165  0.00  0.00    +0.000 N 
ATOM      5  C   UNL     1     -32.212  98.445  16.256  0.00  0.00    +0.000 C 
ATOM      6  H   UNL     1     -33.055 100.186  16.933  0.00  0.00    +0.000 HD
BRANCH   4   7
ATOM      7  C   UNL     1     -33.931  99.794  15.096  0.00  0.00    +0.000 A 
ATOM      8  C   UNL     1     -33.503 100.691  14.116  0.00  0.00    +0.000 A 
ATOM      9  C   UNL     1     -35.190  99.205  14.980  0.00  0.00    +0.000 A 
ATOM     10  C   UNL     1     -34.324 100.997  13.033  0.00  0.00    +0.000 A 
ATOM     11  C   UNL     1     -36.013  99.509  13.898  0.00  0.00    +0.000 A 
ATOM     12  C   UNL     1     -35.580 100.405  12.924  0.00  0.00    +0.000 A 
ENDBRANCH   4   7
ENDBRANCH   2   5
BRANCH   1  13
ATOM     13  C   UNL     1     -29.755  98.347  20.033  0.00  0.00    +0.000 C 
ATOM     14  C   UNL     1     -28.920  98.312  21.317  0.00  0.00    +0.000 C 
BRANCH  14  15
ATOM     15  C   UNL     1     -28.086  98.276  22.601  0.00  0.00    +0.000 C 
ATOM     16  C   UNL     1     -27.253  98.240  23.886  0.00  0.00    +0.000 C 
BRANCH  16  19
ATOM     17  O   UNL     1     -26.079  99.244  25.610  0.00  0.00    +0.000 OA
ATOM     18  N   UNL     1     -26.218  96.963  25.605  0.00  0.00    +0.000 N 
ATOM     19  C   UNL     1     -26.473  98.205  25.094  0.00  0.00    +0.000 C 
ATOM     20  H   UNL     1     -26.568  96.097  25.215  0.00  0.00    +0.000 HD
BRANCH  18  21
ATOM     21  O   UNL     1     -25.483  96.889  26.808  0.00  0.00    +0.000 OA
ATOM     22  H   UNL     1     -26.096  96.409  27.407  0.00  0.00    +0.000 HD
ENDBRANCH  18  21
ENDBRANCH  16  19
ENDBRANCH  14  15
ENDBRANCH   1  13
TORSDOF 6
ENDMDL
MODEL 2
REMARK VINA RESULT:      -4.9     17.536     21.402
REMARK  Name = Vorinostat.pdbqt.pdb
REMARK  6 active torsions:
REMARK  status: ('A' for Active; 'I' for Inactive)
REMARK    1  A    between atoms: C_1  and  C_2
REMARK    2  A    between atoms: C_3  and  C_4
REMARK    3  A    between atoms: C_5  and  C_8
REMARK    4  A    between atoms: N_7  and  O_10
REMARK    5  A    between atoms: C_12  and  C_15
REMARK    6  A    between atoms: N_14  and  C_17
REMARK                            x       y       z     vdW  Elec       q    Type
REMARK                         _______ _______ _______ _____ _____    ______ ____
ROOT
ATOM      1  C   UNL     1     -45.550 100.845   4.278  0.00  0.00    +0.000 C 
ATOM      2  C   UNL     1     -47.008 100.382   4.195  0.00  0.00    +0.000 C 
ENDROOT
BRANCH   2   5
ATOM      3  O   UNL     1     -49.184 100.649   3.522  0.00  0.00    +0.000 OA
ATOM      4  N   UNL     1     -48.626  98.748   4.750  0.00  0.00    +0.000 N 
ATOM      5  C   UNL     1     -48.383  99.946   4.119  0.00  0.00    +0.000 C 
ATOM      6  H   UNL     1     -47.842  98.292   5.201  0.00  0.00    +0.000 HD
BRANCH   4   7
ATOM      7  C   UNL     1     -49.872  98.101   4.826  0.00  0.00    +0.000 A 
ATOM      8  C   UNL     1     -50.041  96.927   4.090  0.00  0.00    +0.000 A 
ATOM      9  C   UNL     1     -50.927  98.581   5.600  0.00  0.00    +0.000 A 
ATOM     10  C   UNL     1     -51.254  96.242   4.126  0.00  0.00    +0.000 A 
ATOM     11  C   UNL     1     -52.141  97.897   5.638  0.00  0.00    +0.000 A 
ATOM     12  C   UNL     1     -52.304  96.727   4.901  0.00  0.00    +0.000 A 
ENDBRANCH   4   7
ENDBRANCH   2   5
BRANCH   1  13
ATOM     13  C   UNL     1     -44.093 101.308   4.361  0.00  0.00    +0.000 C 
ATOM     14  C   UNL     1     -42.635 101.771   4.445  0.00  0.00    +0.000 C 
BRANCH  14  15
ATOM     15  C   UNL     1     -41.178 102.234   4.528  0.00  0.00    +0.000 C 
ATOM     16  C   UNL     1     -39.720 102.695   4.612  0.00  0.00    +0.000 C 
BRANCH  16  19
ATOM     17  O   UNL     1     -38.049 104.126   5.332  0.00  0.00    +0.000 OA
ATOM     18  N   UNL     1     -37.441 102.355   4.022  0.00  0.00    +0.000 N 
ATOM     19  C   UNL     1     -38.350 103.126   4.691  0.00  0.00    +0.000 C 
ATOM     20  H   UNL     1     -37.666 101.505   3.521  0.00  0.00    +0.000 HD
BRANCH  18  21
ATOM     21  O   UNL     1     -36.081 102.727   4.103  0.00  0.00    +0.000 OA
ATOM     22  H   UNL     1     -35.687 101.992   4.623  0.00  0.00    +0.000 HD
ENDBRANCH  18  21
ENDBRANCH  16  19
ENDBRANCH  14  15
ENDBRANCH   1  13
TORSDOF 6
ENDMDL
MODEL 3
REMARK VINA RESULT:      -4.8     19.078     21.983
REMARK  Name = Vorinostat.pdbqt.pdb
REMARK  6 active torsions:
REMARK  status: ('A' for Active; 'I' for Inactive)
REMARK    1  A    between atoms: C_1  and  C_2
REMARK    2  A    between atoms: C_3  and  C_4
REMARK    3  A    between atoms: C_5  and  C_8
REMARK    4  A    between atoms: N_7  and  O_10
REMARK    5  A    between atoms: C_12  and  C_15
REMARK    6  A    between atoms: N_14  and  C_17
REMARK                            x       y       z     vdW  Elec       q    Type
REMARK                         _______ _______ _______ _____ _____    ______ ____
ROOT
ATOM      1  C   UNL     1     -24.016 103.134  -1.071  0.00  0.00    +0.000 C 
ATOM      2  C   UNL     1     -24.149 103.292  -2.588  0.00  0.00    +0.000 C 
ENDROOT
BRANCH   2   5
ATOM      3  O   UNL     1     -24.944 104.368  -4.450  0.00  0.00    +0.000 OA
ATOM      4  N   UNL     1     -23.605 102.483  -4.745  0.00  0.00    +0.000 N 
ATOM      5  C   UNL     1     -24.276 103.441  -4.020  0.00  0.00    +0.000 C 
ATOM      6  H   UNL     1     -23.096 101.779  -4.225  0.00  0.00    +0.000 HD
BRANCH   4   7
ATOM      7  C   UNL     1     -23.564 102.397  -6.147  0.00  0.00    +0.000 A 
ATOM      8  C   UNL     1     -22.587 103.134  -6.816  0.00  0.00    +0.000 A 
ATOM      9  C   UNL     1     -24.451 101.612  -6.882  0.00  0.00    +0.000 A 
ATOM     10  C   UNL     1     -22.498 103.089  -8.206  0.00  0.00    +0.000 A 
ATOM     11  C   UNL     1     -24.364 101.564  -8.272  0.00  0.00    +0.000 A 
ATOM     12  C   UNL     1     -23.387 102.302  -8.934  0.00  0.00    +0.000 A 
ENDBRANCH   4   7
ENDBRANCH   2   5
BRANCH   1  13
ATOM     13  C   UNL     1     -23.883 102.978   0.446  0.00  0.00    +0.000 C 
ATOM     14  C   UNL     1     -23.751 102.821   1.965  0.00  0.00    +0.000 C 
BRANCH  14  15
ATOM     15  C   UNL     1     -23.620 102.665   3.482  0.00  0.00    +0.000 C 
ATOM     16  C   UNL     1     -23.487 102.509   5.000  0.00  0.00    +0.000 C 
BRANCH  16  19
ATOM     17  O   UNL     1     -22.837 103.245   7.097  0.00  0.00    +0.000 OA
ATOM     18  N   UNL     1     -23.861 101.207   6.955  0.00  0.00    +0.000 N 
ATOM     19  C   UNL     1     -23.361 102.364   6.426  0.00  0.00    +0.000 C 
ATOM     20  H   UNL     1     -24.332 100.487   6.422  0.00  0.00    +0.000 HD
BRANCH  18  21
ATOM     21  O   UNL     1     -23.786 101.042   8.355  0.00  0.00    +0.000 OA
ATOM     22  H   UNL     1     -24.429 101.707   8.686  0.00  0.00    +0.000 HD
ENDBRANCH  18  21
ENDBRANCH  16  19
ENDBRANCH  14  15
ENDBRANCH   1  13
TORSDOF 6
ENDMDL
MODEL 4
REMARK VINA RESULT:      -4.7     31.292     33.536
REMARK  Name = Vorinostat.pdbqt.pdb
REMARK  6 active torsions:
REMARK  status: ('A' for Active; 'I' for Inactive)
REMARK    1  A    between atoms: C_1  and  C_2
REMARK    2  A    between atoms: C_3  and  C_4
REMARK    3  A    between atoms: C_5  and  C_8
REMARK    4  A    between atoms: N_7  and  O_10
REMARK    5  A    between atoms: C_12  and  C_15
REMARK    6  A    between atoms: N_14  and  C_17
REMARK                            x       y       z     vdW  Elec       q    Type
REMARK                         _______ _______ _______ _____ _____    ______ ____
ROOT
ATOM      1  C   UNL     1     -29.448  96.995 -14.275  0.00  0.00    +0.000 C 
ATOM      2  C   UNL     1     -30.905  97.350 -13.963  0.00  0.00    +0.000 C 
ENDROOT
BRANCH   2   5
ATOM      3  O   UNL     1     -33.162  97.108 -14.285  0.00  0.00    +0.000 OA
ATOM      4  N   UNL     1     -32.427  98.644 -12.694  0.00  0.00    +0.000 N 
ATOM      5  C   UNL     1     -32.279  97.684 -13.669  0.00  0.00    +0.000 C 
ATOM      6  H   UNL     1     -31.582  99.021 -12.281  0.00  0.00    +0.000 HD
BRANCH   4   7
ATOM      7  C   UNL     1     -33.650  99.148 -12.220  0.00  0.00    +0.000 A 
ATOM      8  C   UNL     1     -34.189 100.261 -12.867  0.00  0.00    +0.000 A 
ATOM      9  C   UNL     1     -34.334  98.585 -11.144  0.00  0.00    +0.000 A 
ATOM     10  C   UNL     1     -35.399 100.806 -12.442  0.00  0.00    +0.000 A 
ATOM     11  C   UNL     1     -35.545  99.128 -10.717  0.00  0.00    +0.000 A 
ATOM     12  C   UNL     1     -36.077 100.238 -11.366  0.00  0.00    +0.000 A 
ENDBRANCH   4   7
ENDBRANCH   2   5
BRANCH   1  13
ATOM     13  C   UNL     1     -27.992  96.638 -14.586  0.00  0.00    +0.000 C 
ATOM     14  C   UNL     1     -26.536  96.280 -14.898  0.00  0.00    +0.000 C 
BRANCH  14  15
ATOM     15  C   UNL     1     -25.080  95.922 -15.209  0.00  0.00    +0.000 C 
ATOM     16  C   UNL     1     -23.623  95.563 -15.520  0.00  0.00    +0.000 C 
BRANCH  16  19
ATOM     17  O   UNL     1     -21.368  96.058 -15.682  0.00  0.00    +0.000 OA
ATOM     18  N   UNL     1     -22.033  93.940 -16.221  0.00  0.00    +0.000 N 
ATOM     19  C   UNL     1     -22.256  95.224 -15.810  0.00  0.00    +0.000 C 
ATOM     20  H   UNL     1     -22.748  93.227 -16.294  0.00  0.00    +0.000 HD
BRANCH  18  21
ATOM     21  O   UNL     1     -20.700  93.559 -16.484  0.00  0.00    +0.000 OA
ATOM     22  H   UNL     1     -20.205  93.979 -15.746  0.00  0.00    +0.000 HD
ENDBRANCH  18  21
ENDBRANCH  16  19
ENDBRANCH  14  15
ENDBRANCH   1  13
TORSDOF 6
ENDMDL
MODEL 5
REMARK VINA RESULT:      -4.5     18.509     22.208
REMARK  Name = Vorinostat.pdbqt.pdb
REMARK  6 active torsions:
REMARK  status: ('A' for Active; 'I' for Inactive)
REMARK    1  A    between atoms: C_1  and  C_2
REMARK    2  A    between atoms: C_3  and  C_4
REMARK    3  A    between atoms: C_5  and  C_8
REMARK    4  A    between atoms: N_7  and  O_10
REMARK    5  A    between atoms: C_12  and  C_15
REMARK    6  A    between atoms: N_14  and  C_17
REMARK                            x       y       z     vdW  Elec       q    Type
REMARK                         _______ _______ _______ _____ _____    ______ ____
ROOT
ATOM      1  C   UNL     1     -43.922 100.926   2.215  0.00  0.00    +0.000 C 
ATOM      2  C   UNL     1     -45.374 100.457   2.088  0.00  0.00    +0.000 C 
ENDROOT
BRANCH   2   5
ATOM      3  O   UNL     1     -47.614 100.657   2.532  0.00  0.00    +0.000 OA
ATOM      4  N   UNL     1     -46.900  98.878   1.207  0.00  0.00    +0.000 N 
ATOM      5  C   UNL     1     -46.743 100.013   1.969  0.00  0.00    +0.000 C 
ATOM      6  H   UNL     1     -46.064  98.466   0.809  0.00  0.00    +0.000 HD
BRANCH   4   7
ATOM      7  C   UNL     1     -48.121  98.238   0.932  0.00  0.00    +0.000 A 
ATOM      8  C   UNL     1     -48.491  97.165   1.745  0.00  0.00    +0.000 A 
ATOM      9  C   UNL     1     -48.964  98.631  -0.106  0.00  0.00    +0.000 A 
ATOM     10  C   UNL     1     -49.689  96.492   1.521  0.00  0.00    +0.000 A 
ATOM     11  C   UNL     1     -50.164  97.960  -0.332  0.00  0.00    +0.000 A 
ATOM     12  C   UNL     1     -50.527  96.890   0.482  0.00  0.00    +0.000 A 
ENDBRANCH   4   7
ENDBRANCH   2   5
BRANCH   1  13
ATOM     13  C   UNL     1     -42.470 101.396   2.344  0.00  0.00    +0.000 C 
ATOM     14  C   UNL     1     -41.018 101.866   2.474  0.00  0.00    +0.000 C 
BRANCH  14  15
ATOM     15  C   UNL     1     -39.567 102.337   2.604  0.00  0.00    +0.000 C 
ATOM     16  C   UNL     1     -38.114 102.807   2.733  0.00  0.00    +0.000 C 
BRANCH  16  19
ATOM     17  O   UNL     1     -36.089 102.956   3.843  0.00  0.00    +0.000 OA
ATOM     18  N   UNL     1     -36.265 103.983   1.810  0.00  0.00    +0.000 N 
ATOM     19  C   UNL     1     -36.750 103.246   2.854  0.00  0.00    +0.000 C 
ATOM     20  H   UNL     1     -36.784 104.198   0.967  0.00  0.00    +0.000 HD
BRANCH  18  21
ATOM     21  O   UNL     1     -34.919 104.405   1.876  0.00  0.00    +0.000 OA
ATOM     22  H   UNL     1     -34.571 104.155   0.992  0.00  0.00    +0.000 HD
ENDBRANCH  18  21
ENDBRANCH  16  19
ENDBRANCH  14  15
ENDBRANCH   1  13
TORSDOF 6
ENDMDL
MODEL 6
REMARK VINA RESULT:      -4.4     14.698     17.287
REMARK  Name = Vorinostat.pdbqt.pdb
REMARK  6 active torsions:
REMARK  status: ('A' for Active; 'I' for Inactive)
REMARK    1  A    between atoms: C_1  and  C_2
REMARK    2  A    between atoms: C_3  and  C_4
REMARK    3  A    between atoms: C_5  and  C_8
REMARK    4  A    between atoms: N_7  and  O_10
REMARK    5  A    between atoms: C_12  and  C_15
REMARK    6  A    between atoms: N_14  and  C_17
REMARK                            x       y       z     vdW  Elec       q    Type
REMARK                         _______ _______ _______ _____ _____    ______ ____
ROOT
ATOM      1  C   UNL     1     -34.919  85.230  16.607  0.00  0.00    +0.000 C 
ATOM      2  C   UNL     1     -34.399  86.624  16.970  0.00  0.00    +0.000 C 
ENDROOT
BRANCH   2   5
ATOM      3  O   UNL     1     -34.710  88.857  17.386  0.00  0.00    +0.000 OA
ATOM      4  N   UNL     1     -32.548  87.995  17.512  0.00  0.00    +0.000 N 
ATOM      5  C   UNL     1     -33.908  87.939  17.309  0.00  0.00    +0.000 C 
ATOM      6  H   UNL     1     -32.027  87.133  17.407  0.00  0.00    +0.000 HD
BRANCH   4   7
ATOM      7  C   UNL     1     -31.817  89.146  17.852  0.00  0.00    +0.000 A 
ATOM      8  C   UNL     1     -31.942  89.636  19.153  0.00  0.00    +0.000 A 
ATOM      9  C   UNL     1     -30.984  89.806  16.950  0.00  0.00    +0.000 A 
ATOM     10  C   UNL     1     -31.242  90.775  19.547  0.00  0.00    +0.000 A 
ATOM     11  C   UNL     1     -30.282  90.945  17.342  0.00  0.00    +0.000 A 
ATOM     12  C   UNL     1     -30.412  91.428  18.641  0.00  0.00    +0.000 A 
ENDBRANCH   4   7
ENDBRANCH   2   5
BRANCH   1  13
ATOM     13  C   UNL     1     -35.441  83.837  16.245  0.00  0.00    +0.000 C 
ATOM     14  C   UNL     1     -35.962  82.442  15.883  0.00  0.00    +0.000 C 
BRANCH  14  15
ATOM     15  C   UNL     1     -36.483  81.049  15.520  0.00  0.00    +0.000 C 
ATOM     16  C   UNL     1     -37.003  79.654  15.158  0.00  0.00    +0.000 C 
BRANCH  16  19
ATOM     17  O   UNL     1     -37.314  77.884  13.699  0.00  0.00    +0.000 OA
ATOM     18  N   UNL     1     -38.144  77.675  15.817  0.00  0.00    +0.000 N 
ATOM     19  C   UNL     1     -37.492  78.345  14.820  0.00  0.00    +0.000 C 
ATOM     20  H   UNL     1     -38.265  78.022  16.760  0.00  0.00    +0.000 HD
BRANCH  18  21
ATOM     21  O   UNL     1     -38.609  76.372  15.535  0.00  0.00    +0.000 OA
ATOM     22  H   UNL     1     -37.817  75.817  15.706  0.00  0.00    +0.000 HD
ENDBRANCH  18  21
ENDBRANCH  16  19
ENDBRANCH  14  15
ENDBRANCH   1  13
TORSDOF 6
ENDMDL
MODEL 7
REMARK VINA RESULT:      -4.4     14.188     14.572
REMARK  Name = Vorinostat.pdbqt.pdb
REMARK  6 active torsions:
REMARK  status: ('A' for Active; 'I' for Inactive)
REMARK    1  A    between atoms: C_1  and  C_2
REMARK    2  A    between atoms: C_3  and  C_4
REMARK    3  A    between atoms: C_5  and  C_8
REMARK    4  A    between atoms: N_7  and  O_10
REMARK    5  A    between atoms: C_12  and  C_15
REMARK    6  A    between atoms: N_14  and  C_17
REMARK                            x       y       z     vdW  Elec       q    Type
REMARK                         _______ _______ _______ _____ _____    ______ ____
ROOT
ATOM      1  C   UNL     1     -19.770  99.102   9.020  0.00  0.00    +0.000 C 
ATOM      2  C   UNL     1     -20.526  99.154   7.690  0.00  0.00    +0.000 C 
ENDROOT
BRANCH   2   5
ATOM      3  O   UNL     1     -21.124  98.262   5.664  0.00  0.00    +0.000 OA
ATOM      4  N   UNL     1     -21.991 100.342   6.261  0.00  0.00    +0.000 N 
ATOM      5  C   UNL     1     -21.241  99.202   6.435  0.00  0.00    +0.000 C 
ATOM      6  H   UNL     1     -21.976 101.027   7.006  0.00  0.00    +0.000 HD
BRANCH   4   7
ATOM      7  C   UNL     1     -22.779 100.639   5.135  0.00  0.00    +0.000 A 
ATOM      8  C   UNL     1     -22.140 101.183   4.019  0.00  0.00    +0.000 A 
ATOM      9  C   UNL     1     -24.154 100.413   5.093  0.00  0.00    +0.000 A 
ATOM     10  C   UNL     1     -22.869 101.498   2.875  0.00  0.00    +0.000 A 
ATOM     11  C   UNL     1     -24.885 100.728   3.949  0.00  0.00    +0.000 A 
ATOM     12  C   UNL     1     -24.242 101.270   2.840  0.00  0.00    +0.000 A 
ENDBRANCH   4   7
ENDBRANCH   2   5
BRANCH   1  13
ATOM     13  C   UNL     1     -19.016  99.052  10.352  0.00  0.00    +0.000 C 
ATOM     14  C   UNL     1     -18.261  99.000  11.684  0.00  0.00    +0.000 C 
BRANCH  14  15
ATOM     15  C   UNL     1     -17.508  98.948  13.016  0.00  0.00    +0.000 C 
ATOM     16  C   UNL     1     -16.755  98.898  14.349  0.00  0.00    +0.000 C 
BRANCH  16  19
ATOM     17  O   UNL     1     -14.918  99.314  15.696  0.00  0.00    +0.000 OA
ATOM     18  N   UNL     1     -16.720  98.278  16.645  0.00  0.00    +0.000 N 
ATOM     19  C   UNL     1     -16.049  98.852  15.602  0.00  0.00    +0.000 C 
ATOM     20  H   UNL     1     -17.669  97.928  16.596  0.00  0.00    +0.000 HD
BRANCH  18  21
ATOM     21  O   UNL     1     -16.073  98.244  17.900  0.00  0.00    +0.000 OA
ATOM     22  H   UNL     1     -16.298  97.347  18.233  0.00  0.00    +0.000 HD
ENDBRANCH  18  21
ENDBRANCH  16  19
ENDBRANCH  14  15
ENDBRANCH   1  13
TORSDOF 6
ENDMDL
MODEL 8
REMARK VINA RESULT:      -4.2     18.511     19.205
REMARK  Name = Vorinostat.pdbqt.pdb
REMARK  6 active torsions:
REMARK  status: ('A' for Active; 'I' for Inactive)
REMARK    1  A    between atoms: C_1  and  C_2
REMARK    2  A    between atoms: C_3  and  C_4
REMARK    3  A    between atoms: C_5  and  C_8
REMARK    4  A    between atoms: N_7  and  O_10
REMARK    5  A    between atoms: C_12  and  C_15
REMARK    6  A    between atoms: N_14  and  C_17
REMARK                            x       y       z     vdW  Elec       q    Type
REMARK                         _______ _______ _______ _____ _____    ______ ____
ROOT
ATOM      1  C   UNL     1     -36.267 103.950   2.934  0.00  0.00    +0.000 C 
ATOM      2  C   UNL     1     -37.553 103.124   3.041  0.00  0.00    +0.000 C 
ENDROOT
BRANCH   2   5
ATOM      3  O   UNL     1     -38.928 101.647   4.129  0.00  0.00    +0.000 OA
ATOM      4  N   UNL     1     -39.619 102.500   2.073  0.00  0.00    +0.000 N 
ATOM      5  C   UNL     1     -38.766 102.347   3.141  0.00  0.00    +0.000 C 
ATOM      6  H   UNL     1     -39.328 103.125   1.331  0.00  0.00    +0.000 HD
BRANCH   4   7
ATOM      7  C   UNL     1     -40.862 101.861   1.919  0.00  0.00    +0.000 A 
ATOM      8  C   UNL     1     -41.085 101.146   0.742  0.00  0.00    +0.000 A 
ATOM      9  C   UNL     1     -41.864 101.915   2.887  0.00  0.00    +0.000 A 
ATOM     10  C   UNL     1     -42.298 100.492   0.533  0.00  0.00    +0.000 A 
ATOM     11  C   UNL     1     -43.078 101.262   2.681  0.00  0.00    +0.000 A 
ATOM     12  C   UNL     1     -43.294 100.550   1.504  0.00  0.00    +0.000 A 
ENDBRANCH   4   7
ENDBRANCH   2   5
BRANCH   1  13
ATOM     13  C   UNL     1     -34.982 104.774   2.824  0.00  0.00    +0.000 C 
ATOM     14  C   UNL     1     -33.696 105.600   2.716  0.00  0.00    +0.000 C 
BRANCH  14  15
ATOM     15  C   UNL     1     -32.411 106.425   2.608  0.00  0.00    +0.000 C 
ATOM     16  C   UNL     1     -31.125 107.251   2.499  0.00  0.00    +0.000 C 
BRANCH  16  19
ATOM     17  O   UNL     1     -29.936 109.235   2.582  0.00  0.00    +0.000 OA
ATOM     18  N   UNL     1     -28.784 107.326   2.087  0.00  0.00    +0.000 N 
ATOM     19  C   UNL     1     -29.917 108.025   2.395  0.00  0.00    +0.000 C 
ATOM     20  H   UNL     1     -28.742 106.321   1.968  0.00  0.00    +0.000 HD
BRANCH  18  21
ATOM     21  O   UNL     1     -27.572 108.045   2.007  0.00  0.00    +0.000 OA
ATOM     22  H   UNL     1     -27.776 108.867   2.506  0.00  0.00    +0.000 HD
ENDBRANCH  18  21
ENDBRANCH  16  19
ENDBRANCH  14  15
ENDBRANCH   1  13
TORSDOF 6
ENDMDL
MODEL 9
REMARK VINA RESULT:      -4.2     15.012     15.664
REMARK  Name = Vorinostat.pdbqt.pdb
REMARK  6 active torsions:
REMARK  status: ('A' for Active; 'I' for Inactive)
REMARK    1  A    between atoms: C_1  and  C_2
REMARK    2  A    between atoms: C_3  and  C_4
REMARK    3  A    between atoms: C_5  and  C_8
REMARK    4  A    between atoms: N_7  and  O_10
REMARK    5  A    between atoms: C_12  and  C_15
REMARK    6  A    between atoms: N_14  and  C_17
REMARK                            x       y       z     vdW  Elec       q    Type
REMARK                         _______ _______ _______ _____ _____    ______ ____
ROOT
ATOM      1  C   UNL     1     -35.418 106.910   6.643  0.00  0.00    +0.000 C 
ATOM      2  C   UNL     1     -36.613 106.247   5.951  0.00  0.00    +0.000 C 
ENDROOT
BRANCH   2   5
ATOM      3  O   UNL     1     -38.545 106.335   4.720  0.00  0.00    +0.000 OA
ATOM      4  N   UNL     1     -37.766 104.252   5.418  0.00  0.00    +0.000 N 
ATOM      5  C   UNL     1     -37.740 105.622   5.299  0.00  0.00    +0.000 C 
ATOM      6  H   UNL     1     -37.014 103.816   5.937  0.00  0.00    +0.000 HD
BRANCH   4   7
ATOM      7  C   UNL     1     -38.749 103.402   4.880  0.00  0.00    +0.000 A 
ATOM      8  C   UNL     1     -38.450 102.728   3.695  0.00  0.00    +0.000 A 
ATOM      9  C   UNL     1     -39.993 103.211   5.480  0.00  0.00    +0.000 A 
ATOM     10  C   UNL     1     -39.384 101.873   3.116  0.00  0.00    +0.000 A 
ATOM     11  C   UNL     1     -40.930 102.355   4.903  0.00  0.00    +0.000 A 
ATOM     12  C   UNL     1     -40.625 101.686   3.720  0.00  0.00    +0.000 A 
ENDBRANCH   4   7
ENDBRANCH   2   5
BRANCH   1  13
ATOM     13  C   UNL     1     -34.224 107.573   7.335  0.00  0.00    +0.000 C 
ATOM     14  C   UNL     1     -33.030 108.236   8.029  0.00  0.00    +0.000 C 
BRANCH  14  15
ATOM     15  C   UNL     1     -31.836 108.898   8.723  0.00  0.00    +0.000 C 
ATOM     16  C   UNL     1     -30.643 109.563   9.416  0.00  0.00    +0.000 C 
BRANCH  16  19
ATOM     17  O   UNL     1     -29.697 111.114  10.851  0.00  0.00    +0.000 OA
ATOM     18  N   UNL     1     -28.292 109.680   9.759  0.00  0.00    +0.000 N 
ATOM     19  C   UNL     1     -29.523 110.188  10.068  0.00  0.00    +0.000 C 
ATOM     20  H   UNL     1     -28.133 108.890   9.146  0.00  0.00    +0.000 HD
BRANCH  18  21
ATOM     21  O   UNL     1     -27.171 110.246  10.403  0.00  0.00    +0.000 OA
ATOM     22  H   UNL     1     -26.490 110.241   9.695  0.00  0.00    +0.000 HD
ENDBRANCH  18  21
ENDBRANCH  16  19
ENDBRANCH  14  15
ENDBRANCH   1  13
TORSDOF 6
ENDMDL
