MODEL 1
REMARK VINA RESULT:      -7.0      0.000      0.000
REMARK  Name = 10074640_Masitinib.pdbqt.pdb
REMARK  6 active torsions:
REMARK  status: ('A' for Active; 'I' for Inactive)
REMARK    1  A    between atoms: C_1  and  N_22
REMARK    2  A    between atoms: C_2  and  N_9
REMARK    3  A    between atoms: C_12  and  C_16
REMARK    4  A    between atoms: C_23  and  C_30
REMARK    5  A    between atoms: C_25  and  C_31
REMARK    6  A    between atoms: C_31  and  N_32
REMARK                            x       y       z     vdW  Elec       q    Type
REMARK                         _______ _______ _______ _____ _____    ______ ____
ROOT
ATOM      1  C   UNL     1      -6.680 -12.541   0.523  0.00  0.00    +0.000 A 
ATOM      2  C   UNL     1      -4.419 -12.242  -0.370  0.00  0.00    +0.000 A 
ATOM      3  C   UNL     1      -5.636 -12.934  -0.317  0.00  0.00    +0.000 A 
ATOM      4  C   UNL     1      -4.282 -11.117   0.467  0.00  0.00    +0.000 A 
ATOM      5  C   UNL     1      -6.521 -11.411   1.321  0.00  0.00    +0.000 A 
ATOM      6  C   UNL     1      -5.321 -10.704   1.301  0.00  0.00    +0.000 A 
ATOM      7  C   UNL     1      -2.995 -10.318   0.480  0.00  0.00    +0.000 C 
ENDROOT
BRANCH   2   9
ATOM      8  S   UNL     1      -1.414 -14.024  -2.392  0.00  0.00    +0.000 S 
ATOM      9  N   UNL     1      -3.380 -12.619  -1.255  0.00  0.00    +0.000 N 
ATOM     10  N   UNL     1      -3.090 -14.904  -0.660  0.00  0.00    +0.000 NA
ATOM     11  C   UNL     1      -2.760 -13.819  -1.323  0.00  0.00    +0.000 A 
ATOM     12  C   UNL     1      -2.241 -15.952  -0.960  0.00  0.00    +0.000 A 
ATOM     13  C   UNL     1      -1.273 -15.637  -1.883  0.00  0.00    +0.000 A 
ATOM     14  H   UNL     1      -3.112 -11.885  -1.907  0.00  0.00    +0.000 HD
BRANCH  12  16
ATOM     15  N   UNL     1      -3.777 -18.806   0.893  0.00  0.00    +0.000 NA
ATOM     16  C   UNL     1      -2.391 -17.256  -0.354  0.00  0.00    +0.000 A 
ATOM     17  C   UNL     1      -1.395 -18.225  -0.438  0.00  0.00    +0.000 A 
ATOM     18  C   UNL     1      -3.552 -17.595   0.325  0.00  0.00    +0.000 A 
ATOM     19  C   UNL     1      -1.580 -19.475   0.142  0.00  0.00    +0.000 A 
ATOM     20  C   UNL     1      -2.781 -19.711   0.789  0.00  0.00    +0.000 A 
ENDBRANCH  12  16
ENDBRANCH   2   9
BRANCH   1  22
ATOM     21  O   UNL     1      -7.419 -14.727   2.288  0.00  0.00    +0.000 OA
ATOM     22  N   UNL     1      -7.909 -13.227   0.586  0.00  0.00    +0.000 N 
ATOM     23  C   UNL     1      -8.177 -14.298   1.427  0.00  0.00    +0.000 C 
ATOM     24  H   UNL     1      -8.647 -12.877  -0.014  0.00  0.00    +0.000 HD
BRANCH  23  30
ATOM     25  C   UNL     1     -11.952 -16.240   0.971  0.00  0.00    +0.000 A 
ATOM     26  C   UNL     1     -11.866 -14.865   0.765  0.00  0.00    +0.000 A 
ATOM     27  C   UNL     1     -10.821 -16.970   1.325  0.00  0.00    +0.000 A 
ATOM     28  C   UNL     1     -10.641 -14.218   0.914  0.00  0.00    +0.000 A 
ATOM     29  C   UNL     1      -9.598 -16.321   1.474  0.00  0.00    +0.000 A 
ATOM     30  C   UNL     1      -9.504 -14.942   1.271  0.00  0.00    +0.000 A 
BRANCH  25  31
ATOM     31  C   UNL     1     -13.205 -16.904   0.818  0.00  0.00    +0.000 C 
BRANCH  31  32
ATOM     32  N   UNL     1     -14.487 -17.580   0.660  0.00  0.00    +0.000 N 
ATOM     33  N   UNL     1     -15.463 -18.239  -2.689  0.00  0.00    +0.000 N 
ATOM     34  C   UNL     1     -15.275 -16.787  -0.324  0.00  0.00    +0.000 C 
ATOM     35  C   UNL     1     -14.253 -18.746  -0.237  0.00  0.00    +0.000 C 
ATOM     36  C   UNL     1     -15.710 -17.080  -1.788  0.00  0.00    +0.000 C 
ATOM     37  C   UNL     1     -14.687 -19.039  -1.701  0.00  0.00    +0.000 C 
ATOM     38  C   UNL     1     -16.739 -18.915  -2.875  0.00  0.00    +0.000 C 
ENDBRANCH  31  32
ENDBRANCH  25  31
ENDBRANCH  23  30
ENDBRANCH   1  22
TORSDOF 6
ENDMDL
MODEL 2
REMARK VINA RESULT:      -6.7     18.176     22.010
REMARK  Name = 10074640_Masitinib.pdbqt.pdb
REMARK  6 active torsions:
REMARK  status: ('A' for Active; 'I' for Inactive)
REMARK    1  A    between atoms: C_1  and  N_22
REMARK    2  A    between atoms: C_2  and  N_9
REMARK    3  A    between atoms: C_12  and  C_16
REMARK    4  A    between atoms: C_23  and  C_30
REMARK    5  A    between atoms: C_25  and  C_31
REMARK    6  A    between atoms: C_31  and  N_32
REMARK                            x       y       z     vdW  Elec       q    Type
REMARK                         _______ _______ _______ _____ _____    ______ ____
ROOT
ATOM      1  C   UNL     1      -7.092 -33.216  -4.387  0.00  0.00    +0.000 A 
ATOM      2  C   UNL     1      -8.472 -34.320  -2.691  0.00  0.00    +0.000 A 
ATOM      3  C   UNL     1      -7.608 -34.369  -3.794  0.00  0.00    +0.000 A 
ATOM      4  C   UNL     1      -8.807 -33.045  -2.194  0.00  0.00    +0.000 A 
ATOM      5  C   UNL     1      -7.425 -31.972  -3.857  0.00  0.00    +0.000 A 
ATOM      6  C   UNL     1      -8.289 -31.884  -2.768  0.00  0.00    +0.000 A 
ATOM      7  C   UNL     1      -9.744 -32.900  -1.012  0.00  0.00    +0.000 C 
ENDROOT
BRANCH   2   9
ATOM      8  S   UNL     1      -9.038 -37.750  -0.640  0.00  0.00    +0.000 S 
ATOM      9  N   UNL     1      -8.957 -35.493  -2.066  0.00  0.00    +0.000 N 
ATOM     10  N   UNL     1      -7.135 -36.028  -0.634  0.00  0.00    +0.000 NA
ATOM     11  C   UNL     1      -8.305 -36.277  -1.179  0.00  0.00    +0.000 A 
ATOM     12  C   UNL     1      -6.757 -37.043   0.224  0.00  0.00    +0.000 A 
ATOM     13  C   UNL     1      -7.680 -38.055   0.332  0.00  0.00    +0.000 A 
ATOM     14  H   UNL     1      -9.913 -35.728  -2.326  0.00  0.00    +0.000 HD
BRANCH  12  16
ATOM     15  N   UNL     1      -3.081 -37.015   0.874  0.00  0.00    +0.000 NA
ATOM     16  C   UNL     1      -5.505 -37.008   0.945  0.00  0.00    +0.000 A 
ATOM     17  C   UNL     1      -5.456 -36.894   2.332  0.00  0.00    +0.000 A 
ATOM     18  C   UNL     1      -4.294 -37.071   0.270  0.00  0.00    +0.000 A 
ATOM     19  C   UNL     1      -4.233 -36.847   2.991  0.00  0.00    +0.000 A 
ATOM     20  C   UNL     1      -3.085 -36.909   2.220  0.00  0.00    +0.000 A 
ENDBRANCH  12  16
ENDBRANCH   2   9
BRANCH   1  22
ATOM     21  O   UNL     1      -4.252 -33.824  -4.412  0.00  0.00    +0.000 OA
ATOM     22  N   UNL     1      -6.222 -33.251  -5.495  0.00  0.00    +0.000 N 
ATOM     23  C   UNL     1      -4.860 -33.504  -5.425  0.00  0.00    +0.000 C 
ATOM     24  H   UNL     1      -6.649 -33.106  -6.403  0.00  0.00    +0.000 HD
BRANCH  23  30
ATOM     25  C   UNL     1      -2.635 -33.286  -9.063  0.00  0.00    +0.000 A 
ATOM     26  C   UNL     1      -3.329 -32.161  -8.622  0.00  0.00    +0.000 A 
ATOM     27  C   UNL     1      -2.670 -34.467  -8.327  0.00  0.00    +0.000 A 
ATOM     28  C   UNL     1      -4.062 -32.219  -7.439  0.00  0.00    +0.000 A 
ATOM     29  C   UNL     1      -3.405 -34.523  -7.145  0.00  0.00    +0.000 A 
ATOM     30  C   UNL     1      -4.105 -33.400  -6.697  0.00  0.00    +0.000 A 
BRANCH  25  31
ATOM     31  C   UNL     1      -1.882 -33.227 -10.273  0.00  0.00    +0.000 C 
BRANCH  31  32
ATOM     32  N   UNL     1      -1.112 -33.166 -11.509  0.00  0.00    +0.000 N 
ATOM     33  N   UNL     1       2.413 -33.036 -11.104  0.00  0.00    +0.000 N 
ATOM     34  C   UNL     1      -0.164 -32.025 -11.370  0.00  0.00    +0.000 C 
ATOM     35  C   UNL     1      -0.076 -34.234 -11.425  0.00  0.00    +0.000 C 
ATOM     36  C   UNL     1       1.381 -31.968 -11.202  0.00  0.00    +0.000 C 
ATOM     37  C   UNL     1       1.469 -34.177 -11.256  0.00  0.00    +0.000 C 
ATOM     38  C   UNL     1       3.207 -32.975 -12.322  0.00  0.00    +0.000 C 
ENDBRANCH  31  32
ENDBRANCH  25  31
ENDBRANCH  23  30
ENDBRANCH   1  22
TORSDOF 6
ENDMDL
MODEL 3
REMARK VINA RESULT:      -6.5     20.098     23.170
REMARK  Name = 10074640_Masitinib.pdbqt.pdb
REMARK  6 active torsions:
REMARK  status: ('A' for Active; 'I' for Inactive)
REMARK    1  A    between atoms: C_1  and  N_22
REMARK    2  A    between atoms: C_2  and  N_9
REMARK    3  A    between atoms: C_12  and  C_16
REMARK    4  A    between atoms: C_23  and  C_30
REMARK    5  A    between atoms: C_25  and  C_31
REMARK    6  A    between atoms: C_31  and  N_32
REMARK                            x       y       z     vdW  Elec       q    Type
REMARK                         _______ _______ _______ _____ _____    ______ ____
ROOT
ATOM      1  C   UNL     1      -4.062 -34.072  -5.791  0.00  0.00    +0.000 A 
ATOM      2  C   UNL     1      -4.261 -34.996  -3.531  0.00  0.00    +0.000 A 
ATOM      3  C   UNL     1      -3.495 -34.644  -4.651  0.00  0.00    +0.000 A 
ATOM      4  C   UNL     1      -5.646 -34.749  -3.597  0.00  0.00    +0.000 A 
ATOM      5  C   UNL     1      -5.432 -33.820  -5.815  0.00  0.00    +0.000 A 
ATOM      6  C   UNL     1      -6.226 -34.166  -4.724  0.00  0.00    +0.000 A 
ATOM      7  C   UNL     1      -6.550 -35.110  -2.436  0.00  0.00    +0.000 C 
ENDROOT
BRANCH   2   9
ATOM      8  S   UNL     1      -2.273 -37.129  -0.740  0.00  0.00    +0.000 S 
ATOM      9  N   UNL     1      -3.675 -35.535  -2.361  0.00  0.00    +0.000 N 
ATOM     10  N   UNL     1      -2.143 -37.092  -3.303  0.00  0.00    +0.000 NA
ATOM     11  C   UNL     1      -2.757 -36.525  -2.289  0.00  0.00    +0.000 A 
ATOM     12  C   UNL     1      -1.271 -38.075  -2.873  0.00  0.00    +0.000 A 
ATOM     13  C   UNL     1      -1.226 -38.222  -1.508  0.00  0.00    +0.000 A 
ATOM     14  H   UNL     1      -3.992 -35.089  -1.503  0.00  0.00    +0.000 HD
BRANCH  12  16
ATOM     15  N   UNL     1       1.571 -40.068  -4.248  0.00  0.00    +0.000 NA
ATOM     16  C   UNL     1      -0.478 -38.852  -3.799  0.00  0.00    +0.000 A 
ATOM     17  C   UNL     1      -0.945 -39.185  -5.068  0.00  0.00    +0.000 A 
ATOM     18  C   UNL     1       0.782 -39.310  -3.445  0.00  0.00    +0.000 A 
ATOM     19  C   UNL     1      -0.162 -39.948  -5.927  0.00  0.00    +0.000 A 
ATOM     20  C   UNL     1       1.078 -40.361  -5.469  0.00  0.00    +0.000 A 
ENDBRANCH  12  16
ENDBRANCH   2   9
BRANCH   1  22
ATOM     21  O   UNL     1      -3.349 -35.732  -8.066  0.00  0.00    +0.000 OA
ATOM     22  N   UNL     1      -3.304 -33.712  -6.923  0.00  0.00    +0.000 N 
ATOM     23  C   UNL     1      -2.962 -34.575  -7.954  0.00  0.00    +0.000 C 
ATOM     24  H   UNL     1      -3.024 -32.740  -6.982  0.00  0.00    +0.000 HD
BRANCH  23  30
ATOM     25  C   UNL     1      -0.472 -32.906 -10.995  0.00  0.00    +0.000 A 
ATOM     26  C   UNL     1      -0.362 -34.262 -10.695  0.00  0.00    +0.000 A 
ATOM     27  C   UNL     1      -1.380 -32.106 -10.308  0.00  0.00    +0.000 A 
ATOM     28  C   UNL     1      -1.166 -34.819  -9.703  0.00  0.00    +0.000 A 
ATOM     29  C   UNL     1      -2.182 -32.664  -9.316  0.00  0.00    +0.000 A 
ATOM     30  C   UNL     1      -2.077 -34.023  -9.008  0.00  0.00    +0.000 A 
BRANCH  25  31
ATOM     31  C   UNL     1       0.349 -32.336 -12.012  0.00  0.00    +0.000 C 
BRANCH  31  32
ATOM     32  N   UNL     1       1.189 -31.754 -13.051  0.00  0.00    +0.000 N 
ATOM     33  N   UNL     1       2.587 -28.582 -12.286  0.00  0.00    +0.000 N 
ATOM     34  C   UNL     1       0.698 -30.366 -13.278  0.00  0.00    +0.000 C 
ATOM     35  C   UNL     1       2.469 -31.358 -12.400  0.00  0.00    +0.000 C 
ATOM     36  C   UNL     1       1.315 -28.976 -12.950  0.00  0.00    +0.000 C 
ATOM     37  C   UNL     1       3.085 -29.968 -12.072  0.00  0.00    +0.000 C 
ATOM     38  C   UNL     1       3.431 -27.978 -13.307  0.00  0.00    +0.000 C 
ENDBRANCH  31  32
ENDBRANCH  25  31
ENDBRANCH  23  30
ENDBRANCH   1  22
TORSDOF 6
ENDMDL
MODEL 4
REMARK VINA RESULT:      -6.4      4.488     12.323
REMARK  Name = 10074640_Masitinib.pdbqt.pdb
REMARK  6 active torsions:
REMARK  status: ('A' for Active; 'I' for Inactive)
REMARK    1  A    between atoms: C_1  and  N_22
REMARK    2  A    between atoms: C_2  and  N_9
REMARK    3  A    between atoms: C_12  and  C_16
REMARK    4  A    between atoms: C_23  and  C_30
REMARK    5  A    between atoms: C_25  and  C_31
REMARK    6  A    between atoms: C_31  and  N_32
REMARK                            x       y       z     vdW  Elec       q    Type
REMARK                         _______ _______ _______ _____ _____    ______ ____
ROOT
ATOM      1  C   UNL     1     -14.064 -17.692  -0.167  0.00  0.00    +0.000 A 
ATOM      2  C   UNL     1     -16.471 -17.623  -0.615  0.00  0.00    +0.000 A 
ATOM      3  C   UNL     1     -15.246 -16.982  -0.384  0.00  0.00    +0.000 A 
ATOM      4  C   UNL     1     -16.468 -19.031  -0.620  0.00  0.00    +0.000 A 
ATOM      5  C   UNL     1     -14.092 -19.084  -0.202  0.00  0.00    +0.000 A 
ATOM      6  C   UNL     1     -15.292 -19.754  -0.418  0.00  0.00    +0.000 A 
ATOM      7  C   UNL     1     -17.751 -19.805  -0.851  0.00  0.00    +0.000 C 
ENDROOT
BRANCH   2   9
ATOM      8  S   UNL     1     -19.400 -15.227  -2.020  0.00  0.00    +0.000 S 
ATOM      9  N   UNL     1     -17.658 -16.898  -0.877  0.00  0.00    +0.000 N 
ATOM     10  N   UNL     1     -17.191 -16.038  -3.045  0.00  0.00    +0.000 NA
ATOM     11  C   UNL     1     -17.932 -16.143  -1.964  0.00  0.00    +0.000 A 
ATOM     12  C   UNL     1     -17.763 -15.176  -3.961  0.00  0.00    +0.000 A 
ATOM     13  C   UNL     1     -18.965 -14.649  -3.555  0.00  0.00    +0.000 A 
ATOM     14  H   UNL     1     -18.366 -16.998  -0.152  0.00  0.00    +0.000 HD
BRANCH  12  16
ATOM     15  N   UNL     1     -17.180 -15.089  -7.648  0.00  0.00    +0.000 NA
ATOM     16  C   UNL     1     -17.138 -14.886  -5.232  0.00  0.00    +0.000 A 
ATOM     17  C   UNL     1     -15.973 -14.129  -5.323  0.00  0.00    +0.000 A 
ATOM     18  C   UNL     1     -17.692 -15.345  -6.418  0.00  0.00    +0.000 A 
ATOM     19  C   UNL     1     -15.408 -13.855  -6.564  0.00  0.00    +0.000 A 
ATOM     20  C   UNL     1     -16.048 -14.355  -7.685  0.00  0.00    +0.000 A 
ENDBRANCH  12  16
ENDBRANCH   2   9
BRANCH   1  22
ATOM     21  O   UNL     1     -12.833 -17.056   2.386  0.00  0.00    +0.000 OA
ATOM     22  N   UNL     1     -12.826 -17.061   0.066  0.00  0.00    +0.000 N 
ATOM     23  C   UNL     1     -12.320 -16.745   1.318  0.00  0.00    +0.000 C 
ATOM     24  H   UNL     1     -12.267 -16.858  -0.756  0.00  0.00    +0.000 HD
BRANCH  23  30
ATOM     25  C   UNL     1      -8.595 -14.662   1.434  0.00  0.00    +0.000 A 
ATOM     26  C   UNL     1      -9.764 -13.950   1.177  0.00  0.00    +0.000 A 
ATOM     27  C   UNL     1      -8.642 -16.037   1.647  0.00  0.00    +0.000 A 
ATOM     28  C   UNL     1     -10.986 -14.617   1.132  0.00  0.00    +0.000 A 
ATOM     29  C   UNL     1      -9.864 -16.702   1.601  0.00  0.00    +0.000 A 
ATOM     30  C   UNL     1     -11.041 -15.995   1.342  0.00  0.00    +0.000 A 
BRANCH  25  31
ATOM     31  C   UNL     1      -7.343 -13.979   1.482  0.00  0.00    +0.000 C 
BRANCH  31  32
ATOM     32  N   UNL     1      -6.064 -13.283   1.532  0.00  0.00    +0.000 N 
ATOM     33  N   UNL     1      -5.772 -10.472  -0.617  0.00  0.00    +0.000 N 
ATOM     34  C   UNL     1      -5.592 -13.146   0.126  0.00  0.00    +0.000 C 
ATOM     35  C   UNL     1      -6.366 -11.838   1.732  0.00  0.00    +0.000 C 
ATOM     36  C   UNL     1      -5.455 -11.913  -0.813  0.00  0.00    +0.000 C 
ATOM     37  C   UNL     1      -6.230 -10.605   0.793  0.00  0.00    +0.000 C 
ATOM     38  C   UNL     1      -4.503  -9.757  -0.587  0.00  0.00    +0.000 C 
ENDBRANCH  31  32
ENDBRANCH  25  31
ENDBRANCH  23  30
ENDBRANCH   1  22
TORSDOF 6
ENDMDL
MODEL 5
REMARK VINA RESULT:      -6.3      4.020      7.052
REMARK  Name = 10074640_Masitinib.pdbqt.pdb
REMARK  6 active torsions:
REMARK  status: ('A' for Active; 'I' for Inactive)
REMARK    1  A    between atoms: C_1  and  N_22
REMARK    2  A    between atoms: C_2  and  N_9
REMARK    3  A    between atoms: C_12  and  C_16
REMARK    4  A    between atoms: C_23  and  C_30
REMARK    5  A    between atoms: C_25  and  C_31
REMARK    6  A    between atoms: C_31  and  N_32
REMARK                            x       y       z     vdW  Elec       q    Type
REMARK                         _______ _______ _______ _____ _____    ______ ____
ROOT
ATOM      1  C   UNL     1      -6.764 -11.636   0.419  0.00  0.00    +0.000 A 
ATOM      2  C   UNL     1      -5.610  -9.632   1.227  0.00  0.00    +0.000 A 
ATOM      3  C   UNL     1      -6.655 -10.563   1.305  0.00  0.00    +0.000 A 
ATOM      4  C   UNL     1      -4.657  -9.820   0.206  0.00  0.00    +0.000 A 
ATOM      5  C   UNL     1      -5.792 -11.806  -0.564  0.00  0.00    +0.000 A 
ATOM      6  C   UNL     1      -4.745 -10.895  -0.678  0.00  0.00    +0.000 A 
ATOM      7  C   UNL     1      -3.501  -8.854   0.043  0.00  0.00    +0.000 C 
ENDROOT
BRANCH   2   9
ATOM      8  S   UNL     1      -6.098  -6.697   3.954  0.00  0.00    +0.000 S 
ATOM      9  N   UNL     1      -5.480  -8.571   2.155  0.00  0.00    +0.000 N 
ATOM     10  N   UNL     1      -7.618  -8.620   3.196  0.00  0.00    +0.000 NA
ATOM     11  C   UNL     1      -6.428  -8.099   2.995  0.00  0.00    +0.000 A 
ATOM     12  C   UNL     1      -8.338  -7.882   4.116  0.00  0.00    +0.000 A 
ATOM     13  C   UNL     1      -7.655  -6.802   4.621  0.00  0.00    +0.000 A 
ATOM     14  H   UNL     1      -4.551  -8.156   2.173  0.00  0.00    +0.000 HD
BRANCH  12  16
ATOM     15  N   UNL     1     -11.141  -9.738   5.741  0.00  0.00    +0.000 NA
ATOM     16  C   UNL     1      -9.682  -8.246   4.506  0.00  0.00    +0.000 A 
ATOM     17  C   UNL     1     -10.790  -7.504   4.108  0.00  0.00    +0.000 A 
ATOM     18  C   UNL     1      -9.913  -9.352   5.312  0.00  0.00    +0.000 A 
ATOM     19  C   UNL     1     -12.067  -7.873   4.515  0.00  0.00    +0.000 A 
ATOM     20  C   UNL     1     -12.184  -8.989   5.325  0.00  0.00    +0.000 A 
ENDBRANCH  12  16
ENDBRANCH   2   9
BRANCH   1  22
ATOM     21  O   UNL     1      -7.355 -13.496   2.570  0.00  0.00    +0.000 OA
ATOM     22  N   UNL     1      -7.808 -12.580   0.486  0.00  0.00    +0.000 N 
ATOM     23  C   UNL     1      -8.002 -13.473   1.530  0.00  0.00    +0.000 C 
ATOM     24  H   UNL     1      -8.470 -12.569  -0.281  0.00  0.00    +0.000 HD
BRANCH  23  30
ATOM     25  C   UNL     1     -11.111 -16.360   1.048  0.00  0.00    +0.000 A 
ATOM     26  C   UNL     1     -11.388 -15.016   0.809  0.00  0.00    +0.000 A 
ATOM     27  C   UNL     1      -9.836 -16.755   1.443  0.00  0.00    +0.000 A 
ATOM     28  C   UNL     1     -10.385 -14.063   0.966  0.00  0.00    +0.000 A 
ATOM     29  C   UNL     1      -8.834 -15.800   1.600  0.00  0.00    +0.000 A 
ATOM     30  C   UNL     1      -9.105 -14.450   1.364  0.00  0.00    +0.000 A 
BRANCH  25  31
ATOM     31  C   UNL     1     -12.137 -17.337   0.886  0.00  0.00    +0.000 C 
BRANCH  31  32
ATOM     32  N   UNL     1     -13.188 -18.334   0.722  0.00  0.00    +0.000 N 
ATOM     33  N   UNL     1     -14.936 -18.214  -2.366  0.00  0.00    +0.000 N 
ATOM     34  C   UNL     1     -14.414 -17.603   0.297  0.00  0.00    +0.000 C 
ATOM     35  C   UNL     1     -12.948 -19.002  -0.588  0.00  0.00    +0.000 C 
ATOM     36  C   UNL     1     -15.185 -17.557  -1.054  0.00  0.00    +0.000 C 
ATOM     37  C   UNL     1     -13.718 -18.956  -1.938  0.00  0.00    +0.000 C 
ATOM     38  C   UNL     1     -15.991 -19.199  -2.556  0.00  0.00    +0.000 C 
ENDBRANCH  31  32
ENDBRANCH  25  31
ENDBRANCH  23  30
ENDBRANCH   1  22
TORSDOF 6
ENDMDL
MODEL 6
REMARK VINA RESULT:      -6.1      9.467     13.595
REMARK  Name = 10074640_Masitinib.pdbqt.pdb
REMARK  6 active torsions:
REMARK  status: ('A' for Active; 'I' for Inactive)
REMARK    1  A    between atoms: C_1  and  N_22
REMARK    2  A    between atoms: C_2  and  N_9
REMARK    3  A    between atoms: C_12  and  C_16
REMARK    4  A    between atoms: C_23  and  C_30
REMARK    5  A    between atoms: C_25  and  C_31
REMARK    6  A    between atoms: C_31  and  N_32
REMARK                            x       y       z     vdW  Elec       q    Type
REMARK                         _______ _______ _______ _____ _____    ______ ____
ROOT
ATOM      1  C   UNL     1       3.237 -14.696  -9.007  0.00  0.00    +0.000 A 
ATOM      2  C   UNL     1       4.564 -15.935 -10.651  0.00  0.00    +0.000 A 
ATOM      3  C   UNL     1       3.547 -15.874  -9.689  0.00  0.00    +0.000 A 
ATOM      4  C   UNL     1       5.276 -14.747 -10.909  0.00  0.00    +0.000 A 
ATOM      5  C   UNL     1       3.945 -13.534  -9.303  0.00  0.00    +0.000 A 
ATOM      6  C   UNL     1       4.970 -13.560 -10.245  0.00  0.00    +0.000 A 
ATOM      7  C   UNL     1       6.400 -14.727 -11.926  0.00  0.00    +0.000 C 
ENDROOT
BRANCH   2   9
ATOM      8  S   UNL     1       4.513 -19.309 -12.866  0.00  0.00    +0.000 S 
ATOM      9  N   UNL     1       4.845 -17.121 -11.371  0.00  0.00    +0.000 N 
ATOM     10  N   UNL     1       2.810 -17.413 -12.568  0.00  0.00    +0.000 NA
ATOM     11  C   UNL     1       4.008 -17.798 -12.189  0.00  0.00    +0.000 A 
ATOM     12  C   UNL     1       2.225 -18.347 -13.401  0.00  0.00    +0.000 A 
ATOM     13  C   UNL     1       3.019 -19.438 -13.661  0.00  0.00    +0.000 A 
ATOM     14  H   UNL     1       5.797 -17.458 -11.247  0.00  0.00    +0.000 HD
BRANCH  12  16
ATOM     15  N   UNL     1      -0.794 -18.855 -15.539  0.00  0.00    +0.000 NA
ATOM     16  C   UNL     1       0.901 -18.159 -13.950  0.00  0.00    +0.000 A 
ATOM     17  C   UNL     1       0.027 -17.197 -13.452  0.00  0.00    +0.000 A 
ATOM     18  C   UNL     1       0.444 -18.953 -14.993  0.00  0.00    +0.000 A 
ATOM     19  C   UNL     1      -1.246 -17.055 -13.992  0.00  0.00    +0.000 A 
ATOM     20  C   UNL     1      -1.602 -17.904 -15.026  0.00  0.00    +0.000 A 
ENDBRANCH  12  16
ENDBRANCH   2   9
BRANCH   1  22
ATOM     21  O   UNL     1       3.492 -14.905  -6.120  0.00  0.00    +0.000 OA
ATOM     22  N   UNL     1       2.216 -14.620  -8.038  0.00  0.00    +0.000 N 
ATOM     23  C   UNL     1       2.406 -14.776  -6.673  0.00  0.00    +0.000 C 
ATOM     24  H   UNL     1       1.288 -14.405  -8.385  0.00  0.00    +0.000 HD
BRANCH  23  30
ATOM     25  C   UNL     1      -1.149 -14.647  -4.312  0.00  0.00    +0.000 A 
ATOM     26  C   UNL     1       0.009 -15.196  -3.767  0.00  0.00    +0.000 A 
ATOM     27  C   UNL     1      -1.147 -14.151  -5.613  0.00  0.00    +0.000 A 
ATOM     28  C   UNL     1       1.176 -15.248  -4.527  0.00  0.00    +0.000 A 
ATOM     29  C   UNL     1       0.019 -14.205  -6.371  0.00  0.00    +0.000 A 
ATOM     30  C   UNL     1       1.185 -14.755  -5.832  0.00  0.00    +0.000 A 
BRANCH  25  31
ATOM     31  C   UNL     1      -2.343 -14.592  -3.534  0.00  0.00    +0.000 C 
BRANCH  31  32
ATOM     32  N   UNL     1      -3.565 -14.538  -2.741  0.00  0.00    +0.000 N 
ATOM     33  N   UNL     1      -3.525 -16.445   0.253  0.00  0.00    +0.000 N 
ATOM     34  C   UNL     1      -3.953 -15.946  -2.449  0.00  0.00    +0.000 C 
ATOM     35  C   UNL     1      -3.160 -14.200  -1.347  0.00  0.00    +0.000 C 
ATOM     36  C   UNL     1      -3.944 -16.779  -1.135  0.00  0.00    +0.000 C 
ATOM     37  C   UNL     1      -3.150 -15.034  -0.034  0.00  0.00    +0.000 C 
ATOM     38  C   UNL     1      -4.733 -16.408   1.066  0.00  0.00    +0.000 C 
ENDBRANCH  31  32
ENDBRANCH  25  31
ENDBRANCH  23  30
ENDBRANCH   1  22
TORSDOF 6
ENDMDL
MODEL 7
REMARK VINA RESULT:      -6.0     19.959     22.457
REMARK  Name = 10074640_Masitinib.pdbqt.pdb
REMARK  6 active torsions:
REMARK  status: ('A' for Active; 'I' for Inactive)
REMARK    1  A    between atoms: C_1  and  N_22
REMARK    2  A    between atoms: C_2  and  N_9
REMARK    3  A    between atoms: C_12  and  C_16
REMARK    4  A    between atoms: C_23  and  C_30
REMARK    5  A    between atoms: C_25  and  C_31
REMARK    6  A    between atoms: C_31  and  N_32
REMARK                            x       y       z     vdW  Elec       q    Type
REMARK                         _______ _______ _______ _____ _____    ______ ____
ROOT
ATOM      1  C   UNL     1      -7.096 -35.019  -3.797  0.00  0.00    +0.000 A 
ATOM      2  C   UNL     1      -7.535 -35.510  -1.438  0.00  0.00    +0.000 A 
ATOM      3  C   UNL     1      -6.652 -35.327  -2.510  0.00  0.00    +0.000 A 
ATOM      4  C   UNL     1      -8.911 -35.371  -1.708  0.00  0.00    +0.000 A 
ATOM      5  C   UNL     1      -8.462 -34.865  -4.025  0.00  0.00    +0.000 A 
ATOM      6  C   UNL     1      -9.370 -35.050  -2.986  0.00  0.00    +0.000 A 
ATOM      7  C   UNL     1      -9.936 -35.565  -0.609  0.00  0.00    +0.000 C 
ENDROOT
BRANCH   2   9
ATOM      8  S   UNL     1      -5.609 -36.729   1.893  0.00  0.00    +0.000 S 
ATOM      9  N   UNL     1      -7.077 -35.780  -0.127  0.00  0.00    +0.000 N 
ATOM     10  N   UNL     1      -4.927 -36.693  -0.581  0.00  0.00    +0.000 NA
ATOM     11  C   UNL     1      -5.913 -36.369   0.227  0.00  0.00    +0.000 A 
ATOM     12  C   UNL     1      -3.889 -37.286   0.111  0.00  0.00    +0.000 A 
ATOM     13  C   UNL     1      -4.103 -37.383   1.464  0.00  0.00    +0.000 A 
ATOM     14  H   UNL     1      -7.713 -35.464   0.601  0.00  0.00    +0.000 HD
BRANCH  12  16
ATOM     15  N   UNL     1      -0.480 -38.728  -0.383  0.00  0.00    +0.000 NA
ATOM     16  C   UNL     1      -2.688 -37.740  -0.554  0.00  0.00    +0.000 A 
ATOM     17  C   UNL     1      -2.551 -37.693  -1.939  0.00  0.00    +0.000 A 
ATOM     18  C   UNL     1      -1.625 -38.257   0.172  0.00  0.00    +0.000 A 
ATOM     19  C   UNL     1      -1.389 -38.154  -2.547  0.00  0.00    +0.000 A 
ATOM     20  C   UNL     1      -0.393 -38.658  -1.728  0.00  0.00    +0.000 A 
ENDBRANCH  12  16
ENDBRANCH   2   9
BRANCH   1  22
ATOM     21  O   UNL     1      -6.322 -32.518  -5.056  0.00  0.00    +0.000 OA
ATOM     22  N   UNL     1      -6.220 -34.830  -4.884  0.00  0.00    +0.000 N 
ATOM     23  C   UNL     1      -5.932 -33.604  -5.466  0.00  0.00    +0.000 C 
ATOM     24  H   UNL     1      -5.755 -35.661  -5.232  0.00  0.00    +0.000 HD
BRANCH  23  30
ATOM     25  C   UNL     1      -3.333 -33.702  -8.853  0.00  0.00    +0.000 A 
ATOM     26  C   UNL     1      -4.610 -33.161  -8.991  0.00  0.00    +0.000 A 
ATOM     27  C   UNL     1      -2.913 -34.207  -7.626  0.00  0.00    +0.000 A 
ATOM     28  C   UNL     1      -5.469 -33.126  -7.895  0.00  0.00    +0.000 A 
ATOM     29  C   UNL     1      -3.774 -34.172  -6.532  0.00  0.00    +0.000 A 
ATOM     30  C   UNL     1      -5.056 -33.633  -6.663  0.00  0.00    +0.000 A 
BRANCH  25  31
ATOM     31  C   UNL     1      -2.452 -33.736  -9.974  0.00  0.00    +0.000 C 
BRANCH  31  32
ATOM     32  N   UNL     1      -1.553 -33.769 -11.120  0.00  0.00    +0.000 N 
ATOM     33  N   UNL     1       1.898 -33.422 -10.362  0.00  0.00    +0.000 N 
ATOM     34  C   UNL     1      -0.670 -32.575 -11.011  0.00  0.00    +0.000 C 
ATOM     35  C   UNL     1      -0.493 -34.769 -10.809  0.00  0.00    +0.000 C 
ATOM     36  C   UNL     1       0.844 -32.423 -10.688  0.00  0.00    +0.000 C 
ATOM     37  C   UNL     1       1.020 -34.618 -10.485  0.00  0.00    +0.000 C 
ATOM     38  C   UNL     1       2.820 -33.452 -11.489  0.00  0.00    +0.000 C 
ENDBRANCH  31  32
ENDBRANCH  25  31
ENDBRANCH  23  30
ENDBRANCH   1  22
TORSDOF 6
ENDMDL
MODEL 8
REMARK VINA RESULT:      -6.0     12.393     15.107
REMARK  Name = 10074640_Masitinib.pdbqt.pdb
REMARK  6 active torsions:
REMARK  status: ('A' for Active; 'I' for Inactive)
REMARK    1  A    between atoms: C_1  and  N_22
REMARK    2  A    between atoms: C_2  and  N_9
REMARK    3  A    between atoms: C_12  and  C_16
REMARK    4  A    between atoms: C_23  and  C_30
REMARK    5  A    between atoms: C_25  and  C_31
REMARK    6  A    between atoms: C_31  and  N_32
REMARK                            x       y       z     vdW  Elec       q    Type
REMARK                         _______ _______ _______ _____ _____    ______ ____
ROOT
ATOM      1  C   UNL     1       0.698 -17.461 -12.528  0.00  0.00    +0.000 A 
ATOM      2  C   UNL     1       2.801 -16.685 -11.541  0.00  0.00    +0.000 A 
ATOM      3  C   UNL     1       1.603 -16.442 -12.226  0.00  0.00    +0.000 A 
ATOM      4  C   UNL     1       3.065 -18.015 -11.161  0.00  0.00    +0.000 A 
ATOM      5  C   UNL     1       0.978 -18.762 -12.118  0.00  0.00    +0.000 A 
ATOM      6  C   UNL     1       2.164 -19.042 -11.444  0.00  0.00    +0.000 A 
ATOM      7  C   UNL     1       4.343 -18.369 -10.427  0.00  0.00    +0.000 C 
ENDROOT
BRANCH   2   9
ATOM      8  S   UNL     1       4.867 -13.659  -9.849  0.00  0.00    +0.000 S 
ATOM      9  N   UNL     1       3.694 -15.641 -11.200  0.00  0.00    +0.000 N 
ATOM     10  N   UNL     1       3.160 -15.325  -8.903  0.00  0.00    +0.000 NA
ATOM     11  C   UNL     1       3.794 -15.007 -10.010  0.00  0.00    +0.000 A 
ATOM     12  C   UNL     1       3.488 -14.464  -7.874  0.00  0.00    +0.000 A 
ATOM     13  C   UNL     1       4.402 -13.499  -8.224  0.00  0.00    +0.000 A 
ATOM     14  H   UNL     1       4.326 -15.382 -11.954  0.00  0.00    +0.000 HD
BRANCH  12  16
ATOM     15  N   UNL     1       0.935 -14.706  -5.160  0.00  0.00    +0.000 NA
ATOM     16  C   UNL     1       2.918 -14.599  -6.552  0.00  0.00    +0.000 A 
ATOM     17  C   UNL     1       3.711 -14.790  -5.425  0.00  0.00    +0.000 A 
ATOM     18  C   UNL     1       1.544 -14.558  -6.364  0.00  0.00    +0.000 A 
ATOM     19  C   UNL     1       3.128 -14.933  -4.171  0.00  0.00    +0.000 A 
ATOM     20  C   UNL     1       1.746 -14.884  -4.096  0.00  0.00    +0.000 A 
ENDBRANCH  12  16
ENDBRANCH   2   9
BRANCH   1  22
ATOM     21  O   UNL     1       0.086 -18.032 -15.310  0.00  0.00    +0.000 OA
ATOM     22  N   UNL     1      -0.511 -17.231 -13.215  0.00  0.00    +0.000 N 
ATOM     23  C   UNL     1      -0.717 -17.487 -14.563  0.00  0.00    +0.000 C 
ATOM     24  H   UNL     1      -1.281 -16.879 -12.658  0.00  0.00    +0.000 HD
BRANCH  23  30
ATOM     25  C   UNL     1      -4.461 -16.304 -16.241  0.00  0.00    +0.000 A 
ATOM     26  C   UNL     1      -4.349 -16.444 -14.859  0.00  0.00    +0.000 A 
ATOM     27  C   UNL     1      -3.365 -16.550 -17.063  0.00  0.00    +0.000 A 
ATOM     28  C   UNL     1      -3.135 -16.833 -14.298  0.00  0.00    +0.000 A 
ATOM     29  C   UNL     1      -2.152 -16.940 -16.501  0.00  0.00    +0.000 A 
ATOM     30  C   UNL     1      -2.033 -17.084 -15.116  0.00  0.00    +0.000 A 
BRANCH  25  31
ATOM     31  C   UNL     1      -5.704 -15.904 -16.815  0.00  0.00    +0.000 C 
BRANCH  31  32
ATOM     32  N   UNL     1      -6.972 -15.495 -17.405  0.00  0.00    +0.000 N 
ATOM     33  N   UNL     1      -9.776 -17.485 -16.521  0.00  0.00    +0.000 N 
ATOM     34  C   UNL     1      -7.570 -16.710 -18.026  0.00  0.00    +0.000 C 
ATOM     35  C   UNL     1      -7.955 -15.396 -16.290  0.00  0.00    +0.000 C 
ATOM     36  C   UNL     1      -8.804 -17.576 -17.644  0.00  0.00    +0.000 C 
ATOM     37  C   UNL     1      -9.188 -16.263 -15.907  0.00  0.00    +0.000 C 
ATOM     38  C   UNL     1     -11.057 -17.099 -17.095  0.00  0.00    +0.000 C 
ENDBRANCH  31  32
ENDBRANCH  25  31
ENDBRANCH  23  30
ENDBRANCH   1  22
TORSDOF 6
ENDMDL
MODEL 9
REMARK VINA RESULT:      -6.0     20.334     21.709
REMARK  Name = 10074640_Masitinib.pdbqt.pdb
REMARK  6 active torsions:
REMARK  status: ('A' for Active; 'I' for Inactive)
REMARK    1  A    between atoms: C_1  and  N_22
REMARK    2  A    between atoms: C_2  and  N_9
REMARK    3  A    between atoms: C_12  and  C_16
REMARK    4  A    between atoms: C_23  and  C_30
REMARK    5  A    between atoms: C_25  and  C_31
REMARK    6  A    between atoms: C_31  and  N_32
REMARK                            x       y       z     vdW  Elec       q    Type
REMARK                         _______ _______ _______ _____ _____    ______ ____
ROOT
ATOM      1  C   UNL     1       7.223 -30.642  -4.313  0.00  0.00    +0.000 A 
ATOM      2  C   UNL     1       7.686 -30.396  -1.921  0.00  0.00    +0.000 A 
ATOM      3  C   UNL     1       7.044 -29.983  -3.095  0.00  0.00    +0.000 A 
ATOM      4  C   UNL     1       8.535 -31.517  -2.012  0.00  0.00    +0.000 A 
ATOM      5  C   UNL     1       8.050 -31.762  -4.364  0.00  0.00    +0.000 A 
ATOM      6  C   UNL     1       8.714 -32.194  -3.219  0.00  0.00    +0.000 A 
ATOM      7  C   UNL     1       9.278 -32.023  -0.793  0.00  0.00    +0.000 C 
ENDROOT
BRANCH   2   9
ATOM      8  S   UNL     1       6.377 -29.083   1.664  0.00  0.00    +0.000 S 
ATOM      9  N   UNL     1       7.468 -29.751  -0.680  0.00  0.00    +0.000 N 
ATOM     10  N   UNL     1       5.824 -31.174   0.284  0.00  0.00    +0.000 NA
ATOM     11  C   UNL     1       6.576 -30.096   0.275  0.00  0.00    +0.000 A 
ATOM     12  C   UNL     1       5.020 -31.213   1.407  0.00  0.00    +0.000 A 
ATOM     13  C   UNL     1       5.197 -30.149   2.257  0.00  0.00    +0.000 A 
ATOM     14  H   UNL     1       8.082 -28.955  -0.520  0.00  0.00    +0.000 HD
BRANCH  12  16
ATOM     15  N   UNL     1       3.237 -33.981   3.168  0.00  0.00    +0.000 NA
ATOM     16  C   UNL     1       4.095 -32.298   1.647  0.00  0.00    +0.000 A 
ATOM     17  C   UNL     1       3.165 -32.699   0.692  0.00  0.00    +0.000 A 
ATOM     18  C   UNL     1       4.092 -32.975   2.859  0.00  0.00    +0.000 A 
ATOM     19  C   UNL     1       2.280 -33.735   0.963  0.00  0.00    +0.000 A 
ATOM     20  C   UNL     1       2.358 -34.337   2.208  0.00  0.00    +0.000 A 
ENDBRANCH  12  16
ENDBRANCH   2   9
BRANCH   1  22
ATOM     21  O   UNL     1       4.743 -31.655  -5.438  0.00  0.00    +0.000 OA
ATOM     22  N   UNL     1       6.582 -30.240  -5.502  0.00  0.00    +0.000 N 
ATOM     23  C   UNL     1       5.418 -30.803  -6.004  0.00  0.00    +0.000 C 
ATOM     24  H   UNL     1       7.003 -29.461  -5.994  0.00  0.00    +0.000 HD
BRANCH  23  30
ATOM     25  C   UNL     1       4.022 -29.424  -9.796  0.00  0.00    +0.000 A 
ATOM     26  C   UNL     1       5.287 -29.039  -9.357  0.00  0.00    +0.000 A 
ATOM     27  C   UNL     1       3.223 -30.244  -9.006  0.00  0.00    +0.000 A 
ATOM     28  C   UNL     1       5.754 -29.479  -8.120  0.00  0.00    +0.000 A 
ATOM     29  C   UNL     1       3.691 -30.682  -7.769  0.00  0.00    +0.000 A 
ATOM     30  C   UNL     1       4.958 -30.300  -7.321  0.00  0.00    +0.000 A 
BRANCH  25  31
ATOM     31  C   UNL     1       3.544 -28.975 -11.063  0.00  0.00    +0.000 C 
BRANCH  31  32
ATOM     32  N   UNL     1       3.055 -28.515 -12.356  0.00  0.00    +0.000 N 
ATOM     33  N   UNL     1       1.166 -30.885 -14.205  0.00  0.00    +0.000 N 
ATOM     34  C   UNL     1       3.450 -29.543 -13.358  0.00  0.00    +0.000 C 
ATOM     35  C   UNL     1       1.596 -28.815 -12.398  0.00  0.00    +0.000 C 
ATOM     36  C   UNL     1       2.621 -30.576 -14.175  0.00  0.00    +0.000 C 
ATOM     37  C   UNL     1       0.768 -29.848 -13.214  0.00  0.00    +0.000 C 
ATOM     38  C   UNL     1       0.664 -30.451 -15.501  0.00  0.00    +0.000 C 
ENDBRANCH  31  32
ENDBRANCH  25  31
ENDBRANCH  23  30
ENDBRANCH   1  22
TORSDOF 6
ENDMDL
