MODEL 1
REMARK VINA RESULT:      -6.2      0.000      0.000
REMARK  Name = 101808842_CandidaspongiolideB.pdbqt.pdb
REMARK  12 active torsions:
REMARK  status: ('A' for Active; 'I' for Inactive)
REMARK    1  A    between atoms: C_6  and  C_42
REMARK    2  A    between atoms: C_7  and  O_28
REMARK    3  A    between atoms: C_10  and  O_30
REMARK    4  A    between atoms: C_13  and  O_32
REMARK    5  A    between atoms: C_19  and  O_34
REMARK    6  A    between atoms: C_20  and  O_38
REMARK    7  A    between atoms: C_21  and  O_36
REMARK    8  A    between atoms: O_38  and  C_40
REMARK    9  A    between atoms: C_42  and  C_44
REMARK   10  A    between atoms: C_42  and  O_52
REMARK   11  A    between atoms: C_45  and  C_47
REMARK   12  A    between atoms: C_47  and  C_49
REMARK                            x       y       z     vdW  Elec       q    Type
REMARK                         _______ _______ _______ _____ _____    ______ ____
ROOT
ATOM      1  O   UNL     1      -5.251 -34.189  -8.376  0.00  0.00    +0.000 OA
ATOM      2  O   UNL     1      -5.693 -36.005  -1.763  0.00  0.00    +0.000 OA
ATOM      3  O   UNL     1      -7.327 -35.899  -5.680  0.00  0.00    +0.000 OA
ATOM      4  O   UNL     1      -4.871 -37.340  -3.456  0.00  0.00    +0.000 OA
ATOM      5  O   UNL     1      -2.121 -36.712  -4.356  0.00  0.00    +0.000 OA
ATOM      6  C   UNL     1      -7.230 -34.722  -3.658  0.00  0.00    +0.000 C 
ATOM      7  C   UNL     1      -5.860 -33.921  -5.701  0.00  0.00    +0.000 C 
ATOM      8  C   UNL     1      -6.842 -34.939  -5.080  0.00  0.00    +0.000 C 
ATOM      9  C   UNL     1      -6.481 -35.388  -2.647  0.00  0.00    +0.000 C 
ATOM     10  C   UNL     1      -4.401 -34.351  -5.450  0.00  0.00    +0.000 C 
ATOM     11  C   UNL     1      -3.612 -34.542  -6.623  0.00  0.00    +0.000 C 
ATOM     12  C   UNL     1      -5.873 -33.975  -7.198  0.00  0.00    +0.000 C 
ATOM     13  C   UNL     1      -3.823 -34.498  -8.104  0.00  0.00    +0.000 C 
ATOM     14  C   UNL     1      -3.461 -35.841  -8.755  0.00  0.00    +0.000 C 
ATOM     15  C   UNL     1      -3.267 -37.014  -7.967  0.00  0.00    +0.000 C 
ATOM     16  C   UNL     1      -3.161 -36.071 -10.233  0.00  0.00    +0.000 C 
ATOM     17  C   UNL     1      -4.844 -36.919  -2.309  0.00  0.00    +0.000 C 
ATOM     18  C   UNL     1      -3.079 -38.032  -7.185  0.00  0.00    +0.000 C 
ATOM     19  C   UNL     1      -3.790 -37.291  -1.336  0.00  0.00    +0.000 C 
ATOM     20  C   UNL     1      -1.760 -38.403  -6.727  0.00  0.00    +0.000 C 
ATOM     21  C   UNL     1      -2.551 -37.909  -1.767  0.00  0.00    +0.000 C 
ATOM     22  C   UNL     1      -1.384 -38.743  -5.356  0.00  0.00    +0.000 C 
ATOM     23  C   UNL     1      -2.334 -38.672  -2.988  0.00  0.00    +0.000 C 
ATOM     24  C   UNL     1      -1.970 -37.933  -4.237  0.00  0.00    +0.000 C 
ATOM     25  C   UNL     1      -4.310 -38.681  -6.621  0.00  0.00    +0.000 C 
ATOM     26  C   UNL     1      -0.098 -39.526  -5.099  0.00  0.00    +0.000 C 
ATOM     27  C   UNL     1      -2.727 -40.145  -3.007  0.00  0.00    +0.000 C 
ENDROOT
BRANCH   7  28
ATOM     28  O   UNL     1      -6.018 -32.577  -5.294  0.00  0.00    +0.000 OA
ATOM     29  H   UNL     1      -6.234 -32.070  -6.097  0.00  0.00    +0.000 HD
ENDBRANCH   7  28
BRANCH  10  30
ATOM     30  O   UNL     1      -3.885 -34.522  -4.192  0.00  0.00    +0.000 OA
ATOM     31  H   UNL     1      -4.230 -35.339  -3.774  0.00  0.00    +0.000 HD
ENDBRANCH  10  30
BRANCH  13  32
ATOM     32  O   UNL     1      -3.023 -33.441  -8.627  0.00  0.00    +0.000 OA
ATOM     33  H   UNL     1      -2.175 -33.495  -8.156  0.00  0.00    +0.000 HD
ENDBRANCH  13  32
BRANCH  19  34
ATOM     34  O   UNL     1      -3.868 -36.942  -0.001  0.00  0.00    +0.000 OA
ATOM     35  H   UNL     1      -3.030 -36.577   0.352  0.00  0.00    +0.000 HD
ENDBRANCH  19  34
BRANCH  21  36
ATOM     36  O   UNL     1      -1.613 -38.086  -0.763  0.00  0.00    +0.000 OA
ATOM     37  C   UNL     1      -0.366 -38.452  -1.300  0.00  0.00    +0.000 C 
ENDBRANCH  21  36
BRANCH  20  38
ATOM     38  O   UNL     1      -0.845 -38.731  -7.756  0.00  0.00    +0.000 OA
BRANCH  38  40
ATOM     39  O   UNL     1      -1.500 -40.950  -8.034  0.00  0.00    +0.000 OA
ATOM     40  C   UNL     1      -1.261 -39.828  -8.441  0.00  0.00    +0.000 C 
ATOM     41  C   UNL     1      -1.376 -39.647  -9.908  0.00  0.00    +0.000 C 
ENDBRANCH  38  40
ENDBRANCH  20  38
BRANCH   6  42
ATOM     42  C   UNL     1      -8.469 -34.030  -3.379  0.00  0.00    +0.000 C 
BRANCH  42  44
ATOM     43  O   UNL     1      -9.971 -32.877  -1.703  0.00  0.00    +0.000 OA
ATOM     44  C   UNL     1      -8.634 -33.161  -2.184  0.00  0.00    +0.000 C 
ATOM     45  C   UNL     1      -9.257 -33.851  -1.060  0.00  0.00    +0.000 C 
ATOM     46  C   UNL     1      -7.769 -31.861  -2.073  0.00  0.00    +0.000 C 
BRANCH  45  47
ATOM     47  C   UNL     1      -8.930 -33.621   0.315  0.00  0.00    +0.000 C 
ATOM     48  C   UNL     1      -9.772 -32.691   1.150  0.00  0.00    +0.000 C 
BRANCH  47  49
ATOM     49  C   UNL     1      -8.137 -34.556   1.027  0.00  0.00    +0.000 C 
ATOM     50  C   UNL     1      -7.412 -35.307   1.616  0.00  0.00    +0.000 C 
ATOM     51  C   UNL     1      -6.391 -36.202   2.325  0.00  0.00    +0.000 C 
ENDBRANCH  47  49
ENDBRANCH  45  47
ENDBRANCH  42  44
BRANCH  42  52
ATOM     52  O   UNL     1      -9.476 -34.211  -4.317  0.00  0.00    +0.000 OA
ATOM     53  H   UNL     1      -9.413 -33.570  -5.054  0.00  0.00    +0.000 HD
ENDBRANCH  42  52
ENDBRANCH   6  42
TORSDOF 12
ENDMDL
MODEL 2
REMARK VINA RESULT:      -5.9      2.982      5.536
REMARK  Name = 101808842_CandidaspongiolideB.pdbqt.pdb
REMARK  12 active torsions:
REMARK  status: ('A' for Active; 'I' for Inactive)
REMARK    1  A    between atoms: C_6  and  C_42
REMARK    2  A    between atoms: C_7  and  O_28
REMARK    3  A    between atoms: C_10  and  O_30
REMARK    4  A    between atoms: C_13  and  O_32
REMARK    5  A    between atoms: C_19  and  O_34
REMARK    6  A    between atoms: C_20  and  O_38
REMARK    7  A    between atoms: C_21  and  O_36
REMARK    8  A    between atoms: O_38  and  C_40
REMARK    9  A    between atoms: C_42  and  C_44
REMARK   10  A    between atoms: C_42  and  O_52
REMARK   11  A    between atoms: C_45  and  C_47
REMARK   12  A    between atoms: C_47  and  C_49
REMARK                            x       y       z     vdW  Elec       q    Type
REMARK                         _______ _______ _______ _____ _____    ______ ____
ROOT
ATOM      1  O   UNL     1     -10.417 -38.033  -3.706  0.00  0.00    +0.000 OA
ATOM      2  O   UNL     1      -5.180 -33.596  -4.027  0.00  0.00    +0.000 OA
ATOM      3  O   UNL     1      -7.134 -36.871  -2.164  0.00  0.00    +0.000 OA
ATOM      4  O   UNL     1      -5.203 -35.695  -4.983  0.00  0.00    +0.000 OA
ATOM      5  O   UNL     1      -6.742 -35.934  -7.502  0.00  0.00    +0.000 OA
ATOM      6  C   UNL     1      -6.977 -34.536  -2.160  0.00  0.00    +0.000 C 
ATOM      7  C   UNL     1      -9.026 -35.703  -3.222  0.00  0.00    +0.000 C 
ATOM      8  C   UNL     1      -7.669 -35.812  -2.494  0.00  0.00    +0.000 C 
ATOM      9  C   UNL     1      -6.019 -34.027  -3.083  0.00  0.00    +0.000 C 
ATOM     10  C   UNL     1      -8.820 -35.652  -4.749  0.00  0.00    +0.000 C 
ATOM     11  C   UNL     1      -9.471 -36.685  -5.487  0.00  0.00    +0.000 C 
ATOM     12  C   UNL     1      -9.814 -36.973  -3.128  0.00  0.00    +0.000 C 
ATOM     13  C   UNL     1     -10.291 -37.899  -5.181  0.00  0.00    +0.000 C 
ATOM     14  C   UNL     1      -9.640 -39.167  -5.751  0.00  0.00    +0.000 C 
ATOM     15  C   UNL     1      -8.290 -39.157  -6.214  0.00  0.00    +0.000 C 
ATOM     16  C   UNL     1     -10.335 -40.502  -5.998  0.00  0.00    +0.000 C 
ATOM     17  C   UNL     1      -4.909 -34.509  -5.000  0.00  0.00    +0.000 C 
ATOM     18  C   UNL     1      -7.069 -39.068  -6.641  0.00  0.00    +0.000 C 
ATOM     19  C   UNL     1      -4.270 -33.852  -6.164  0.00  0.00    +0.000 C 
ATOM     20  C   UNL     1      -6.767 -38.821  -8.032  0.00  0.00    +0.000 C 
ATOM     21  C   UNL     1      -4.250 -34.483  -7.469  0.00  0.00    +0.000 C 
ATOM     22  C   UNL     1      -5.801 -37.854  -8.550  0.00  0.00    +0.000 C 
ATOM     23  C   UNL     1      -4.355 -35.907  -7.752  0.00  0.00    +0.000 C 
ATOM     24  C   UNL     1      -5.719 -36.509  -7.890  0.00  0.00    +0.000 C 
ATOM     25  C   UNL     1      -5.992 -39.033  -5.594  0.00  0.00    +0.000 C 
ATOM     26  C   UNL     1      -5.273 -38.005  -9.975  0.00  0.00    +0.000 C 
ATOM     27  C   UNL     1      -3.101 -36.767  -7.647  0.00  0.00    +0.000 C 
ENDROOT
BRANCH   7  28
ATOM     28  O   UNL     1      -9.854 -34.625  -2.837  0.00  0.00    +0.000 OA
ATOM     29  H   UNL     1     -10.293 -34.897  -2.011  0.00  0.00    +0.000 HD
ENDBRANCH   7  28
BRANCH  10  30
ATOM     30  O   UNL     1      -8.080 -34.676  -5.365  0.00  0.00    +0.000 OA
ATOM     31  H   UNL     1      -7.515 -35.052  -6.073  0.00  0.00    +0.000 HD
ENDBRANCH  10  30
BRANCH  13  32
ATOM     32  O   UNL     1     -11.590 -37.697  -5.730  0.00  0.00    +0.000 OA
ATOM     33  H   UNL     1     -11.748 -38.454  -6.318  0.00  0.00    +0.000 HD
ENDBRANCH  13  32
BRANCH  19  34
ATOM     34  O   UNL     1      -3.792 -32.556  -6.103  0.00  0.00    +0.000 OA
ATOM     35  H   UNL     1      -2.870 -32.470  -6.422  0.00  0.00    +0.000 HD
ENDBRANCH  19  34
BRANCH  21  36
ATOM     36  O   UNL     1      -3.727 -33.697  -8.483  0.00  0.00    +0.000 OA
ATOM     37  C   UNL     1      -4.738 -33.284  -9.368  0.00  0.00    +0.000 C 
ENDBRANCH  21  36
BRANCH  20  38
ATOM     38  O   UNL     1      -7.252 -39.804  -8.928  0.00  0.00    +0.000 OA
BRANCH  38  40
ATOM     39  O   UNL     1      -5.493 -41.312  -8.681  0.00  0.00    +0.000 OA
ATOM     40  C   UNL     1      -6.671 -41.007  -8.684  0.00  0.00    +0.000 C 
ATOM     41  C   UNL     1      -7.617 -42.127  -8.455  0.00  0.00    +0.000 C 
ENDBRANCH  38  40
ENDBRANCH  20  38
BRANCH   6  42
ATOM     42  C   UNL     1      -7.141 -33.988  -0.831  0.00  0.00    +0.000 C 
BRANCH  42  44
ATOM     43  O   UNL     1      -8.913 -32.252  -1.320  0.00  0.00    +0.000 OA
ATOM     44  C   UNL     1      -7.716 -32.638  -0.600  0.00  0.00    +0.000 C 
ATOM     45  C   UNL     1      -9.059 -32.681  -0.029  0.00  0.00    +0.000 C 
ATOM     46  C   UNL     1      -6.749 -31.409  -0.529  0.00  0.00    +0.000 C 
BRANCH  45  47
ATOM     47  C   UNL     1      -9.567 -31.737   0.920  0.00  0.00    +0.000 C 
ATOM     48  C   UNL     1     -10.829 -30.967   0.623  0.00  0.00    +0.000 C 
BRANCH  47  49
ATOM     49  C   UNL     1      -9.194 -31.824   2.285  0.00  0.00    +0.000 C 
ATOM     50  C   UNL     1      -8.822 -31.865   3.423  0.00  0.00    +0.000 C 
ATOM     51  C   UNL     1      -8.236 -31.876   4.838  0.00  0.00    +0.000 C 
ENDBRANCH  47  49
ENDBRANCH  45  47
ENDBRANCH  42  44
BRANCH  42  52
ATOM     52  O   UNL     1      -6.754 -34.824   0.208  0.00  0.00    +0.000 OA
ATOM     53  H   UNL     1      -6.046 -34.428   0.756  0.00  0.00    +0.000 HD
ENDBRANCH  42  52
ENDBRANCH   6  42
TORSDOF 12
ENDMDL
MODEL 3
REMARK VINA RESULT:      -5.9      2.641      6.697
REMARK  Name = 101808842_CandidaspongiolideB.pdbqt.pdb
REMARK  12 active torsions:
REMARK  status: ('A' for Active; 'I' for Inactive)
REMARK    1  A    between atoms: C_6  and  C_42
REMARK    2  A    between atoms: C_7  and  O_28
REMARK    3  A    between atoms: C_10  and  O_30
REMARK    4  A    between atoms: C_13  and  O_32
REMARK    5  A    between atoms: C_19  and  O_34
REMARK    6  A    between atoms: C_20  and  O_38
REMARK    7  A    between atoms: C_21  and  O_36
REMARK    8  A    between atoms: O_38  and  C_40
REMARK    9  A    between atoms: C_42  and  C_44
REMARK   10  A    between atoms: C_42  and  O_52
REMARK   11  A    between atoms: C_45  and  C_47
REMARK   12  A    between atoms: C_47  and  C_49
REMARK                            x       y       z     vdW  Elec       q    Type
REMARK                         _______ _______ _______ _____ _____    ______ ____
ROOT
ATOM      1  O   UNL     1      -4.854 -39.499   2.711  0.00  0.00    +0.000 OA
ATOM      2  O   UNL     1      -7.280 -35.224  -2.090  0.00  0.00    +0.000 OA
ATOM      3  O   UNL     1      -5.723 -35.905   1.800  0.00  0.00    +0.000 OA
ATOM      4  O   UNL     1      -5.051 -35.707  -1.745  0.00  0.00    +0.000 OA
ATOM      5  O   UNL     1      -4.131 -38.315  -2.802  0.00  0.00    +0.000 OA
ATOM      6  C   UNL     1      -7.713 -35.798   0.572  0.00  0.00    +0.000 C 
ATOM      7  C   UNL     1      -6.743 -38.086   1.285  0.00  0.00    +0.000 C 
ATOM      8  C   UNL     1      -6.631 -36.547   1.270  0.00  0.00    +0.000 C 
ATOM      9  C   UNL     1      -7.520 -35.455  -0.797  0.00  0.00    +0.000 C 
ATOM     10  C   UNL     1      -6.076 -38.693   0.035  0.00  0.00    +0.000 C 
ATOM     11  C   UNL     1      -5.021 -39.617   0.295  0.00  0.00    +0.000 C 
ATOM     12  C   UNL     1      -5.875 -38.699   2.342  0.00  0.00    +0.000 C 
ATOM     13  C   UNL     1      -4.301 -40.149   1.494  0.00  0.00    +0.000 C 
ATOM     14  C   UNL     1      -2.795 -39.865   1.408  0.00  0.00    +0.000 C 
ATOM     15  C   UNL     1      -2.272 -38.944   0.452  0.00  0.00    +0.000 C 
ATOM     16  C   UNL     1      -1.700 -40.571   2.201  0.00  0.00    +0.000 C 
ATOM     17  C   UNL     1      -6.001 -35.478  -2.479  0.00  0.00    +0.000 C 
ATOM     18  C   UNL     1      -1.865 -38.115  -0.459  0.00  0.00    +0.000 C 
ATOM     19  C   UNL     1      -5.911 -35.534  -3.957  0.00  0.00    +0.000 C 
ATOM     20  C   UNL     1      -1.404 -38.572  -1.749  0.00  0.00    +0.000 C 
ATOM     21  C   UNL     1      -4.794 -36.177  -4.621  0.00  0.00    +0.000 C 
ATOM     22  C   UNL     1      -1.782 -38.020  -3.049  0.00  0.00    +0.000 C 
ATOM     23  C   UNL     1      -3.462 -36.395  -4.075  0.00  0.00    +0.000 C 
ATOM     24  C   UNL     1      -3.214 -37.629  -3.265  0.00  0.00    +0.000 C 
ATOM     25  C   UNL     1      -2.085 -36.654  -0.184  0.00  0.00    +0.000 C 
ATOM     26  C   UNL     1      -0.905 -38.295  -4.269  0.00  0.00    +0.000 C 
ATOM     27  C   UNL     1      -2.453 -35.253  -4.134  0.00  0.00    +0.000 C 
ENDROOT
BRANCH   7  28
ATOM     28  O   UNL     1      -8.049 -38.614   1.409  0.00  0.00    +0.000 OA
ATOM     29  H   UNL     1      -8.649 -37.958   1.009  0.00  0.00    +0.000 HD
ENDBRANCH   7  28
BRANCH  10  30
ATOM     30  O   UNL     1      -6.475 -38.385  -1.240  0.00  0.00    +0.000 OA
ATOM     31  H   UNL     1      -6.579 -37.418  -1.356  0.00  0.00    +0.000 HD
ENDBRANCH  10  30
BRANCH  13  32
ATOM     32  O   UNL     1      -4.557 -41.548   1.571  0.00  0.00    +0.000 OA
ATOM     33  H   UNL     1      -5.378 -41.638   2.081  0.00  0.00    +0.000 HD
ENDBRANCH  13  32
BRANCH  19  34
ATOM     34  O   UNL     1      -6.944 -35.109  -4.771  0.00  0.00    +0.000 OA
ATOM     35  H   UNL     1      -7.812 -35.097  -4.317  0.00  0.00    +0.000 HD
ENDBRANCH  19  34
BRANCH  21  36
ATOM     36  O   UNL     1      -4.908 -36.259  -5.999  0.00  0.00    +0.000 OA
ATOM     37  C   UNL     1      -5.045 -37.595  -6.413  0.00  0.00    +0.000 C 
ENDBRANCH  21  36
BRANCH  20  38
ATOM     38  O   UNL     1      -0.282 -39.434  -1.707  0.00  0.00    +0.000 OA
BRANCH  38  40
ATOM     39  O   UNL     1      -1.645 -41.248  -2.241  0.00  0.00    +0.000 OA
ATOM     40  C   UNL     1      -0.673 -40.735  -1.716  0.00  0.00    +0.000 C 
ATOM     41  C   UNL     1       0.171 -41.652  -0.912  0.00  0.00    +0.000 C 
ENDBRANCH  38  40
ENDBRANCH  20  38
BRANCH   6  42
ATOM     42  C   UNL     1      -8.803 -35.265   1.359  0.00  0.00    +0.000 C 
BRANCH  42  44
ATOM     43  O   UNL     1     -10.385 -33.316   1.665  0.00  0.00    +0.000 OA
ATOM     44  C   UNL     1      -9.791 -34.309   0.793  0.00  0.00    +0.000 C 
ATOM     45  C   UNL     1      -9.346 -32.921   0.866  0.00  0.00    +0.000 C 
ATOM     46  C   UNL     1     -10.890 -34.851  -0.181  0.00  0.00    +0.000 C 
BRANCH  45  47
ATOM     47  C   UNL     1      -9.625 -31.927  -0.125  0.00  0.00    +0.000 C 
ATOM     48  C   UNL     1     -10.329 -30.650   0.258  0.00  0.00    +0.000 C 
BRANCH  47  49
ATOM     49  C   UNL     1      -8.885 -31.894  -1.334  0.00  0.00    +0.000 C 
ATOM     50  C   UNL     1      -8.318 -31.863  -2.389  0.00  0.00    +0.000 C 
ATOM     51  C   UNL     1      -7.703 -31.840  -3.791  0.00  0.00    +0.000 C 
ENDBRANCH  47  49
ENDBRANCH  45  47
ENDBRANCH  42  44
BRANCH  42  52
ATOM     52  O   UNL     1      -8.877 -35.732   2.664  0.00  0.00    +0.000 OA
ATOM     53  H   UNL     1      -8.679 -36.689   2.725  0.00  0.00    +0.000 HD
ENDBRANCH  42  52
ENDBRANCH   6  42
TORSDOF 12
ENDMDL
MODEL 4
REMARK VINA RESULT:      -5.7     15.609     19.853
REMARK  Name = 101808842_CandidaspongiolideB.pdbqt.pdb
REMARK  12 active torsions:
REMARK  status: ('A' for Active; 'I' for Inactive)
REMARK    1  A    between atoms: C_6  and  C_42
REMARK    2  A    between atoms: C_7  and  O_28
REMARK    3  A    between atoms: C_10  and  O_30
REMARK    4  A    between atoms: C_13  and  O_32
REMARK    5  A    between atoms: C_19  and  O_34
REMARK    6  A    between atoms: C_20  and  O_38
REMARK    7  A    between atoms: C_21  and  O_36
REMARK    8  A    between atoms: O_38  and  C_40
REMARK    9  A    between atoms: C_42  and  C_44
REMARK   10  A    between atoms: C_42  and  O_52
REMARK   11  A    between atoms: C_45  and  C_47
REMARK   12  A    between atoms: C_47  and  C_49
REMARK                            x       y       z     vdW  Elec       q    Type
REMARK                         _______ _______ _______ _____ _____    ______ ____
ROOT
ATOM      1  O   UNL     1     -19.011 -21.244  -1.658  0.00  0.00    +0.000 OA
ATOM      2  O   UNL     1     -13.207 -22.223   1.886  0.00  0.00    +0.000 OA
ATOM      3  O   UNL     1     -16.621 -19.872   0.970  0.00  0.00    +0.000 OA
ATOM      4  O   UNL     1     -15.317 -22.822   2.601  0.00  0.00    +0.000 OA
ATOM      5  O   UNL     1     -16.424 -25.286   1.389  0.00  0.00    +0.000 OA
ATOM      6  C   UNL     1     -14.390 -20.249   0.368  0.00  0.00    +0.000 C 
ATOM      7  C   UNL     1     -16.310 -21.132  -1.123  0.00  0.00    +0.000 C 
ATOM      8  C   UNL     1     -15.857 -20.378   0.146  0.00  0.00    +0.000 C 
ATOM      9  C   UNL     1     -13.741 -21.231   1.171  0.00  0.00    +0.000 C 
ATOM     10  C   UNL     1     -16.425 -22.644  -0.845  0.00  0.00    +0.000 C 
ATOM     11  C   UNL     1     -17.714 -23.209  -1.081  0.00  0.00    +0.000 C 
ATOM     12  C   UNL     1     -17.738 -20.840  -1.466  0.00  0.00    +0.000 C 
ATOM     13  C   UNL     1     -19.068 -22.719  -1.486  0.00  0.00    +0.000 C 
ATOM     14  C   UNL     1     -20.123 -23.066  -0.426  0.00  0.00    +0.000 C 
ATOM     15  C   UNL     1     -19.743 -23.506   0.876  0.00  0.00    +0.000 C 
ATOM     16  C   UNL     1     -21.634 -23.098  -0.638  0.00  0.00    +0.000 C 
ATOM     17  C   UNL     1     -14.117 -23.029   2.499  0.00  0.00    +0.000 C 
ATOM     18  C   UNL     1     -19.324 -23.927   2.029  0.00  0.00    +0.000 C 
ATOM     19  C   UNL     1     -13.470 -24.277   2.968  0.00  0.00    +0.000 C 
ATOM     20  C   UNL     1     -19.205 -25.336   2.326  0.00  0.00    +0.000 C 
ATOM     21  C   UNL     1     -14.249 -25.460   3.275  0.00  0.00    +0.000 C 
ATOM     22  C   UNL     1     -18.065 -25.993   2.962  0.00  0.00    +0.000 C 
ATOM     23  C   UNL     1     -15.655 -25.507   3.651  0.00  0.00    +0.000 C 
ATOM     24  C   UNL     1     -16.684 -25.562   2.565  0.00  0.00    +0.000 C 
ATOM     25  C   UNL     1     -18.781 -22.886   2.967  0.00  0.00    +0.000 C 
ATOM     26  C   UNL     1     -18.248 -27.367   3.603  0.00  0.00    +0.000 C 
ATOM     27  C   UNL     1     -16.031 -25.247   5.105  0.00  0.00    +0.000 C 
ENDROOT
BRANCH   7  28
ATOM     28  O   UNL     1     -15.517 -20.938  -2.277  0.00  0.00    +0.000 OA
ATOM     29  H   UNL     1     -16.122 -20.640  -2.980  0.00  0.00    +0.000 HD
ENDBRANCH   7  28
BRANCH  10  30
ATOM     30  O   UNL     1     -15.366 -23.402  -0.419  0.00  0.00    +0.000 OA
ATOM     31  H   UNL     1     -15.642 -24.323  -0.228  0.00  0.00    +0.000 HD
ENDBRANCH  10  30
BRANCH  13  32
ATOM     32  O   UNL     1     -19.388 -23.310  -2.742  0.00  0.00    +0.000 OA
ATOM     33  H   UNL     1     -20.322 -23.569  -2.681  0.00  0.00    +0.000 HD
ENDBRANCH  13  32
BRANCH  19  34
ATOM     34  O   UNL     1     -12.096 -24.424   3.000  0.00  0.00    +0.000 OA
ATOM     35  H   UNL     1     -11.728 -24.782   2.166  0.00  0.00    +0.000 HD
ENDBRANCH  19  34
BRANCH  21  36
ATOM     36  O   UNL     1     -13.499 -26.583   3.583  0.00  0.00    +0.000 OA
ATOM     37  C   UNL     1     -14.217 -27.759   3.302  0.00  0.00    +0.000 C 
ENDBRANCH  21  36
BRANCH  20  38
ATOM     38  O   UNL     1     -20.415 -26.065   2.242  0.00  0.00    +0.000 OA
BRANCH  38  40
ATOM     39  O   UNL     1     -19.708 -27.027   0.242  0.00  0.00    +0.000 OA
ATOM     40  C   UNL     1     -20.559 -26.622   1.012  0.00  0.00    +0.000 C 
ATOM     41  C   UNL     1     -21.952 -26.682   0.507  0.00  0.00    +0.000 C 
ENDBRANCH  38  40
ENDBRANCH  20  38
BRANCH   6  42
ATOM     42  C   UNL     1     -13.733 -19.031  -0.049  0.00  0.00    +0.000 C 
BRANCH  42  44
ATOM     43  O   UNL     1     -14.776 -17.387   1.564  0.00  0.00    +0.000 OA
ATOM     44  C   UNL     1     -14.309 -17.689   0.226  0.00  0.00    +0.000 C 
ATOM     45  C   UNL     1     -13.538 -16.928   1.204  0.00  0.00    +0.000 C 
ATOM     46  C   UNL     1     -15.306 -17.071  -0.809  0.00  0.00    +0.000 C 
BRANCH  45  47
ATOM     47  C   UNL     1     -13.353 -15.509   1.164  0.00  0.00    +0.000 C 
ATOM     48  C   UNL     1     -14.433 -14.588   1.673  0.00  0.00    +0.000 C 
BRANCH  47  49
ATOM     49  C   UNL     1     -12.049 -14.959   1.087  0.00  0.00    +0.000 C 
ATOM     50  C   UNL     1     -10.924 -14.547   1.058  0.00  0.00    +0.000 C 
ATOM     51  C   UNL     1      -9.457 -14.109   1.103  0.00  0.00    +0.000 C 
ENDBRANCH  47  49
ENDBRANCH  45  47
ENDBRANCH  42  44
BRANCH  42  52
ATOM     52  O   UNL     1     -12.515 -19.203  -0.694  0.00  0.00    +0.000 OA
ATOM     53  H   UNL     1     -12.269 -20.147  -0.770  0.00  0.00    +0.000 HD
ENDBRANCH  42  52
ENDBRANCH   6  42
TORSDOF 12
ENDMDL
MODEL 5
REMARK VINA RESULT:      -5.3     14.493     18.367
REMARK  Name = 101808842_CandidaspongiolideB.pdbqt.pdb
REMARK  12 active torsions:
REMARK  status: ('A' for Active; 'I' for Inactive)
REMARK    1  A    between atoms: C_6  and  C_42
REMARK    2  A    between atoms: C_7  and  O_28
REMARK    3  A    between atoms: C_10  and  O_30
REMARK    4  A    between atoms: C_13  and  O_32
REMARK    5  A    between atoms: C_19  and  O_34
REMARK    6  A    between atoms: C_20  and  O_38
REMARK    7  A    between atoms: C_21  and  O_36
REMARK    8  A    between atoms: O_38  and  C_40
REMARK    9  A    between atoms: C_42  and  C_44
REMARK   10  A    between atoms: C_42  and  O_52
REMARK   11  A    between atoms: C_45  and  C_47
REMARK   12  A    between atoms: C_47  and  C_49
REMARK                            x       y       z     vdW  Elec       q    Type
REMARK                         _______ _______ _______ _____ _____    ______ ____
ROOT
ATOM      1  O   UNL     1      -7.315 -22.763 -20.372  0.00  0.00    +0.000 OA
ATOM      2  O   UNL     1     -11.064 -27.984 -17.944  0.00  0.00    +0.000 OA
ATOM      3  O   UNL     1      -9.510 -25.761 -21.209  0.00  0.00    +0.000 OA
ATOM      4  O   UNL     1      -8.842 -28.113 -18.549  0.00  0.00    +0.000 OA
ATOM      5  O   UNL     1      -6.920 -26.993 -16.594  0.00  0.00    +0.000 OA
ATOM      6  C   UNL     1     -11.331 -25.915 -19.746  0.00  0.00    +0.000 C 
ATOM      7  C   UNL     1      -9.556 -24.060 -19.428  0.00  0.00    +0.000 C 
ATOM      8  C   UNL     1     -10.067 -25.284 -20.219  0.00  0.00    +0.000 C 
ATOM      9  C   UNL     1     -11.240 -27.007 -18.836  0.00  0.00    +0.000 C 
ATOM     10  C   UNL     1      -8.657 -24.505 -18.258  0.00  0.00    +0.000 C 
ATOM     11  C   UNL     1      -7.331 -23.979 -18.274  0.00  0.00    +0.000 C 
ATOM     12  C   UNL     1      -8.556 -23.267 -20.212  0.00  0.00    +0.000 C 
ATOM     13  C   UNL     1      -6.505 -23.121 -19.179  0.00  0.00    +0.000 C 
ATOM     14  C   UNL     1      -5.233 -23.855 -19.630  0.00  0.00    +0.000 C 
ATOM     15  C   UNL     1      -5.086 -25.261 -19.437  0.00  0.00    +0.000 C 
ATOM     16  C   UNL     1      -3.978 -23.208 -20.207  0.00  0.00    +0.000 C 
ATOM     17  C   UNL     1      -9.776 -28.406 -17.817  0.00  0.00    +0.000 C 
ATOM     18  C   UNL     1      -5.011 -26.534 -19.204  0.00  0.00    +0.000 C 
ATOM     19  C   UNL     1      -9.617 -29.222 -16.591  0.00  0.00    +0.000 C 
ATOM     20  C   UNL     1      -4.357 -27.052 -18.024  0.00  0.00    +0.000 C 
ATOM     21  C   UNL     1      -8.312 -29.448 -16.000  0.00  0.00    +0.000 C 
ATOM     22  C   UNL     1      -4.876 -28.087 -17.132  0.00  0.00    +0.000 C 
ATOM     23  C   UNL     1      -7.025 -29.388 -16.677  0.00  0.00    +0.000 C 
ATOM     24  C   UNL     1      -6.336 -28.064 -16.789  0.00  0.00    +0.000 C 
ATOM     25  C   UNL     1      -5.804 -27.431 -20.110  0.00  0.00    +0.000 C 
ATOM     26  C   UNL     1      -3.917 -28.835 -16.206  0.00  0.00    +0.000 C 
ATOM     27  C   UNL     1      -6.553 -30.611 -17.458  0.00  0.00    +0.000 C 
ENDROOT
BRANCH   7  28
ATOM     28  O   UNL     1     -10.547 -23.181 -18.935  0.00  0.00    +0.000 OA
ATOM     29  H   UNL     1     -10.472 -23.200 -17.964  0.00  0.00    +0.000 HD
ENDBRANCH   7  28
BRANCH  10  30
ATOM     30  O   UNL     1      -9.098 -25.333 -17.258  0.00  0.00    +0.000 OA
ATOM     31  H   UNL     1      -9.400 -26.194 -17.617  0.00  0.00    +0.000 HD
ENDBRANCH  10  30
BRANCH  13  32
ATOM     32  O   UNL     1      -6.184 -21.925 -18.473  0.00  0.00    +0.000 OA
ATOM     33  H   UNL     1      -5.869 -22.211 -17.601  0.00  0.00    +0.000 HD
ENDBRANCH  13  32
BRANCH  19  34
ATOM     34  O   UNL     1     -10.703 -29.683 -15.871  0.00  0.00    +0.000 OA
ATOM     35  H   UNL     1     -11.057 -29.022 -15.241  0.00  0.00    +0.000 HD
ENDBRANCH  19  34
BRANCH  21  36
ATOM     36  O   UNL     1      -8.334 -30.124 -14.791  0.00  0.00    +0.000 OA
ATOM     37  C   UNL     1      -7.378 -29.597 -13.905  0.00  0.00    +0.000 C 
ENDBRANCH  21  36
BRANCH  20  38
ATOM     38  O   UNL     1      -2.987 -26.716 -17.907  0.00  0.00    +0.000 OA
BRANCH  38  40
ATOM     39  O   UNL     1      -2.179 -28.400 -19.300  0.00  0.00    +0.000 OA
ATOM     40  C   UNL     1      -2.272 -27.243 -18.934  0.00  0.00    +0.000 C 
ATOM     41  C   UNL     1      -1.429 -26.274 -19.676  0.00  0.00    +0.000 C 
ENDBRANCH  38  40
ENDBRANCH  20  38
BRANCH   6  42
ATOM     42  C   UNL     1     -12.571 -25.542 -20.389  0.00  0.00    +0.000 C 
BRANCH  42  44
ATOM     43  O   UNL     1     -14.009 -26.412 -18.500  0.00  0.00    +0.000 OA
ATOM     44  C   UNL     1     -13.891 -26.003 -19.885  0.00  0.00    +0.000 C 
ATOM     45  C   UNL     1     -14.425 -25.150 -18.827  0.00  0.00    +0.000 C 
ATOM     46  C   UNL     1     -14.741 -26.971 -20.774  0.00  0.00    +0.000 C 
BRANCH  45  47
ATOM     47  C   UNL     1     -15.814 -24.853 -18.649  0.00  0.00    +0.000 C 
ATOM     48  C   UNL     1     -16.734 -25.872 -18.027  0.00  0.00    +0.000 C 
BRANCH  47  49
ATOM     49  C   UNL     1     -16.259 -23.507 -18.618  0.00  0.00    +0.000 C 
ATOM     50  C   UNL     1     -16.690 -22.391 -18.557  0.00  0.00    +0.000 C 
ATOM     51  C   UNL     1     -17.346 -21.012 -18.433  0.00  0.00    +0.000 C 
ENDBRANCH  47  49
ENDBRANCH  45  47
ENDBRANCH  42  44
BRANCH  42  52
ATOM     52  O   UNL     1     -12.442 -24.703 -21.488  0.00  0.00    +0.000 OA
ATOM     53  H   UNL     1     -12.650 -25.160 -22.328  0.00  0.00    +0.000 HD
ENDBRANCH  42  52
ENDBRANCH   6  42
TORSDOF 12
ENDMDL
MODEL 6
REMARK VINA RESULT:      -5.3     17.122     21.306
REMARK  Name = 101808842_CandidaspongiolideB.pdbqt.pdb
REMARK  12 active torsions:
REMARK  status: ('A' for Active; 'I' for Inactive)
REMARK    1  A    between atoms: C_6  and  C_42
REMARK    2  A    between atoms: C_7  and  O_28
REMARK    3  A    between atoms: C_10  and  O_30
REMARK    4  A    between atoms: C_13  and  O_32
REMARK    5  A    between atoms: C_19  and  O_34
REMARK    6  A    between atoms: C_20  and  O_38
REMARK    7  A    between atoms: C_21  and  O_36
REMARK    8  A    between atoms: O_38  and  C_40
REMARK    9  A    between atoms: C_42  and  C_44
REMARK   10  A    between atoms: C_42  and  O_52
REMARK   11  A    between atoms: C_45  and  C_47
REMARK   12  A    between atoms: C_47  and  C_49
REMARK                            x       y       z     vdW  Elec       q    Type
REMARK                         _______ _______ _______ _____ _____    ______ ____
ROOT
ATOM      1  O   UNL     1     -12.223 -21.605   5.703  0.00  0.00    +0.000 OA
ATOM      2  O   UNL     1     -15.732 -21.807  -0.201  0.00  0.00    +0.000 OA
ATOM      3  O   UNL     1     -15.574 -22.259   4.016  0.00  0.00    +0.000 OA
ATOM      4  O   UNL     1     -15.607 -19.985   1.208  0.00  0.00    +0.000 OA
ATOM      5  O   UNL     1     -13.091 -18.431   1.067  0.00  0.00    +0.000 OA
ATOM      6  C   UNL     1     -15.298 -23.412   1.998  0.00  0.00    +0.000 C 
ATOM      7  C   UNL     1     -13.235 -22.697   3.383  0.00  0.00    +0.000 C 
ATOM      8  C   UNL     1     -14.769 -22.735   3.215  0.00  0.00    +0.000 C 
ATOM      9  C   UNL     1     -15.564 -22.617   0.846  0.00  0.00    +0.000 C 
ATOM     10  C   UNL     1     -12.643 -21.457   2.685  0.00  0.00    +0.000 C 
ATOM     11  C   UNL     1     -11.905 -20.575   3.531  0.00  0.00    +0.000 C 
ATOM     12  C   UNL     1     -12.836 -22.391   4.795  0.00  0.00    +0.000 C 
ATOM     13  C   UNL     1     -11.574 -20.476   4.987  0.00  0.00    +0.000 C 
ATOM     14  C   UNL     1     -12.068 -19.148   5.578  0.00  0.00    +0.000 C 
ATOM     15  C   UNL     1     -12.983 -18.319   4.865  0.00  0.00    +0.000 C 
ATOM     16  C   UNL     1     -11.590 -18.510   6.879  0.00  0.00    +0.000 C 
ATOM     17  C   UNL     1     -15.639 -20.481   0.091  0.00  0.00    +0.000 C 
ATOM     18  C   UNL     1     -13.793 -17.603   4.147  0.00  0.00    +0.000 C 
ATOM     19  C   UNL     1     -15.489 -19.685  -1.150  0.00  0.00    +0.000 C 
ATOM     20  C   UNL     1     -13.315 -16.537   3.298  0.00  0.00    +0.000 C 
ATOM     21  C   UNL     1     -14.969 -18.332  -1.119  0.00  0.00    +0.000 C 
ATOM     22  C   UNL     1     -13.708 -16.292   1.912  0.00  0.00    +0.000 C 
ATOM     23  C   UNL     1     -14.990 -17.414   0.010  0.00  0.00    +0.000 C 
ATOM     24  C   UNL     1     -13.868 -17.473   1.000  0.00  0.00    +0.000 C 
ATOM     25  C   UNL     1     -15.222 -18.063   4.088  0.00  0.00    +0.000 C 
ATOM     26  C   UNL     1     -13.476 -14.915   1.294  0.00  0.00    +0.000 C 
ATOM     27  C   UNL     1     -16.260 -16.613   0.277  0.00  0.00    +0.000 C 
ENDROOT
BRANCH   7  28
ATOM     28  O   UNL     1     -12.533 -23.844   2.951  0.00  0.00    +0.000 OA
ATOM     29  H   UNL     1     -12.032 -23.578   2.159  0.00  0.00    +0.000 HD
ENDBRANCH   7  28
BRANCH  10  30
ATOM     30  O   UNL     1     -12.793 -21.219   1.343  0.00  0.00    +0.000 OA
ATOM     31  H   UNL     1     -12.009 -20.761   0.974  0.00  0.00    +0.000 HD
ENDBRANCH  10  30
BRANCH  13  32
ATOM     32  O   UNL     1     -10.162 -20.605   5.122  0.00  0.00    +0.000 OA
ATOM     33  H   UNL     1      -9.857 -19.769   5.510  0.00  0.00    +0.000 HD
ENDBRANCH  13  32
BRANCH  19  34
ATOM     34  O   UNL     1     -15.697 -20.234  -2.402  0.00  0.00    +0.000 OA
ATOM     35  H   UNL     1     -15.430 -19.638  -3.132  0.00  0.00    +0.000 HD
ENDBRANCH  19  34
BRANCH  21  36
ATOM     36  O   UNL     1     -14.771 -17.761  -2.366  0.00  0.00    +0.000 OA
ATOM     37  C   UNL     1     -13.731 -16.815  -2.324  0.00  0.00    +0.000 C 
ENDBRANCH  21  36
BRANCH  20  38
ATOM     38  O   UNL     1     -12.632 -15.499   3.976  0.00  0.00    +0.000 OA
BRANCH  38  40
ATOM     39  O   UNL     1     -14.510 -14.271   4.603  0.00  0.00    +0.000 OA
ATOM     40  C   UNL     1     -13.464 -14.851   4.831  0.00  0.00    +0.000 C 
ATOM     41  C   UNL     1     -12.994 -14.782   6.236  0.00  0.00    +0.000 C 
ENDBRANCH  38  40
ENDBRANCH  20  38
BRANCH   6  42
ATOM     42  C   UNL     1     -15.722 -24.790   2.103  0.00  0.00    +0.000 C 
BRANCH  42  44
ATOM     43  O   UNL     1     -17.930 -25.985   2.409  0.00  0.00    +0.000 OA
ATOM     44  C   UNL     1     -17.017 -25.262   1.546  0.00  0.00    +0.000 C 
ATOM     45  C   UNL     1     -18.172 -24.655   2.200  0.00  0.00    +0.000 C 
ATOM     46  C   UNL     1     -17.031 -25.922   0.127  0.00  0.00    +0.000 C 
BRANCH  45  47
ATOM     47  C   UNL     1     -19.392 -24.309   1.534  0.00  0.00    +0.000 C 
ATOM     48  C   UNL     1     -20.711 -24.822   2.052  0.00  0.00    +0.000 C 
BRANCH  47  49
ATOM     49  C   UNL     1     -19.451 -23.167   0.696  0.00  0.00    +0.000 C 
ATOM     50  C   UNL     1     -19.435 -22.190   0.002  0.00  0.00    +0.000 C 
ATOM     51  C   UNL     1     -19.302 -20.919  -0.842  0.00  0.00    +0.000 C 
ENDBRANCH  47  49
ENDBRANCH  45  47
ENDBRANCH  42  44
BRANCH  42  52
ATOM     52  O   UNL     1     -14.823 -25.643   2.731  0.00  0.00    +0.000 OA
ATOM     53  H   UNL     1     -13.952 -25.652   2.285  0.00  0.00    +0.000 HD
ENDBRANCH  42  52
ENDBRANCH   6  42
TORSDOF 12
ENDMDL
MODEL 7
REMARK VINA RESULT:      -5.2     19.564     22.936
REMARK  Name = 101808842_CandidaspongiolideB.pdbqt.pdb
REMARK  12 active torsions:
REMARK  status: ('A' for Active; 'I' for Inactive)
REMARK    1  A    between atoms: C_6  and  C_42
REMARK    2  A    between atoms: C_7  and  O_28
REMARK    3  A    between atoms: C_10  and  O_30
REMARK    4  A    between atoms: C_13  and  O_32
REMARK    5  A    between atoms: C_19  and  O_34
REMARK    6  A    between atoms: C_20  and  O_38
REMARK    7  A    between atoms: C_21  and  O_36
REMARK    8  A    between atoms: O_38  and  C_40
REMARK    9  A    between atoms: C_42  and  C_44
REMARK   10  A    between atoms: C_42  and  O_52
REMARK   11  A    between atoms: C_45  and  C_47
REMARK   12  A    between atoms: C_47  and  C_49
REMARK                            x       y       z     vdW  Elec       q    Type
REMARK                         _______ _______ _______ _____ _____    ______ ____
ROOT
ATOM      1  O   UNL     1     -20.596 -20.453  -5.316  0.00  0.00    +0.000 OA
ATOM      2  O   UNL     1     -15.367 -16.622  -3.038  0.00  0.00    +0.000 OA
ATOM      3  O   UNL     1     -19.389 -16.973  -4.348  0.00  0.00    +0.000 OA
ATOM      4  O   UNL     1     -16.995 -17.573  -1.709  0.00  0.00    +0.000 OA
ATOM      5  O   UNL     1     -16.686 -20.471  -1.189  0.00  0.00    +0.000 OA
ATOM      6  C   UNL     1     -17.203 -16.595  -5.094  0.00  0.00    +0.000 C 
ATOM      7  C   UNL     1     -18.331 -18.890  -5.476  0.00  0.00    +0.000 C 
ATOM      8  C   UNL     1     -18.407 -17.453  -4.916  0.00  0.00    +0.000 C 
ATOM      9  C   UNL     1     -16.241 -16.556  -4.045  0.00  0.00    +0.000 C 
ATOM     10  C   UNL     1     -17.740 -19.852  -4.426  0.00  0.00    +0.000 C 
ATOM     11  C   UNL     1     -18.579 -20.948  -4.064  0.00  0.00    +0.000 C 
ATOM     12  C   UNL     1     -19.690 -19.503  -5.626  0.00  0.00    +0.000 C 
ATOM     13  C   UNL     1     -19.961 -21.422  -4.385  0.00  0.00    +0.000 C 
ATOM     14  C   UNL     1     -20.816 -21.540  -3.115  0.00  0.00    +0.000 C 
ATOM     15  C   UNL     1     -20.391 -20.959  -1.884  0.00  0.00    +0.000 C 
ATOM     16  C   UNL     1     -22.104 -22.345  -2.970  0.00  0.00    +0.000 C 
ATOM     17  C   UNL     1     -15.836 -17.249  -1.925  0.00  0.00    +0.000 C 
ATOM     18  C   UNL     1     -19.928 -20.429  -0.794  0.00  0.00    +0.000 C 
ATOM     19  C   UNL     1     -14.720 -17.583  -1.009  0.00  0.00    +0.000 C 
ATOM     20  C   UNL     1     -19.183 -21.206   0.170  0.00  0.00    +0.000 C 
ATOM     21  C   UNL     1     -14.869 -18.589   0.024  0.00  0.00    +0.000 C 
ATOM     22  C   UNL     1     -17.929 -20.815   0.812  0.00  0.00    +0.000 C 
ATOM     23  C   UNL     1     -16.111 -19.030   0.641  0.00  0.00    +0.000 C 
ATOM     24  C   UNL     1     -16.889 -20.125  -0.020  0.00  0.00    +0.000 C 
ATOM     25  C   UNL     1     -20.030 -18.935  -0.677  0.00  0.00    +0.000 C 
ATOM     26  C   UNL     1     -17.495 -21.507   2.103  0.00  0.00    +0.000 C 
ATOM     27  C   UNL     1     -16.695 -18.202   1.781  0.00  0.00    +0.000 C 
ENDROOT
BRANCH   7  28
ATOM     28  O   UNL     1     -17.625 -19.048  -6.690  0.00  0.00    +0.000 OA
ATOM     29  H   UNL     1     -17.854 -19.933  -7.028  0.00  0.00    +0.000 HD
ENDBRANCH   7  28
BRANCH  10  30
ATOM     30  O   UNL     1     -16.491 -19.685  -3.887  0.00  0.00    +0.000 OA
ATOM     31  H   UNL     1     -15.809 -19.616  -4.587  0.00  0.00    +0.000 HD
ENDBRANCH  10  30
BRANCH  13  32
ATOM     32  O   UNL     1     -19.848 -22.679  -5.047  0.00  0.00    +0.000 OA
ATOM     33  H   UNL     1     -20.500 -23.260  -4.621  0.00  0.00    +0.000 HD
ENDBRANCH  13  32
BRANCH  19  34
ATOM     34  O   UNL     1     -13.450 -17.066  -1.182  0.00  0.00    +0.000 OA
ATOM     35  H   UNL     1     -13.218 -16.920  -2.122  0.00  0.00    +0.000 HD
ENDBRANCH  19  34
BRANCH  21  36
ATOM     36  O   UNL     1     -13.707 -18.880   0.720  0.00  0.00    +0.000 OA
ATOM     37  C   UNL     1     -13.643 -20.248   1.041  0.00  0.00    +0.000 C 
ENDBRANCH  21  36
BRANCH  20  38
ATOM     38  O   UNL     1     -19.889 -22.298   0.728  0.00  0.00    +0.000 OA
BRANCH  38  40
ATOM     39  O   UNL     1     -18.650 -23.769  -0.588  0.00  0.00    +0.000 OA
ATOM     40  C   UNL     1     -19.646 -23.437   0.030  0.00  0.00    +0.000 C 
ATOM     41  C   UNL     1     -20.785 -24.384  -0.048  0.00  0.00    +0.000 C 
ENDBRANCH  38  40
ENDBRANCH  20  38
BRANCH   6  42
ATOM     42  C   UNL     1     -17.168 -15.679  -6.213  0.00  0.00    +0.000 C 
BRANCH  42  44
ATOM     43  O   UNL     1     -18.037 -13.357  -6.708  0.00  0.00    +0.000 OA
ATOM     44  C   UNL     1     -17.083 -14.207  -6.026  0.00  0.00    +0.000 C 
ATOM     45  C   UNL     1     -18.270 -13.645  -5.391  0.00  0.00    +0.000 C 
ATOM     46  C   UNL     1     -15.676 -13.523  -6.064  0.00  0.00    +0.000 C 
BRANCH  45  47
ATOM     47  C   UNL     1     -18.256 -12.550  -4.469  0.00  0.00    +0.000 C 
ATOM     48  C   UNL     1     -18.478 -11.142  -4.960  0.00  0.00    +0.000 C 
BRANCH  47  49
ATOM     49  C   UNL     1     -18.486 -12.773  -3.088  0.00  0.00    +0.000 C 
ATOM     50  C   UNL     1     -18.736 -12.998  -1.938  0.00  0.00    +0.000 C 
ATOM     51  C   UNL     1     -19.162 -13.334  -0.506  0.00  0.00    +0.000 C 
ENDBRANCH  47  49
ENDBRANCH  45  47
ENDBRANCH  42  44
BRANCH  42  52
ATOM     52  O   UNL     1     -17.187 -16.273  -7.468  0.00  0.00    +0.000 OA
ATOM     53  H   UNL     1     -18.079 -16.593  -7.711  0.00  0.00    +0.000 HD
ENDBRANCH  42  52
ENDBRANCH   6  42
TORSDOF 12
ENDMDL
MODEL 8
REMARK VINA RESULT:      -5.2     13.863     20.523
REMARK  Name = 101808842_CandidaspongiolideB.pdbqt.pdb
REMARK  12 active torsions:
REMARK  status: ('A' for Active; 'I' for Inactive)
REMARK    1  A    between atoms: C_6  and  C_42
REMARK    2  A    between atoms: C_7  and  O_28
REMARK    3  A    between atoms: C_10  and  O_30
REMARK    4  A    between atoms: C_13  and  O_32
REMARK    5  A    between atoms: C_19  and  O_34
REMARK    6  A    between atoms: C_20  and  O_38
REMARK    7  A    between atoms: C_21  and  O_36
REMARK    8  A    between atoms: O_38  and  C_40
REMARK    9  A    between atoms: C_42  and  C_44
REMARK   10  A    between atoms: C_42  and  O_52
REMARK   11  A    between atoms: C_45  and  C_47
REMARK   12  A    between atoms: C_47  and  C_49
REMARK                            x       y       z     vdW  Elec       q    Type
REMARK                         _______ _______ _______ _____ _____    ______ ____
ROOT
ATOM      1  O   UNL     1     -11.694 -20.762   6.106  0.00  0.00    +0.000 OA
ATOM      2  O   UNL     1     -15.764 -21.696   0.649  0.00  0.00    +0.000 OA
ATOM      3  O   UNL     1     -15.255 -21.214   4.836  0.00  0.00    +0.000 OA
ATOM      4  O   UNL     1     -15.235 -19.651   1.578  0.00  0.00    +0.000 OA
ATOM      5  O   UNL     1     -12.546 -18.605   0.915  0.00  0.00    +0.000 OA
ATOM      6  C   UNL     1     -15.353 -22.818   3.133  0.00  0.00    +0.000 C 
ATOM      7  C   UNL     1     -13.080 -22.162   4.178  0.00  0.00    +0.000 C 
ATOM      8  C   UNL     1     -14.612 -21.983   4.120  0.00  0.00    +0.000 C 
ATOM      9  C   UNL     1     -15.613 -22.268   1.846  0.00  0.00    +0.000 C 
ATOM     10  C   UNL     1     -12.385 -21.225   3.170  0.00  0.00    +0.000 C 
ATOM     11  C   UNL     1     -11.446 -20.311   3.736  0.00  0.00    +0.000 C 
ATOM     12  C   UNL     1     -12.502 -21.619   5.449  0.00  0.00    +0.000 C 
ATOM     13  C   UNL     1     -10.961 -19.945   5.103  0.00  0.00    +0.000 C 
ATOM     14  C   UNL     1     -11.194 -18.455   5.394  0.00  0.00    +0.000 C 
ATOM     15  C   UNL     1     -12.046 -17.667   4.564  0.00  0.00    +0.000 C 
ATOM     16  C   UNL     1     -10.502 -17.631   6.474  0.00  0.00    +0.000 C 
ATOM     17  C   UNL     1     -15.451 -20.372   0.614  0.00  0.00    +0.000 C 
ATOM     18  C   UNL     1     -12.810 -17.006   3.750  0.00  0.00    +0.000 C 
ATOM     19  C   UNL     1     -15.310 -19.910  -0.787  0.00  0.00    +0.000 C 
ATOM     20  C   UNL     1     -12.268 -16.251   2.645  0.00  0.00    +0.000 C 
ATOM     21  C   UNL     1     -14.598 -18.689  -1.110  0.00  0.00    +0.000 C 
ATOM     22  C   UNL     1     -12.757 -16.260   1.267  0.00  0.00    +0.000 C 
ATOM     23  C   UNL     1     -14.372 -17.551  -0.231  0.00  0.00    +0.000 C 
ATOM     24  C   UNL     1     -13.178 -17.572   0.672  0.00  0.00    +0.000 C 
ATOM     25  C   UNL     1     -14.289 -17.226   3.891  0.00  0.00    +0.000 C 
ATOM     26  C   UNL     1     -12.389 -15.114   0.328  0.00  0.00    +0.000 C 
ATOM     27  C   UNL     1     -15.478 -16.513  -0.081  0.00  0.00    +0.000 C 
ENDROOT
BRANCH   7  28
ATOM     28  O   UNL     1     -12.599 -23.477   3.986  0.00  0.00    +0.000 OA
ATOM     29  H   UNL     1     -12.146 -23.481   3.123  0.00  0.00    +0.000 HD
ENDBRANCH   7  28
BRANCH  10  30
ATOM     30  O   UNL     1     -12.633 -21.271   1.823  0.00  0.00    +0.000 OA
ATOM     31  H   UNL     1     -12.084 -21.955   1.385  0.00  0.00    +0.000 HD
ENDBRANCH  10  30
BRANCH  13  32
ATOM     32  O   UNL     1      -9.576 -20.272   5.176  0.00  0.00    +0.000 OA
ATOM     33  H   UNL     1      -9.131 -19.465   5.482  0.00  0.00    +0.000 HD
ENDBRANCH  13  32
BRANCH  19  34
ATOM     34  O   UNL     1     -15.719 -20.682  -1.858  0.00  0.00    +0.000 OA
ATOM     35  H   UNL     1     -16.188 -21.499  -1.588  0.00  0.00    +0.000 HD
ENDBRANCH  19  34
BRANCH  21  36
ATOM     36  O   UNL     1     -14.443 -18.451  -2.466  0.00  0.00    +0.000 OA
ATOM     37  C   UNL     1     -15.530 -17.717  -2.974  0.00  0.00    +0.000 C 
ENDBRANCH  21  36
BRANCH  20  38
ATOM     38  O   UNL     1     -11.376 -15.215   3.013  0.00  0.00    +0.000 OA
BRANCH  38  40
ATOM     39  O   UNL     1      -9.526 -16.550   2.541  0.00  0.00    +0.000 OA
ATOM     40  C   UNL     1     -10.117 -15.487   2.583  0.00  0.00    +0.000 C 
ATOM     41  C   UNL     1      -9.324 -14.304   2.168  0.00  0.00    +0.000 C 
ENDBRANCH  38  40
ENDBRANCH  20  38
BRANCH   6  42
ATOM     42  C   UNL     1     -15.961 -24.049   3.588  0.00  0.00    +0.000 C 
BRANCH  42  44
ATOM     43  O   UNL     1     -14.088 -25.647   3.015  0.00  0.00    +0.000 OA
ATOM     44  C   UNL     1     -15.508 -25.379   3.103  0.00  0.00    +0.000 C 
ATOM     45  C   UNL     1     -14.757 -26.125   4.108  0.00  0.00    +0.000 C 
ATOM     46  C   UNL     1     -16.221 -26.011   1.862  0.00  0.00    +0.000 C 
BRANCH  45  47
ATOM     47  C   UNL     1     -14.812 -27.547   4.271  0.00  0.00    +0.000 C 
ATOM     48  C   UNL     1     -16.087 -28.210   4.727  0.00  0.00    +0.000 C 
BRANCH  47  49
ATOM     49  C   UNL     1     -13.878 -28.380   3.604  0.00  0.00    +0.000 C 
ATOM     50  C   UNL     1     -13.102 -29.132   3.086  0.00  0.00    +0.000 C 
ATOM     51  C   UNL     1     -12.125 -30.168   2.522  0.00  0.00    +0.000 C 
ENDBRANCH  47  49
ENDBRANCH  45  47
ENDBRANCH  42  44
BRANCH  42  52
ATOM     52  O   UNL     1     -16.971 -23.900   4.530  0.00  0.00    +0.000 OA
ATOM     53  H   UNL     1     -17.029 -24.669   5.133  0.00  0.00    +0.000 HD
ENDBRANCH  42  52
ENDBRANCH   6  42
TORSDOF 12
ENDMDL
MODEL 9
REMARK VINA RESULT:      -5.2     14.173     18.326
REMARK  Name = 101808842_CandidaspongiolideB.pdbqt.pdb
REMARK  12 active torsions:
REMARK  status: ('A' for Active; 'I' for Inactive)
REMARK    1  A    between atoms: C_6  and  C_42
REMARK    2  A    between atoms: C_7  and  O_28
REMARK    3  A    between atoms: C_10  and  O_30
REMARK    4  A    between atoms: C_13  and  O_32
REMARK    5  A    between atoms: C_19  and  O_34
REMARK    6  A    between atoms: C_20  and  O_38
REMARK    7  A    between atoms: C_21  and  O_36
REMARK    8  A    between atoms: O_38  and  C_40
REMARK    9  A    between atoms: C_42  and  C_44
REMARK   10  A    between atoms: C_42  and  O_52
REMARK   11  A    between atoms: C_45  and  C_47
REMARK   12  A    between atoms: C_47  and  C_49
REMARK                            x       y       z     vdW  Elec       q    Type
REMARK                         _______ _______ _______ _____ _____    ______ ____
ROOT
ATOM      1  O   UNL     1      -7.338 -22.802 -20.361  0.00  0.00    +0.000 OA
ATOM      2  O   UNL     1     -11.067 -28.008 -17.871  0.00  0.00    +0.000 OA
ATOM      3  O   UNL     1      -9.573 -25.780 -21.160  0.00  0.00    +0.000 OA
ATOM      4  O   UNL     1      -8.860 -28.150 -18.527  0.00  0.00    +0.000 OA
ATOM      5  O   UNL     1      -6.887 -27.052 -16.612  0.00  0.00    +0.000 OA
ATOM      6  C   UNL     1     -11.361 -25.929 -19.657  0.00  0.00    +0.000 C 
ATOM      7  C   UNL     1      -9.567 -24.088 -19.372  0.00  0.00    +0.000 C 
ATOM      8  C   UNL     1     -10.104 -25.305 -20.156  0.00  0.00    +0.000 C 
ATOM      9  C   UNL     1     -11.257 -27.025 -18.754  0.00  0.00    +0.000 C 
ATOM     10  C   UNL     1      -8.644 -24.545 -18.224  0.00  0.00    +0.000 C 
ATOM     11  C   UNL     1      -7.315 -24.027 -18.268  0.00  0.00    +0.000 C 
ATOM     12  C   UNL     1      -8.579 -23.298 -20.174  0.00  0.00    +0.000 C 
ATOM     13  C   UNL     1      -6.504 -23.170 -19.188  0.00  0.00    +0.000 C 
ATOM     14  C   UNL     1      -5.248 -23.911 -19.672  0.00  0.00    +0.000 C 
ATOM     15  C   UNL     1      -5.106 -25.319 -19.488  0.00  0.00    +0.000 C 
ATOM     16  C   UNL     1      -4.002 -23.270 -20.274  0.00  0.00    +0.000 C 
ATOM     17  C   UNL     1      -9.780 -28.439 -17.775  0.00  0.00    +0.000 C 
ATOM     18  C   UNL     1      -5.034 -26.594 -19.262  0.00  0.00    +0.000 C 
ATOM     19  C   UNL     1      -9.598 -29.262 -16.557  0.00  0.00    +0.000 C 
ATOM     20  C   UNL     1      -4.358 -27.121 -18.100  0.00  0.00    +0.000 C 
ATOM     21  C   UNL     1      -8.281 -29.500 -15.997  0.00  0.00    +0.000 C 
ATOM     22  C   UNL     1      -4.863 -28.158 -17.201  0.00  0.00    +0.000 C 
ATOM     23  C   UNL     1      -7.010 -29.446 -16.704  0.00  0.00    +0.000 C 
ATOM     24  C   UNL     1      -6.315 -28.126 -16.824  0.00  0.00    +0.000 C 
ATOM     25  C   UNL     1      -5.854 -27.481 -20.155  0.00  0.00    +0.000 C 
ATOM     26  C   UNL     1      -3.888 -28.916 -16.302  0.00  0.00    +0.000 C 
ATOM     27  C   UNL     1      -6.565 -30.668 -17.500  0.00  0.00    +0.000 C 
ENDROOT
BRANCH   7  28
ATOM     28  O   UNL     1     -10.540 -23.205 -18.852  0.00  0.00    +0.000 OA
ATOM     29  H   UNL     1     -11.224 -23.114 -19.540  0.00  0.00    +0.000 HD
ENDBRANCH   7  28
BRANCH  10  30
ATOM     30  O   UNL     1      -9.067 -25.374 -17.218  0.00  0.00    +0.000 OA
ATOM     31  H   UNL     1     -10.045 -25.381 -17.151  0.00  0.00    +0.000 HD
ENDBRANCH  10  30
BRANCH  13  32
ATOM     32  O   UNL     1      -6.159 -21.980 -18.485  0.00  0.00    +0.000 OA
ATOM     33  H   UNL     1      -5.342 -22.187 -18.002  0.00  0.00    +0.000 HD
ENDBRANCH  13  32
BRANCH  19  34
ATOM     34  O   UNL     1     -10.670 -29.720 -15.814  0.00  0.00    +0.000 OA
ATOM     35  H   UNL     1     -11.089 -30.519 -16.194  0.00  0.00    +0.000 HD
ENDBRANCH  19  34
BRANCH  21  36
ATOM     36  O   UNL     1      -8.280 -30.182 -14.791  0.00  0.00    +0.000 OA
ATOM     37  C   UNL     1      -7.280 -29.686 -13.936  0.00  0.00    +0.000 C 
ENDBRANCH  21  36
BRANCH  20  38
ATOM     38  O   UNL     1      -2.983 -26.795 -18.013  0.00  0.00    +0.000 OA
BRANCH  38  40
ATOM     39  O   UNL     1      -2.216 -28.479 -19.429  0.00  0.00    +0.000 OA
ATOM     40  C   UNL     1      -2.295 -27.322 -19.059  0.00  0.00    +0.000 C 
ATOM     41  C   UNL     1      -1.466 -26.355 -19.819  0.00  0.00    +0.000 C 
ENDBRANCH  38  40
ENDBRANCH  20  38
BRANCH   6  42
ATOM     42  C   UNL     1     -12.613 -25.545 -20.270  0.00  0.00    +0.000 C 
BRANCH  42  44
ATOM     43  O   UNL     1     -14.213 -26.538 -21.957  0.00  0.00    +0.000 OA
ATOM     44  C   UNL     1     -13.659 -26.542 -20.619  0.00  0.00    +0.000 C 
ATOM     45  C   UNL     1     -13.241 -27.459 -21.675  0.00  0.00    +0.000 C 
ATOM     46  C   UNL     1     -14.809 -26.816 -19.594  0.00  0.00    +0.000 C 
BRANCH  45  47
ATOM     47  C   UNL     1     -13.610 -28.841 -21.741  0.00  0.00    +0.000 C 
ATOM     48  C   UNL     1     -14.653 -29.301 -22.728  0.00  0.00    +0.000 C 
BRANCH  47  49
ATOM     49  C   UNL     1     -12.735 -29.840 -21.246  0.00  0.00    +0.000 C 
ATOM     50  C   UNL     1     -11.948 -30.663 -20.872  0.00  0.00    +0.000 C 
ATOM     51  C   UNL     1     -10.871 -31.682 -20.490  0.00  0.00    +0.000 C 
ENDBRANCH  47  49
ENDBRANCH  45  47
ENDBRANCH  42  44
BRANCH  42  52
ATOM     52  O   UNL     1     -12.779 -24.182 -20.480  0.00  0.00    +0.000 OA
ATOM     53  H   UNL     1     -12.559 -23.657 -19.684  0.00  0.00    +0.000 HD
ENDBRANCH  42  52
ENDBRANCH   6  42
TORSDOF 12
ENDMDL
