MODEL 1
REMARK VINA RESULT:      -5.8      0.000      0.000
REMARK  Name = 101808841_CandidaspongiolideA.pdbqt.pdb
REMARK  13 active torsions:
REMARK  status: ('A' for Active; 'I' for Inactive)
REMARK    1  A    between atoms: C_6  and  C_39
REMARK    2  A    between atoms: C_9  and  O_27
REMARK    3  A    between atoms: C_9  and  C_51
REMARK    4  A    between atoms: C_10  and  O_29
REMARK    5  A    between atoms: C_14  and  O_31
REMARK    6  A    between atoms: C_15  and  O_33
REMARK    7  A    between atoms: C_20  and  O_35
REMARK    8  A    between atoms: O_35  and  C_37
REMARK    9  A    between atoms: C_39  and  C_41
REMARK   10  A    between atoms: C_39  and  O_49
REMARK   11  A    between atoms: C_42  and  C_44
REMARK   12  A    between atoms: C_44  and  C_46
REMARK   13  A    between atoms: C_51  and  O_52
REMARK                            x       y       z     vdW  Elec       q    Type
REMARK                         _______ _______ _______ _____ _____    ______ ____
ROOT
ATOM      1  O   UNL     1      -2.210 -17.108   0.346  0.00  0.00    +0.000 OA
ATOM      2  O   UNL     1      -3.624 -15.648  -3.281  0.00  0.00    +0.000 OA
ATOM      3  O   UNL     1      -4.313 -17.273   1.279  0.00  0.00    +0.000 OA
ATOM      4  O   UNL     1       2.569 -13.393  -3.032  0.00  0.00    +0.000 OA
ATOM      5  O   UNL     1       0.444 -17.931  -0.267  0.00  0.00    +0.000 OA
ATOM      6  C   UNL     1      -2.896 -14.913  -1.165  0.00  0.00    +0.000 C 
ATOM      7  C   UNL     1      -2.739 -15.071  -2.644  0.00  0.00    +0.000 C 
ATOM      8  C   UNL     1      -2.556 -16.026  -0.347  0.00  0.00    +0.000 C 
ATOM      9  C   UNL     1      -1.400 -14.569  -3.249  0.00  0.00    +0.000 C 
ATOM     10  C   UNL     1      -0.271 -15.530  -2.918  0.00  0.00    +0.000 C 
ATOM     11  C   UNL     1       1.079 -15.104  -2.745  0.00  0.00    +0.000 C 
ATOM     12  C   UNL     1      -3.194 -17.713   1.052  0.00  0.00    +0.000 C 
ATOM     13  C   UNL     1       2.407 -14.530  -2.601  0.00  0.00    +0.000 C 
ATOM     14  C   UNL     1      -2.776 -19.059   1.507  0.00  0.00    +0.000 C 
ATOM     15  C   UNL     1      -1.442 -19.603   1.360  0.00  0.00    +0.000 C 
ATOM     16  C   UNL     1       3.502 -15.321  -1.953  0.00  0.00    +0.000 C 
ATOM     17  C   UNL     1      -0.196 -18.970   1.775  0.00  0.00    +0.000 C 
ATOM     18  C   UNL     1       2.217 -18.992   0.943  0.00  0.00    +0.000 C 
ATOM     19  C   UNL     1       0.789 -18.592   0.714  0.00  0.00    +0.000 C 
ATOM     20  C   UNL     1       3.270 -18.355   0.148  0.00  0.00    +0.000 C 
ATOM     21  C   UNL     1       3.325 -16.671  -1.558  0.00  0.00    +0.000 C 
ATOM     22  C   UNL     1       3.145 -17.908  -1.221  0.00  0.00    +0.000 C 
ATOM     23  C   UNL     1       4.880 -14.756  -1.679  0.00  0.00    +0.000 C 
ATOM     24  C   UNL     1      -0.191 -18.124   3.049  0.00  0.00    +0.000 C 
ATOM     25  C   UNL     1       2.567 -20.114   1.914  0.00  0.00    +0.000 C 
ATOM     26  C   UNL     1       2.629 -18.815  -2.310  0.00  0.00    +0.000 C 
ENDROOT
BRANCH   9  27
ATOM     27  O   UNL     1      -1.084 -13.294  -2.689  0.00  0.00    +0.000 OA
ATOM     28  H   UNL     1      -1.313 -13.332  -1.743  0.00  0.00    +0.000 HD
ENDBRANCH   9  27
BRANCH  10  29
ATOM     29  O   UNL     1      -0.568 -16.874  -2.809  0.00  0.00    +0.000 OA
ATOM     30  H   UNL     1      -0.024 -17.347  -2.150  0.00  0.00    +0.000 HD
ENDBRANCH  10  29
BRANCH  14  31
ATOM     31  O   UNL     1      -3.725 -19.895   2.070  0.00  0.00    +0.000 OA
ATOM     32  H   UNL     1      -3.372 -20.805   2.163  0.00  0.00    +0.000 HD
ENDBRANCH  14  31
BRANCH  15  33
ATOM     33  O   UNL     1      -1.402 -20.985   1.281  0.00  0.00    +0.000 OA
ATOM     34  C   UNL     1      -1.581 -21.403  -0.046  0.00  0.00    +0.000 C 
ENDBRANCH  15  33
BRANCH  20  35
ATOM     35  O   UNL     1       4.618 -18.479   0.577  0.00  0.00    +0.000 OA
BRANCH  35  37
ATOM     36  O   UNL     1       5.195 -20.523  -0.390  0.00  0.00    +0.000 OA
ATOM     37  C   UNL     1       5.363 -19.340  -0.164  0.00  0.00    +0.000 C 
ATOM     38  C   UNL     1       6.596 -18.750  -0.741  0.00  0.00    +0.000 C 
ENDBRANCH  35  37
ENDBRANCH  20  35
BRANCH   6  39
ATOM     39  C   UNL     1      -3.474 -13.705  -0.611  0.00  0.00    +0.000 C 
BRANCH  39  41
ATOM     40  O   UNL     1      -5.678 -14.638   0.269  0.00  0.00    +0.000 OA
ATOM     41  C   UNL     1      -4.942 -13.575  -0.384  0.00  0.00    +0.000 C 
ATOM     42  C   UNL     1      -5.334 -13.554   1.022  0.00  0.00    +0.000 C 
ATOM     43  C   UNL     1      -5.818 -13.012  -1.556  0.00  0.00    +0.000 C 
BRANCH  42  44
ATOM     44  C   UNL     1      -6.373 -12.694   1.514  0.00  0.00    +0.000 C 
ATOM     45  C   UNL     1      -6.165 -11.201   1.549  0.00  0.00    +0.000 C 
BRANCH  44  46
ATOM     46  C   UNL     1      -7.721 -13.136   1.436  0.00  0.00    +0.000 C 
ATOM     47  C   UNL     1      -8.823 -13.594   1.325  0.00  0.00    +0.000 C 
ATOM     48  C   UNL     1     -10.177 -14.281   1.095  0.00  0.00    +0.000 C 
ENDBRANCH  44  46
ENDBRANCH  42  44
ENDBRANCH  39  41
BRANCH  39  49
ATOM     49  O   UNL     1      -2.568 -12.848  -0.003  0.00  0.00    +0.000 OA
ATOM     50  H   UNL     1      -2.453 -13.039   0.948  0.00  0.00    +0.000 HD
ENDBRANCH  39  49
ENDBRANCH   6  39
BRANCH   9  51
ATOM     51  C   UNL     1      -1.504 -14.437  -4.722  0.00  0.00    +0.000 C 
BRANCH  51  52
ATOM     52  O   UNL     1      -1.597 -14.291  -6.043  0.00  0.00    +0.000 OA
ATOM     53  H   UNL     1      -1.387 -15.128  -6.497  0.00  0.00    +0.000 HD
ENDBRANCH  51  52
ENDBRANCH   9  51
TORSDOF 13
ENDMDL
MODEL 2
REMARK VINA RESULT:      -5.8     17.842     22.213
REMARK  Name = 101808841_CandidaspongiolideA.pdbqt.pdb
REMARK  13 active torsions:
REMARK  status: ('A' for Active; 'I' for Inactive)
REMARK    1  A    between atoms: C_6  and  C_39
REMARK    2  A    between atoms: C_9  and  O_27
REMARK    3  A    between atoms: C_9  and  C_51
REMARK    4  A    between atoms: C_10  and  O_29
REMARK    5  A    between atoms: C_14  and  O_31
REMARK    6  A    between atoms: C_15  and  O_33
REMARK    7  A    between atoms: C_20  and  O_35
REMARK    8  A    between atoms: O_35  and  C_37
REMARK    9  A    between atoms: C_39  and  C_41
REMARK   10  A    between atoms: C_39  and  O_49
REMARK   11  A    between atoms: C_42  and  C_44
REMARK   12  A    between atoms: C_44  and  C_46
REMARK   13  A    between atoms: C_51  and  O_52
REMARK                            x       y       z     vdW  Elec       q    Type
REMARK                         _______ _______ _______ _____ _____    ______ ____
ROOT
ATOM      1  O   UNL     1      -6.726 -36.600  -1.307  0.00  0.00    +0.000 OA
ATOM      2  O   UNL     1      -3.984 -37.685   1.624  0.00  0.00    +0.000 OA
ATOM      3  O   UNL     1      -8.512 -36.574   0.152  0.00  0.00    +0.000 OA
ATOM      4  O   UNL     1      -1.199 -39.843  -3.951  0.00  0.00    +0.000 OA
ATOM      5  O   UNL     1      -5.080 -35.668  -3.432  0.00  0.00    +0.000 OA
ATOM      6  C   UNL     1      -5.461 -38.631   0.053  0.00  0.00    +0.000 C 
ATOM      7  C   UNL     1      -4.093 -38.311   0.568  0.00  0.00    +0.000 C 
ATOM      8  C   UNL     1      -6.152 -37.606  -0.653  0.00  0.00    +0.000 C 
ATOM      9  C   UNL     1      -2.905 -38.721  -0.343  0.00  0.00    +0.000 C 
ATOM     10  C   UNL     1      -2.795 -37.782  -1.532  0.00  0.00    +0.000 C 
ATOM     11  C   UNL     1      -2.300 -38.200  -2.802  0.00  0.00    +0.000 C 
ATOM     12  C   UNL     1      -7.856 -36.093  -0.761  0.00  0.00    +0.000 C 
ATOM     13  C   UNL     1      -1.773 -38.763  -4.035  0.00  0.00    +0.000 C 
ATOM     14  C   UNL     1      -8.214 -34.796  -1.382  0.00  0.00    +0.000 C 
ATOM     15  C   UNL     1      -7.543 -34.215  -2.527  0.00  0.00    +0.000 C 
ATOM     16  C   UNL     1      -1.942 -38.027  -5.330  0.00  0.00    +0.000 C 
ATOM     17  C   UNL     1      -7.289 -34.868  -3.806  0.00  0.00    +0.000 C 
ATOM     18  C   UNL     1      -5.473 -34.714  -5.593  0.00  0.00    +0.000 C 
ATOM     19  C   UNL     1      -5.866 -35.111  -4.200  0.00  0.00    +0.000 C 
ATOM     20  C   UNL     1      -4.229 -35.242  -6.159  0.00  0.00    +0.000 C 
ATOM     21  C   UNL     1      -2.513 -36.731  -5.392  0.00  0.00    +0.000 C 
ATOM     22  C   UNL     1      -3.022 -35.540  -5.422  0.00  0.00    +0.000 C 
ATOM     23  C   UNL     1      -1.510 -38.593  -6.666  0.00  0.00    +0.000 C 
ATOM     24  C   UNL     1      -8.330 -35.846  -4.351  0.00  0.00    +0.000 C 
ATOM     25  C   UNL     1      -6.295 -33.696  -6.376  0.00  0.00    +0.000 C 
ATOM     26  C   UNL     1      -2.381 -34.531  -4.503  0.00  0.00    +0.000 C 
ENDROOT
BRANCH   9  27
ATOM     27  O   UNL     1      -3.128 -40.044  -0.834  0.00  0.00    +0.000 OA
ATOM     28  H   UNL     1      -2.291 -40.532  -0.730  0.00  0.00    +0.000 HD
ENDBRANCH   9  27
BRANCH  10  29
ATOM     29  O   UNL     1      -3.164 -36.463  -1.359  0.00  0.00    +0.000 OA
ATOM     30  H   UNL     1      -3.990 -36.347  -0.851  0.00  0.00    +0.000 HD
ENDBRANCH  10  29
BRANCH  14  31
ATOM     31  O   UNL     1      -9.226 -34.043  -0.812  0.00  0.00    +0.000 OA
ATOM     32  H   UNL     1     -10.085 -34.235  -1.244  0.00  0.00    +0.000 HD
ENDBRANCH  14  31
BRANCH  15  33
ATOM     33  O   UNL     1      -7.600 -32.833  -2.572  0.00  0.00    +0.000 OA
ATOM     34  C   UNL     1      -6.843 -32.279  -1.529  0.00  0.00    +0.000 C 
ENDBRANCH  15  33
BRANCH  20  35
ATOM     35  O   UNL     1      -4.020 -35.141  -7.560  0.00  0.00    +0.000 OA
BRANCH  35  37
ATOM     36  O   UNL     1      -2.980 -33.054  -7.645  0.00  0.00    +0.000 OA
ATOM     37  C   UNL     1      -3.074 -34.235  -7.919  0.00  0.00    +0.000 C 
ATOM     38  C   UNL     1      -2.027 -34.763  -8.829  0.00  0.00    +0.000 C 
ENDBRANCH  35  37
ENDBRANCH  20  35
BRANCH   6  39
ATOM     39  C   UNL     1      -6.085 -39.902   0.362  0.00  0.00    +0.000 C 
BRANCH  39  41
ATOM     40  O   UNL     1      -6.838 -41.331   2.336  0.00  0.00    +0.000 OA
ATOM     41  C   UNL     1      -6.908 -40.089   1.591  0.00  0.00    +0.000 C 
ATOM     42  C   UNL     1      -6.131 -40.267   2.814  0.00  0.00    +0.000 C 
ATOM     43  C   UNL     1      -8.402 -39.618   1.553  0.00  0.00    +0.000 C 
BRANCH  42  44
ATOM     44  C   UNL     1      -6.524 -39.679   4.063  0.00  0.00    +0.000 C 
ATOM     45  C   UNL     1      -6.815 -40.558   5.253  0.00  0.00    +0.000 C 
BRANCH  44  46
ATOM     46  C   UNL     1      -6.114 -38.351   4.354  0.00  0.00    +0.000 C 
ATOM     47  C   UNL     1      -5.839 -37.197   4.531  0.00  0.00    +0.000 C 
ATOM     48  C   UNL     1      -5.568 -35.689   4.641  0.00  0.00    +0.000 C 
ENDBRANCH  44  46
ENDBRANCH  42  44
ENDBRANCH  39  41
BRANCH  39  49
ATOM     49  O   UNL     1      -6.155 -40.793  -0.699  0.00  0.00    +0.000 OA
ATOM     50  H   UNL     1      -6.807 -40.522  -1.373  0.00  0.00    +0.000 HD
ENDBRANCH  39  49
ENDBRANCH   6  39
BRANCH   9  51
ATOM     51  C   UNL     1      -1.630 -38.695   0.412  0.00  0.00    +0.000 C 
BRANCH  51  52
ATOM     52  O   UNL     1      -0.481 -38.699   1.089  0.00  0.00    +0.000 OA
ATOM     53  H   UNL     1      -0.466 -37.976   1.744  0.00  0.00    +0.000 HD
ENDBRANCH  51  52
ENDBRANCH   9  51
TORSDOF 13
ENDMDL
MODEL 3
REMARK VINA RESULT:      -5.7      4.611      9.508
REMARK  Name = 101808841_CandidaspongiolideA.pdbqt.pdb
REMARK  13 active torsions:
REMARK  status: ('A' for Active; 'I' for Inactive)
REMARK    1  A    between atoms: C_6  and  C_39
REMARK    2  A    between atoms: C_9  and  O_27
REMARK    3  A    between atoms: C_9  and  C_51
REMARK    4  A    between atoms: C_10  and  O_29
REMARK    5  A    between atoms: C_14  and  O_31
REMARK    6  A    between atoms: C_15  and  O_33
REMARK    7  A    between atoms: C_20  and  O_35
REMARK    8  A    between atoms: O_35  and  C_37
REMARK    9  A    between atoms: C_39  and  C_41
REMARK   10  A    between atoms: C_39  and  O_49
REMARK   11  A    between atoms: C_42  and  C_44
REMARK   12  A    between atoms: C_44  and  C_46
REMARK   13  A    between atoms: C_51  and  O_52
REMARK                            x       y       z     vdW  Elec       q    Type
REMARK                         _______ _______ _______ _____ _____    ______ ____
ROOT
ATOM      1  O   UNL     1      -0.652 -19.008   3.818  0.00  0.00    +0.000 OA
ATOM      2  O   UNL     1      -2.961 -20.321   7.016  0.00  0.00    +0.000 OA
ATOM      3  O   UNL     1       1.287 -19.966   4.621  0.00  0.00    +0.000 OA
ATOM      4  O   UNL     1      -6.233 -15.026   4.837  0.00  0.00    +0.000 OA
ATOM      5  O   UNL     1      -2.588 -18.286   1.863  0.00  0.00    +0.000 OA
ATOM      6  C   UNL     1      -1.619 -18.505   6.345  0.00  0.00    +0.000 C 
ATOM      7  C   UNL     1      -2.936 -19.138   6.670  0.00  0.00    +0.000 C 
ATOM      8  C   UNL     1      -1.081 -18.744   5.049  0.00  0.00    +0.000 C 
ATOM      9  C   UNL     1      -4.194 -18.256   6.447  0.00  0.00    +0.000 C 
ATOM     10  C   UNL     1      -4.500 -18.128   4.964  0.00  0.00    +0.000 C 
ATOM     11  C   UNL     1      -5.112 -16.971   4.399  0.00  0.00    +0.000 C 
ATOM     12  C   UNL     1       0.501 -19.712   3.719  0.00  0.00    +0.000 C 
ATOM     13  C   UNL     1      -5.742 -15.734   3.965  0.00  0.00    +0.000 C 
ATOM     14  C   UNL     1       0.702 -20.218   2.341  0.00  0.00    +0.000 C 
ATOM     15  C   UNL     1      -0.132 -19.879   1.207  0.00  0.00    +0.000 C 
ATOM     16  C   UNL     1      -5.771 -15.377   2.509  0.00  0.00    +0.000 C 
ATOM     17  C   UNL     1      -0.493 -18.537   0.765  0.00  0.00    +0.000 C 
ATOM     18  C   UNL     1      -2.510 -17.486  -0.394  0.00  0.00    +0.000 C 
ATOM     19  C   UNL     1      -1.933 -18.138   0.830  0.00  0.00    +0.000 C 
ATOM     20  C   UNL     1      -3.775 -16.757  -0.280  0.00  0.00    +0.000 C 
ATOM     21  C   UNL     1      -5.294 -16.258   1.507  0.00  0.00    +0.000 C 
ATOM     22  C   UNL     1      -4.867 -17.086   0.607  0.00  0.00    +0.000 C 
ATOM     23  C   UNL     1      -6.319 -14.064   1.991  0.00  0.00    +0.000 C 
ATOM     24  C   UNL     1       0.538 -17.415   0.909  0.00  0.00    +0.000 C 
ATOM     25  C   UNL     1      -1.849 -17.662  -1.756  0.00  0.00    +0.000 C 
ATOM     26  C   UNL     1      -5.460 -18.472   0.660  0.00  0.00    +0.000 C 
ENDROOT
BRANCH   9  27
ATOM     27  O   UNL     1      -3.947 -16.950   6.969  0.00  0.00    +0.000 OA
ATOM     28  H   UNL     1      -3.978 -17.020   7.941  0.00  0.00    +0.000 HD
ENDBRANCH   9  27
BRANCH  10  29
ATOM     29  O   UNL     1      -4.196 -19.194   4.140  0.00  0.00    +0.000 OA
ATOM     30  H   UNL     1      -3.898 -19.991   4.618  0.00  0.00    +0.000 HD
ENDBRANCH  10  29
BRANCH  14  31
ATOM     31  O   UNL     1       1.724 -21.121   2.108  0.00  0.00    +0.000 OA
ATOM     32  H   UNL     1       2.531 -20.866   2.602  0.00  0.00    +0.000 HD
ENDBRANCH  14  31
BRANCH  15  33
ATOM     33  O   UNL     1      -0.168 -20.852   0.222  0.00  0.00    +0.000 OA
ATOM     34  C   UNL     1      -1.345 -21.608   0.327  0.00  0.00    +0.000 C 
ENDBRANCH  15  33
BRANCH  20  35
ATOM     35  O   UNL     1      -4.151 -15.877  -1.331  0.00  0.00    +0.000 OA
BRANCH  35  37
ATOM     36  O   UNL     1      -2.926 -14.064  -0.522  0.00  0.00    +0.000 OA
ATOM     37  C   UNL     1      -3.875 -14.570  -1.090  0.00  0.00    +0.000 C 
ATOM     38  C   UNL     1      -4.922 -13.623  -1.547  0.00  0.00    +0.000 C 
ENDBRANCH  35  37
ENDBRANCH  20  35
BRANCH   6  39
ATOM     39  C   UNL     1      -0.886 -17.771   7.355  0.00  0.00    +0.000 C 
BRANCH  39  41
ATOM     40  O   UNL     1       0.588 -17.709   9.436  0.00  0.00    +0.000 OA
ATOM     41  C   UNL     1      -0.152 -18.470   8.449  0.00  0.00    +0.000 C 
ATOM     42  C   UNL     1      -0.646 -18.172   9.791  0.00  0.00    +0.000 C 
ATOM     43  C   UNL     1       0.684 -19.742   8.076  0.00  0.00    +0.000 C 
BRANCH  42  44
ATOM     44  C   UNL     1      -0.741 -19.176  10.811  0.00  0.00    +0.000 C 
ATOM     45  C   UNL     1       0.313 -19.264  11.886  0.00  0.00    +0.000 C 
BRANCH  44  46
ATOM     46  C   UNL     1      -2.022 -19.688  11.150  0.00  0.00    +0.000 C 
ATOM     47  C   UNL     1      -3.057 -20.211  11.458  0.00  0.00    +0.000 C 
ATOM     48  C   UNL     1      -4.310 -21.006  11.851  0.00  0.00    +0.000 C 
ENDBRANCH  44  46
ENDBRANCH  42  44
ENDBRANCH  39  41
BRANCH  39  49
ATOM     49  O   UNL     1      -0.629 -16.444   7.044  0.00  0.00    +0.000 OA
ATOM     50  H   UNL     1       0.326 -16.243   7.017  0.00  0.00    +0.000 HD
ENDBRANCH  39  49
ENDBRANCH   6  39
BRANCH   9  51
ATOM     51  C   UNL     1      -5.372 -18.836   7.134  0.00  0.00    +0.000 C 
BRANCH  51  52
ATOM     52  O   UNL     1      -6.421 -19.382   7.749  0.00  0.00    +0.000 OA
ATOM     53  H   UNL     1      -6.152 -20.173   8.252  0.00  0.00    +0.000 HD
ENDBRANCH  51  52
ENDBRANCH   9  51
TORSDOF 13
ENDMDL
MODEL 4
REMARK VINA RESULT:      -5.5     13.499     17.626
REMARK  Name = 101808841_CandidaspongiolideA.pdbqt.pdb
REMARK  13 active torsions:
REMARK  status: ('A' for Active; 'I' for Inactive)
REMARK    1  A    between atoms: C_6  and  C_39
REMARK    2  A    between atoms: C_9  and  O_27
REMARK    3  A    between atoms: C_9  and  C_51
REMARK    4  A    between atoms: C_10  and  O_29
REMARK    5  A    between atoms: C_14  and  O_31
REMARK    6  A    between atoms: C_15  and  O_33
REMARK    7  A    between atoms: C_20  and  O_35
REMARK    8  A    between atoms: O_35  and  C_37
REMARK    9  A    between atoms: C_39  and  C_41
REMARK   10  A    between atoms: C_39  and  O_49
REMARK   11  A    between atoms: C_42  and  C_44
REMARK   12  A    between atoms: C_44  and  C_46
REMARK   13  A    between atoms: C_51  and  O_52
REMARK                            x       y       z     vdW  Elec       q    Type
REMARK                         _______ _______ _______ _____ _____    ______ ____
ROOT
ATOM      1  O   UNL     1       5.037 -30.674  -9.581  0.00  0.00    +0.000 OA
ATOM      2  O   UNL     1       5.259 -30.476 -13.728  0.00  0.00    +0.000 OA
ATOM      3  O   UNL     1       4.323 -32.868  -9.568  0.00  0.00    +0.000 OA
ATOM      4  O   UNL     1       4.409 -24.186 -11.937  0.00  0.00    +0.000 OA
ATOM      5  O   UNL     1       6.549 -28.418  -8.734  0.00  0.00    +0.000 OA
ATOM      6  C   UNL     1       3.753 -30.122 -11.952  0.00  0.00    +0.000 C 
ATOM      7  C   UNL     1       4.631 -29.646 -13.067  0.00  0.00    +0.000 C 
ATOM      8  C   UNL     1       4.378 -30.423 -10.710  0.00  0.00    +0.000 C 
ATOM      9  C   UNL     1       4.751 -28.107 -13.236  0.00  0.00    +0.000 C 
ATOM     10  C   UNL     1       5.632 -27.518 -12.147  0.00  0.00    +0.000 C 
ATOM     11  C   UNL     1       5.446 -26.201 -11.632  0.00  0.00    +0.000 C 
ATOM     12  C   UNL     1       5.024 -31.957  -9.148  0.00  0.00    +0.000 C 
ATOM     13  C   UNL     1       5.142 -24.844 -11.208  0.00  0.00    +0.000 C 
ATOM     14  C   UNL     1       6.037 -32.175  -8.090  0.00  0.00    +0.000 C 
ATOM     15  C   UNL     1       6.832 -31.129  -7.480  0.00  0.00    +0.000 C 
ATOM     16  C   UNL     1       5.718 -24.309  -9.932  0.00  0.00    +0.000 C 
ATOM     17  C   UNL     1       6.331 -29.896  -6.883  0.00  0.00    +0.000 C 
ATOM     18  C   UNL     1       7.216 -27.517  -6.618  0.00  0.00    +0.000 C 
ATOM     19  C   UNL     1       6.709 -28.599  -7.526  0.00  0.00    +0.000 C 
ATOM     20  C   UNL     1       7.258 -26.138  -7.111  0.00  0.00    +0.000 C 
ATOM     21  C   UNL     1       6.649 -25.046  -9.157  0.00  0.00    +0.000 C 
ATOM     22  C   UNL     1       7.510 -25.732  -8.474  0.00  0.00    +0.000 C 
ATOM     23  C   UNL     1       5.370 -22.945  -9.374  0.00  0.00    +0.000 C 
ATOM     24  C   UNL     1       4.996 -29.930  -6.138  0.00  0.00    +0.000 C 
ATOM     25  C   UNL     1       7.777 -27.852  -5.241  0.00  0.00    +0.000 C 
ATOM     26  C   UNL     1       8.709 -26.228  -9.244  0.00  0.00    +0.000 C 
ENDROOT
BRANCH   9  27
ATOM     27  O   UNL     1       3.452 -27.523 -13.129  0.00  0.00    +0.000 OA
ATOM     28  H   UNL     1       2.898 -28.148 -12.627  0.00  0.00    +0.000 HD
ENDBRANCH   9  27
BRANCH  10  29
ATOM     29  O   UNL     1       6.671 -28.285 -11.661  0.00  0.00    +0.000 OA
ATOM     30  H   UNL     1       6.441 -28.808 -10.869  0.00  0.00    +0.000 HD
ENDBRANCH  10  29
BRANCH  14  31
ATOM     31  O   UNL     1       6.298 -33.469  -7.675  0.00  0.00    +0.000 OA
ATOM     32  H   UNL     1       7.261 -33.650  -7.692  0.00  0.00    +0.000 HD
ENDBRANCH  14  31
BRANCH  15  33
ATOM     33  O   UNL     1       8.059 -31.558  -7.003  0.00  0.00    +0.000 OA
ATOM     34  C   UNL     1       9.055 -31.354  -7.970  0.00  0.00    +0.000 C 
ENDBRANCH  15  33
BRANCH  20  35
ATOM     35  O   UNL     1       7.419 -25.083  -6.172  0.00  0.00    +0.000 OA
BRANCH  35  37
ATOM     36  O   UNL     1       5.395 -23.922  -6.170  0.00  0.00    +0.000 OA
ATOM     37  C   UNL     1       6.254 -24.613  -5.657  0.00  0.00    +0.000 C 
ATOM     38  C   UNL     1       6.027 -24.956  -4.231  0.00  0.00    +0.000 C 
ENDBRANCH  35  37
ENDBRANCH  20  35
BRANCH   6  39
ATOM     39  C   UNL     1       2.342 -30.362 -12.177  0.00  0.00    +0.000 C 
BRANCH  39  41
ATOM     40  O   UNL     1       2.566 -32.886 -11.885  0.00  0.00    +0.000 OA
ATOM     41  C   UNL     1       1.802 -31.742 -12.342  0.00  0.00    +0.000 C 
ATOM     42  C   UNL     1       1.552 -32.444 -11.086  0.00  0.00    +0.000 C 
ATOM     43  C   UNL     1       1.131 -32.109 -13.710  0.00  0.00    +0.000 C 
BRANCH  42  44
ATOM     44  C   UNL     1       0.404 -33.284 -10.894  0.00  0.00    +0.000 C 
ATOM     45  C   UNL     1       0.572 -34.779 -10.785  0.00  0.00    +0.000 C 
BRANCH  44  46
ATOM     46  C   UNL     1      -0.748 -32.738 -10.269  0.00  0.00    +0.000 C 
ATOM     47  C   UNL     1      -1.694 -32.329  -9.656  0.00  0.00    +0.000 C 
ATOM     48  C   UNL     1      -2.876 -31.906  -8.771  0.00  0.00    +0.000 C 
ENDBRANCH  44  46
ENDBRANCH  42  44
ENDBRANCH  39  41
BRANCH  39  49
ATOM     49  O   UNL     1       1.512 -29.289 -11.888  0.00  0.00    +0.000 OA
ATOM     50  H   UNL     1       1.840 -28.753 -11.140  0.00  0.00    +0.000 HD
ENDBRANCH  39  49
ENDBRANCH   6  39
BRANCH   9  51
ATOM     51  C   UNL     1       5.326 -27.767 -14.558  0.00  0.00    +0.000 C 
BRANCH  51  52
ATOM     52  O   UNL     1       5.829 -27.480 -15.759  0.00  0.00    +0.000 OA
ATOM     53  H   UNL     1       6.450 -28.175 -16.047  0.00  0.00    +0.000 HD
ENDBRANCH  51  52
ENDBRANCH   9  51
TORSDOF 13
ENDMDL
MODEL 5
REMARK VINA RESULT:      -5.5      3.677      8.641
REMARK  Name = 101808841_CandidaspongiolideA.pdbqt.pdb
REMARK  13 active torsions:
REMARK  status: ('A' for Active; 'I' for Inactive)
REMARK    1  A    between atoms: C_6  and  C_39
REMARK    2  A    between atoms: C_9  and  O_27
REMARK    3  A    between atoms: C_9  and  C_51
REMARK    4  A    between atoms: C_10  and  O_29
REMARK    5  A    between atoms: C_14  and  O_31
REMARK    6  A    between atoms: C_15  and  O_33
REMARK    7  A    between atoms: C_20  and  O_35
REMARK    8  A    between atoms: O_35  and  C_37
REMARK    9  A    between atoms: C_39  and  C_41
REMARK   10  A    between atoms: C_39  and  O_49
REMARK   11  A    between atoms: C_42  and  C_44
REMARK   12  A    between atoms: C_44  and  C_46
REMARK   13  A    between atoms: C_51  and  O_52
REMARK                            x       y       z     vdW  Elec       q    Type
REMARK                         _______ _______ _______ _____ _____    ______ ____
ROOT
ATOM      1  O   UNL     1      -0.787 -18.781   3.907  0.00  0.00    +0.000 OA
ATOM      2  O   UNL     1      -3.150 -20.217   7.012  0.00  0.00    +0.000 OA
ATOM      3  O   UNL     1       1.172 -19.595   4.813  0.00  0.00    +0.000 OA
ATOM      4  O   UNL     1      -6.670 -15.183   4.611  0.00  0.00    +0.000 OA
ATOM      5  O   UNL     1      -2.673 -18.214   1.855  0.00  0.00    +0.000 OA
ATOM      6  C   UNL     1      -1.906 -18.321   6.379  0.00  0.00    +0.000 C 
ATOM      7  C   UNL     1      -3.190 -19.039   6.652  0.00  0.00    +0.000 C 
ATOM      8  C   UNL     1      -1.292 -18.534   5.113  0.00  0.00    +0.000 C 
ATOM      9  C   UNL     1      -4.493 -18.248   6.358  0.00  0.00    +0.000 C 
ATOM     10  C   UNL     1      -4.737 -18.157   4.861  0.00  0.00    +0.000 C 
ATOM     11  C   UNL     1      -5.399 -17.051   4.253  0.00  0.00    +0.000 C 
ATOM     12  C   UNL     1       0.414 -19.405   3.872  0.00  0.00    +0.000 C 
ATOM     13  C   UNL     1      -6.090 -15.865   3.773  0.00  0.00    +0.000 C 
ATOM     14  C   UNL     1       0.715 -19.910   2.512  0.00  0.00    +0.000 C 
ATOM     15  C   UNL     1      -0.086 -19.641   1.336  0.00  0.00    +0.000 C 
ATOM     16  C   UNL     1      -6.075 -15.525   2.313  0.00  0.00    +0.000 C 
ATOM     17  C   UNL     1      -0.516 -18.331   0.860  0.00  0.00    +0.000 C 
ATOM     18  C   UNL     1      -2.543 -17.434  -0.406  0.00  0.00    +0.000 C 
ATOM     19  C   UNL     1      -1.982 -18.032   0.851  0.00  0.00    +0.000 C 
ATOM     20  C   UNL     1      -3.859 -16.793  -0.362  0.00  0.00    +0.000 C 
ATOM     21  C   UNL     1      -5.492 -16.382   1.346  0.00  0.00    +0.000 C 
ATOM     22  C   UNL     1      -4.967 -17.188   0.478  0.00  0.00    +0.000 C 
ATOM     23  C   UNL     1      -6.686 -14.259   1.752  0.00  0.00    +0.000 C 
ATOM     24  C   UNL     1       0.427 -17.140   1.036  0.00  0.00    +0.000 C 
ATOM     25  C   UNL     1      -1.808 -17.578  -1.734  0.00  0.00    +0.000 C 
ATOM     26  C   UNL     1      -5.465 -18.610   0.522  0.00  0.00    +0.000 C 
ENDROOT
BRANCH   9  27
ATOM     27  O   UNL     1      -4.362 -16.923   6.873  0.00  0.00    +0.000 OA
ATOM     28  H   UNL     1      -3.523 -16.564   6.529  0.00  0.00    +0.000 HD
ENDBRANCH   9  27
BRANCH  10  29
ATOM     29  O   UNL     1      -4.322 -19.208   4.067  0.00  0.00    +0.000 OA
ATOM     30  H   UNL     1      -4.908 -19.987   4.104  0.00  0.00    +0.000 HD
ENDBRANCH  10  29
BRANCH  14  31
ATOM     31  O   UNL     1       1.806 -20.743   2.338  0.00  0.00    +0.000 OA
ATOM     32  H   UNL     1       2.529 -20.273   1.872  0.00  0.00    +0.000 HD
ENDBRANCH  14  31
BRANCH  15  33
ATOM     33  O   UNL     1      -0.008 -20.624   0.363  0.00  0.00    +0.000 OA
ATOM     34  C   UNL     1      -1.091 -21.509   0.478  0.00  0.00    +0.000 C 
ENDBRANCH  15  33
BRANCH  20  35
ATOM     35  O   UNL     1      -4.244 -15.952  -1.441  0.00  0.00    +0.000 OA
BRANCH  35  37
ATOM     36  O   UNL     1      -2.698 -14.227  -1.165  0.00  0.00    +0.000 OA
ATOM     37  C   UNL     1      -3.820 -14.667  -1.326  0.00  0.00    +0.000 C 
ATOM     38  C   UNL     1      -4.904 -13.655  -1.350  0.00  0.00    +0.000 C 
ENDBRANCH  35  37
ENDBRANCH  20  35
BRANCH   6  39
ATOM     39  C   UNL     1      -1.272 -17.527   7.413  0.00  0.00    +0.000 C 
BRANCH  39  41
ATOM     40  O   UNL     1       0.583 -15.779   7.485  0.00  0.00    +0.000 OA
ATOM     41  C   UNL     1      -0.776 -16.147   7.144  0.00  0.00    +0.000 C 
ATOM     42  C   UNL     1       0.319 -16.079   6.181  0.00  0.00    +0.000 C 
ATOM     43  C   UNL     1      -1.719 -14.947   7.499  0.00  0.00    +0.000 C 
BRANCH  42  44
ATOM     44  C   UNL     1       0.410 -15.036   5.199  0.00  0.00    +0.000 C 
ATOM     45  C   UNL     1       1.739 -14.384   4.909  0.00  0.00    +0.000 C 
BRANCH  44  46
ATOM     46  C   UNL     1      -0.545 -15.000   4.148  0.00  0.00    +0.000 C 
ATOM     47  C   UNL     1      -1.362 -14.869   3.280  0.00  0.00    +0.000 C 
ATOM     48  C   UNL     1      -2.438 -14.570   2.226  0.00  0.00    +0.000 C 
ENDBRANCH  44  46
ENDBRANCH  42  44
ENDBRANCH  39  41
BRANCH  39  49
ATOM     49  O   UNL     1      -1.470 -17.987   8.707  0.00  0.00    +0.000 OA
ATOM     50  H   UNL     1      -0.954 -17.483   9.366  0.00  0.00    +0.000 HD
ENDBRANCH  39  49
ENDBRANCH   6  39
BRANCH   9  51
ATOM     51  C   UNL     1      -5.660 -18.901   6.998  0.00  0.00    +0.000 C 
BRANCH  51  52
ATOM     52  O   UNL     1      -6.693 -19.506   7.584  0.00  0.00    +0.000 OA
ATOM     53  H   UNL     1      -6.877 -19.106   8.455  0.00  0.00    +0.000 HD
ENDBRANCH  51  52
ENDBRANCH   9  51
TORSDOF 13
ENDMDL
MODEL 6
REMARK VINA RESULT:      -5.5     13.268     16.846
REMARK  Name = 101808841_CandidaspongiolideA.pdbqt.pdb
REMARK  13 active torsions:
REMARK  status: ('A' for Active; 'I' for Inactive)
REMARK    1  A    between atoms: C_6  and  C_39
REMARK    2  A    between atoms: C_9  and  O_27
REMARK    3  A    between atoms: C_9  and  C_51
REMARK    4  A    between atoms: C_10  and  O_29
REMARK    5  A    between atoms: C_14  and  O_31
REMARK    6  A    between atoms: C_15  and  O_33
REMARK    7  A    between atoms: C_20  and  O_35
REMARK    8  A    between atoms: O_35  and  C_37
REMARK    9  A    between atoms: C_39  and  C_41
REMARK   10  A    between atoms: C_39  and  O_49
REMARK   11  A    between atoms: C_42  and  C_44
REMARK   12  A    between atoms: C_44  and  C_46
REMARK   13  A    between atoms: C_51  and  O_52
REMARK                            x       y       z     vdW  Elec       q    Type
REMARK                         _______ _______ _______ _____ _____    ______ ____
ROOT
ATOM      1  O   UNL     1       7.060 -27.269  -5.086  0.00  0.00    +0.000 OA
ATOM      2  O   UNL     1       7.659 -31.379  -4.895  0.00  0.00    +0.000 OA
ATOM      3  O   UNL     1       7.764 -26.908  -2.919  0.00  0.00    +0.000 OA
ATOM      4  O   UNL     1       3.080 -30.715  -9.594  0.00  0.00    +0.000 OA
ATOM      5  O   UNL     1       6.849 -26.765  -7.878  0.00  0.00    +0.000 OA
ATOM      6  C   UNL     1       6.015 -29.743  -4.485  0.00  0.00    +0.000 C 
ATOM      7  C   UNL     1       6.587 -30.891  -5.256  0.00  0.00    +0.000 C 
ATOM      8  C   UNL     1       6.531 -28.446  -4.762  0.00  0.00    +0.000 C 
ATOM      9  C   UNL     1       5.808 -31.315  -6.532  0.00  0.00    +0.000 C 
ATOM     10  C   UNL     1       6.030 -30.312  -7.651  0.00  0.00    +0.000 C 
ATOM     11  C   UNL     1       5.047 -30.036  -8.646  0.00  0.00    +0.000 C 
ATOM     12  C   UNL     1       7.742 -26.625  -4.109  0.00  0.00    +0.000 C 
ATOM     13  C   UNL     1       3.958 -29.859  -9.593  0.00  0.00    +0.000 C 
ATOM     14  C   UNL     1       8.545 -25.510  -4.662  0.00  0.00    +0.000 C 
ATOM     15  C   UNL     1       8.493 -25.059  -6.038  0.00  0.00    +0.000 C 
ATOM     16  C   UNL     1       3.943 -28.673 -10.509  0.00  0.00    +0.000 C 
ATOM     17  C   UNL     1       7.296 -24.698  -6.788  0.00  0.00    +0.000 C 
ATOM     18  C   UNL     1       6.585 -24.811  -9.237  0.00  0.00    +0.000 C 
ATOM     19  C   UNL     1       6.926 -25.539  -7.969  0.00  0.00    +0.000 C 
ATOM     20  C   UNL     1       5.879 -25.530 -10.301  0.00  0.00    +0.000 C 
ATOM     21  C   UNL     1       5.019 -27.752 -10.568  0.00  0.00    +0.000 C 
ATOM     22  C   UNL     1       6.021 -26.933 -10.615  0.00  0.00    +0.000 C 
ATOM     23  C   UNL     1       2.797 -28.369 -11.450  0.00  0.00    +0.000 C 
ATOM     24  C   UNL     1       6.148 -24.006  -6.052  0.00  0.00    +0.000 C 
ATOM     25  C   UNL     1       7.053 -23.378  -9.464  0.00  0.00    +0.000 C 
ATOM     26  C   UNL     1       7.371 -27.564 -10.847  0.00  0.00    +0.000 C 
ENDROOT
BRANCH   9  27
ATOM     27  O   UNL     1       4.412 -31.355  -6.234  0.00  0.00    +0.000 OA
ATOM     28  H   UNL     1       4.326 -31.345  -5.264  0.00  0.00    +0.000 HD
ENDBRANCH   9  27
BRANCH  10  29
ATOM     29  O   UNL     1       7.249 -29.666  -7.717  0.00  0.00    +0.000 OA
ATOM     30  H   UNL     1       8.016 -30.269  -7.732  0.00  0.00    +0.000 HD
ENDBRANCH  10  29
BRANCH  14  31
ATOM     31  O   UNL     1       9.454 -24.872  -3.837  0.00  0.00    +0.000 OA
ATOM     32  H   UNL     1       9.088 -24.771  -2.933  0.00  0.00    +0.000 HD
ENDBRANCH  14  31
BRANCH  15  33
ATOM     33  O   UNL     1       9.666 -24.473  -6.483  0.00  0.00    +0.000 OA
ATOM     34  C   UNL     1      10.471 -25.424  -7.130  0.00  0.00    +0.000 C 
ENDBRANCH  15  33
BRANCH  20  35
ATOM     35  O   UNL     1       5.272 -24.779 -11.343  0.00  0.00    +0.000 OA
BRANCH  35  37
ATOM     36  O   UNL     1       7.066 -24.542 -12.816  0.00  0.00    +0.000 OA
ATOM     37  C   UNL     1       5.924 -24.848 -12.533  0.00  0.00    +0.000 C 
ATOM     38  C   UNL     1       5.092 -25.324 -13.666  0.00  0.00    +0.000 C 
ENDBRANCH  35  37
ENDBRANCH  20  35
BRANCH   6  39
ATOM     39  C   UNL     1       5.053 -29.974  -3.427  0.00  0.00    +0.000 C 
BRANCH  39  41
ATOM     40  O   UNL     1       4.880 -28.711  -1.218  0.00  0.00    +0.000 OA
ATOM     41  C   UNL     1       5.418 -29.813  -1.991  0.00  0.00    +0.000 C 
ATOM     42  C   UNL     1       4.294 -29.933  -1.067  0.00  0.00    +0.000 C 
ATOM     43  C   UNL     1       6.920 -30.013  -1.589  0.00  0.00    +0.000 C 
BRANCH  42  44
ATOM     44  C   UNL     1       4.410 -30.605   0.196  0.00  0.00    +0.000 C 
ATOM     45  C   UNL     1       4.808 -29.834   1.429  0.00  0.00    +0.000 C 
BRANCH  44  46
ATOM     46  C   UNL     1       3.650 -31.785   0.417  0.00  0.00    +0.000 C 
ATOM     47  C   UNL     1       2.966 -32.733   0.683  0.00  0.00    +0.000 C 
ATOM     48  C   UNL     1       2.060 -33.881   1.151  0.00  0.00    +0.000 C 
ENDBRANCH  44  46
ENDBRANCH  42  44
ENDBRANCH  39  41
BRANCH  39  49
ATOM     49  O   UNL     1       3.728 -30.009  -3.838  0.00  0.00    +0.000 OA
ATOM     50  H   UNL     1       3.530 -29.337  -4.519  0.00  0.00    +0.000 HD
ENDBRANCH  39  49
ENDBRANCH   6  39
BRANCH   9  51
ATOM     51  C   UNL     1       6.242 -32.655  -6.992  0.00  0.00    +0.000 C 
BRANCH  51  52
ATOM     52  O   UNL     1       6.644 -33.849  -7.428  0.00  0.00    +0.000 OA
ATOM     53  H   UNL     1       6.602 -34.509  -6.711  0.00  0.00    +0.000 HD
ENDBRANCH  51  52
ENDBRANCH   9  51
TORSDOF 13
ENDMDL
MODEL 7
REMARK VINA RESULT:      -5.4     20.401     23.153
REMARK  Name = 101808841_CandidaspongiolideA.pdbqt.pdb
REMARK  13 active torsions:
REMARK  status: ('A' for Active; 'I' for Inactive)
REMARK    1  A    between atoms: C_6  and  C_39
REMARK    2  A    between atoms: C_9  and  O_27
REMARK    3  A    between atoms: C_9  and  C_51
REMARK    4  A    between atoms: C_10  and  O_29
REMARK    5  A    between atoms: C_14  and  O_31
REMARK    6  A    between atoms: C_15  and  O_33
REMARK    7  A    between atoms: C_20  and  O_35
REMARK    8  A    between atoms: O_35  and  C_37
REMARK    9  A    between atoms: C_39  and  C_41
REMARK   10  A    between atoms: C_39  and  O_49
REMARK   11  A    between atoms: C_42  and  C_44
REMARK   12  A    between atoms: C_44  and  C_46
REMARK   13  A    between atoms: C_51  and  O_52
REMARK                            x       y       z     vdW  Elec       q    Type
REMARK                         _______ _______ _______ _____ _____    ______ ____
ROOT
ATOM      1  O   UNL     1      -7.166 -31.158 -18.943  0.00  0.00    +0.000 OA
ATOM      2  O   UNL     1      -9.573 -27.947 -17.856  0.00  0.00    +0.000 OA
ATOM      3  O   UNL     1      -8.949 -32.497 -19.535  0.00  0.00    +0.000 OA
ATOM      4  O   UNL     1      -4.070 -26.991 -14.349  0.00  0.00    +0.000 OA
ATOM      5  O   UNL     1      -4.586 -29.988 -19.198  0.00  0.00    +0.000 OA
ATOM      6  C   UNL     1      -8.592 -29.891 -16.959  0.00  0.00    +0.000 C 
ATOM      7  C   UNL     1      -8.716 -28.406 -17.099  0.00  0.00    +0.000 C 
ATOM      8  C   UNL     1      -7.866 -30.586 -17.966  0.00  0.00    +0.000 C 
ATOM      9  C   UNL     1      -7.665 -27.556 -16.334  0.00  0.00    +0.000 C 
ATOM     10  C   UNL     1      -6.317 -27.618 -17.033  0.00  0.00    +0.000 C 
ATOM     11  C   UNL     1      -5.080 -27.524 -16.331  0.00  0.00    +0.000 C 
ATOM     12  C   UNL     1      -7.835 -32.032 -19.732  0.00  0.00    +0.000 C 
ATOM     13  C   UNL     1      -3.900 -27.410 -15.489  0.00  0.00    +0.000 C 
ATOM     14  C   UNL     1      -7.062 -32.348 -20.955  0.00  0.00    +0.000 C 
ATOM     15  C   UNL     1      -5.704 -31.913 -21.209  0.00  0.00    +0.000 C 
ATOM     16  C   UNL     1      -2.554 -27.795 -16.024  0.00  0.00    +0.000 C 
ATOM     17  C   UNL     1      -4.558 -32.083 -20.323  0.00  0.00    +0.000 C 
ATOM     18  C   UNL     1      -2.419 -30.775 -19.847  0.00  0.00    +0.000 C 
ATOM     19  C   UNL     1      -3.915 -30.856 -19.759  0.00  0.00    +0.000 C 
ATOM     20  C   UNL     1      -1.710 -29.801 -19.014  0.00  0.00    +0.000 C 
ATOM     21  C   UNL     1      -2.361 -28.174 -17.376  0.00  0.00    +0.000 C 
ATOM     22  C   UNL     1      -2.206 -28.502 -18.620  0.00  0.00    +0.000 C 
ATOM     23  C   UNL     1      -1.297 -27.798 -15.180  0.00  0.00    +0.000 C 
ATOM     24  C   UNL     1      -4.465 -33.356 -19.479  0.00  0.00    +0.000 C 
ATOM     25  C   UNL     1      -1.650 -31.616 -20.859  0.00  0.00    +0.000 C 
ATOM     26  C   UNL     1      -2.737 -27.513 -19.628  0.00  0.00    +0.000 C 
ENDROOT
BRANCH   9  27
ATOM     27  O   UNL     1      -7.512 -28.080 -15.014  0.00  0.00    +0.000 OA
ATOM     28  H   UNL     1      -6.603 -28.424 -14.947  0.00  0.00    +0.000 HD
ENDBRANCH   9  27
BRANCH  10  29
ATOM     29  O   UNL     1      -6.299 -27.743 -18.408  0.00  0.00    +0.000 OA
ATOM     30  H   UNL     1      -5.645 -27.167 -18.848  0.00  0.00    +0.000 HD
ENDBRANCH  10  29
BRANCH  14  31
ATOM     31  O   UNL     1      -7.678 -33.067 -21.964  0.00  0.00    +0.000 OA
ATOM     32  H   UNL     1      -8.473 -33.529 -21.624  0.00  0.00    +0.000 HD
ENDBRANCH  14  31
BRANCH  15  33
ATOM     33  O   UNL     1      -5.395 -31.784 -22.552  0.00  0.00    +0.000 OA
ATOM     34  C   UNL     1      -5.590 -30.460 -22.972  0.00  0.00    +0.000 C 
ENDBRANCH  15  33
BRANCH  20  35
ATOM     35  O   UNL     1      -0.306 -29.940 -18.847  0.00  0.00    +0.000 OA
BRANCH  35  37
ATOM     36  O   UNL     1      -0.254 -31.872 -17.540  0.00  0.00    +0.000 OA
ATOM     37  C   UNL     1       0.056 -30.726 -17.800  0.00  0.00    +0.000 C 
ATOM     38  C   UNL     1       0.923 -30.057 -16.798  0.00  0.00    +0.000 C 
ENDBRANCH  35  37
ENDBRANCH  20  35
BRANCH   6  39
ATOM     39  C   UNL     1      -9.281 -30.589 -15.893  0.00  0.00    +0.000 C 
BRANCH  39  41
ATOM     40  O   UNL     1      -9.162 -32.777 -14.588  0.00  0.00    +0.000 OA
ATOM     41  C   UNL     1      -8.561 -31.517 -14.975  0.00  0.00    +0.000 C 
ATOM     42  C   UNL     1      -8.215 -32.805 -15.570  0.00  0.00    +0.000 C 
ATOM     43  C   UNL     1      -7.850 -30.902 -13.720  0.00  0.00    +0.000 C 
BRANCH  42  44
ATOM     44  C   UNL     1      -6.964 -33.458 -15.307  0.00  0.00    +0.000 C 
ATOM     45  C   UNL     1      -6.908 -34.960 -15.184  0.00  0.00    +0.000 C 
BRANCH  44  46
ATOM     46  C   UNL     1      -5.761 -32.818 -15.706  0.00  0.00    +0.000 C 
ATOM     47  C   UNL     1      -4.725 -32.262 -15.943  0.00  0.00    +0.000 C 
ATOM     48  C   UNL     1      -3.398 -31.506 -16.107  0.00  0.00    +0.000 C 
ENDBRANCH  44  46
ENDBRANCH  42  44
ENDBRANCH  39  41
BRANCH  39  49
ATOM     49  O   UNL     1     -10.534 -30.085 -15.577  0.00  0.00    +0.000 OA
ATOM     50  H   UNL     1     -10.497 -29.397 -14.884  0.00  0.00    +0.000 HD
ENDBRANCH  39  49
ENDBRANCH   6  39
BRANCH   9  51
ATOM     51  C   UNL     1      -8.097 -26.141 -16.245  0.00  0.00    +0.000 C 
BRANCH  51  52
ATOM     52  O   UNL     1      -8.485 -24.867 -16.192  0.00  0.00    +0.000 OA
ATOM     53  H   UNL     1      -8.084 -24.417 -15.426  0.00  0.00    +0.000 HD
ENDBRANCH  51  52
ENDBRANCH   9  51
TORSDOF 13
ENDMDL
MODEL 8
REMARK VINA RESULT:      -5.4     18.698     22.972
REMARK  Name = 101808841_CandidaspongiolideA.pdbqt.pdb
REMARK  13 active torsions:
REMARK  status: ('A' for Active; 'I' for Inactive)
REMARK    1  A    between atoms: C_6  and  C_39
REMARK    2  A    between atoms: C_9  and  O_27
REMARK    3  A    between atoms: C_9  and  C_51
REMARK    4  A    between atoms: C_10  and  O_29
REMARK    5  A    between atoms: C_14  and  O_31
REMARK    6  A    between atoms: C_15  and  O_33
REMARK    7  A    between atoms: C_20  and  O_35
REMARK    8  A    between atoms: O_35  and  C_37
REMARK    9  A    between atoms: C_39  and  C_41
REMARK   10  A    between atoms: C_39  and  O_49
REMARK   11  A    between atoms: C_42  and  C_44
REMARK   12  A    between atoms: C_44  and  C_46
REMARK   13  A    between atoms: C_51  and  O_52
REMARK                            x       y       z     vdW  Elec       q    Type
REMARK                         _______ _______ _______ _____ _____    ______ ____
ROOT
ATOM      1  O   UNL     1      -6.732 -36.671  -1.528  0.00  0.00    +0.000 OA
ATOM      2  O   UNL     1      -3.921 -36.361   1.519  0.00  0.00    +0.000 OA
ATOM      3  O   UNL     1      -8.533 -36.598  -0.088  0.00  0.00    +0.000 OA
ATOM      4  O   UNL     1      -0.605 -39.368  -3.324  0.00  0.00    +0.000 OA
ATOM      5  O   UNL     1      -5.237 -36.050  -3.867  0.00  0.00    +0.000 OA
ATOM      6  C   UNL     1      -5.139 -37.968   0.302  0.00  0.00    +0.000 C 
ATOM      7  C   UNL     1      -3.875 -37.259   0.676  0.00  0.00    +0.000 C 
ATOM      8  C   UNL     1      -5.994 -37.329  -0.639  0.00  0.00    +0.000 C 
ATOM      9  C   UNL     1      -2.603 -37.662  -0.118  0.00  0.00    +0.000 C 
ATOM     10  C   UNL     1      -2.642 -37.079  -1.520  0.00  0.00    +0.000 C 
ATOM     11  C   UNL     1      -2.038 -37.722  -2.640  0.00  0.00    +0.000 C 
ATOM     12  C   UNL     1      -7.956 -36.265  -1.114  0.00  0.00    +0.000 C 
ATOM     13  C   UNL     1      -1.375 -38.485  -3.686  0.00  0.00    +0.000 C 
ATOM     14  C   UNL     1      -8.540 -35.282  -2.056  0.00  0.00    +0.000 C 
ATOM     15  C   UNL     1      -7.961 -34.916  -3.332  0.00  0.00    +0.000 C 
ATOM     16  C   UNL     1      -1.645 -38.177  -5.127  0.00  0.00    +0.000 C 
ATOM     17  C   UNL     1      -7.547 -35.828  -4.390  0.00  0.00    +0.000 C 
ATOM     18  C   UNL     1      -5.743 -35.816  -6.197  0.00  0.00    +0.000 C 
ATOM     19  C   UNL     1      -6.093 -35.888  -4.739  0.00  0.00    +0.000 C 
ATOM     20  C   UNL     1      -4.404 -36.225  -6.627  0.00  0.00    +0.000 C 
ATOM     21  C   UNL     1      -2.455 -37.084  -5.526  0.00  0.00    +0.000 C 
ATOM     22  C   UNL     1      -3.185 -36.070  -5.867  0.00  0.00    +0.000 C 
ATOM     23  C   UNL     1      -1.072 -38.990  -6.269  0.00  0.00    +0.000 C 
ATOM     24  C   UNL     1      -8.361 -37.102  -4.623  0.00  0.00    +0.000 C 
ATOM     25  C   UNL     1      -6.724 -35.231  -7.206  0.00  0.00    +0.000 C 
ATOM     26  C   UNL     1      -2.779 -34.744  -5.274  0.00  0.00    +0.000 C 
ENDROOT
BRANCH   9  27
ATOM     27  O   UNL     1      -2.549 -39.086  -0.224  0.00  0.00    +0.000 OA
ATOM     28  H   UNL     1      -2.573 -39.441   0.683  0.00  0.00    +0.000 HD
ENDBRANCH   9  27
BRANCH  10  29
ATOM     29  O   UNL     1      -3.266 -35.861  -1.704  0.00  0.00    +0.000 OA
ATOM     30  H   UNL     1      -4.239 -35.901  -1.635  0.00  0.00    +0.000 HD
ENDBRANCH  10  29
BRANCH  14  31
ATOM     31  O   UNL     1      -9.696 -34.615  -1.688  0.00  0.00    +0.000 OA
ATOM     32  H   UNL     1     -10.279 -34.480  -2.465  0.00  0.00    +0.000 HD
ENDBRANCH  14  31
BRANCH  15  33
ATOM     33  O   UNL     1      -8.285 -33.636  -3.751  0.00  0.00    +0.000 OA
ATOM     34  C   UNL     1      -7.308 -32.723  -3.325  0.00  0.00    +0.000 C 
ENDBRANCH  15  33
BRANCH  20  35
ATOM     35  O   UNL     1      -4.177 -36.470  -8.008  0.00  0.00    +0.000 OA
BRANCH  35  37
ATOM     36  O   UNL     1      -3.722 -34.338  -8.840  0.00  0.00    +0.000 OA
ATOM     37  C   UNL     1      -3.454 -35.506  -8.634  0.00  0.00    +0.000 C 
ATOM     38  C   UNL     1      -2.162 -35.971  -9.196  0.00  0.00    +0.000 C 
ENDBRANCH  35  37
ENDBRANCH  20  35
BRANCH   6  39
ATOM     39  C   UNL     1      -5.513 -39.203   0.961  0.00  0.00    +0.000 C 
BRANCH  39  41
ATOM     40  O   UNL     1      -4.807 -40.932  -0.776  0.00  0.00    +0.000 OA
ATOM     41  C   UNL     1      -5.775 -40.451   0.189  0.00  0.00    +0.000 C 
ATOM     42  C   UNL     1      -4.827 -41.531   0.450  0.00  0.00    +0.000 C 
ATOM     43  C   UNL     1      -7.211 -40.658  -0.405  0.00  0.00    +0.000 C 
BRANCH  42  44
ATOM     44  C   UNL     1      -5.237 -42.903   0.543  0.00  0.00    +0.000 C 
ATOM     45  C   UNL     1      -4.710 -43.918  -0.439  0.00  0.00    +0.000 C 
BRANCH  44  46
ATOM     46  C   UNL     1      -5.649 -43.410   1.805  0.00  0.00    +0.000 C 
ATOM     47  C   UNL     1      -5.896 -43.841   2.896  0.00  0.00    +0.000 C 
ATOM     48  C   UNL     1      -6.070 -44.419   4.308  0.00  0.00    +0.000 C 
ENDBRANCH  44  46
ENDBRANCH  42  44
ENDBRANCH  39  41
BRANCH  39  49
ATOM     49  O   UNL     1      -5.274 -39.233   2.327  0.00  0.00    +0.000 OA
ATOM     50  H   UNL     1      -4.323 -39.291   2.540  0.00  0.00    +0.000 HD
ENDBRANCH  39  49
ENDBRANCH   6  39
BRANCH   9  51
ATOM     51  C   UNL     1      -1.380 -37.183   0.570  0.00  0.00    +0.000 C 
BRANCH  51  52
ATOM     52  O   UNL     1      -0.275 -36.737   1.166  0.00  0.00    +0.000 OA
ATOM     53  H   UNL     1       0.024 -37.365   1.850  0.00  0.00    +0.000 HD
ENDBRANCH  51  52
ENDBRANCH   9  51
TORSDOF 13
ENDMDL
MODEL 9
REMARK VINA RESULT:      -5.4     16.217     20.431
REMARK  Name = 101808841_CandidaspongiolideA.pdbqt.pdb
REMARK  13 active torsions:
REMARK  status: ('A' for Active; 'I' for Inactive)
REMARK    1  A    between atoms: C_6  and  C_39
REMARK    2  A    between atoms: C_9  and  O_27
REMARK    3  A    between atoms: C_9  and  C_51
REMARK    4  A    between atoms: C_10  and  O_29
REMARK    5  A    between atoms: C_14  and  O_31
REMARK    6  A    between atoms: C_15  and  O_33
REMARK    7  A    between atoms: C_20  and  O_35
REMARK    8  A    between atoms: O_35  and  C_37
REMARK    9  A    between atoms: C_39  and  C_41
REMARK   10  A    between atoms: C_39  and  O_49
REMARK   11  A    between atoms: C_42  and  C_44
REMARK   12  A    between atoms: C_44  and  C_46
REMARK   13  A    between atoms: C_51  and  O_52
REMARK                            x       y       z     vdW  Elec       q    Type
REMARK                         _______ _______ _______ _____ _____    ______ ____
ROOT
ATOM      1  O   UNL     1      -7.254 -31.746   7.751  0.00  0.00    +0.000 OA
ATOM      2  O   UNL     1      -6.871 -32.205  11.865  0.00  0.00    +0.000 OA
ATOM      3  O   UNL     1      -5.502 -33.168   7.272  0.00  0.00    +0.000 OA
ATOM      4  O   UNL     1      -9.778 -26.318  11.246  0.00  0.00    +0.000 OA
ATOM      5  O   UNL     1      -9.844 -30.607   7.456  0.00  0.00    +0.000 OA
ATOM      6  C   UNL     1      -6.092 -30.872  10.088  0.00  0.00    +0.000 C 
ATOM      7  C   UNL     1      -6.893 -31.095  11.331  0.00  0.00    +0.000 C 
ATOM      8  C   UNL     1      -6.655 -31.313   8.858  0.00  0.00    +0.000 C 
ATOM      9  C   UNL     1      -7.780 -29.908  11.797  0.00  0.00    +0.000 C 
ATOM     10  C   UNL     1      -9.002 -29.772  10.905  0.00  0.00    +0.000 C 
ATOM     11  C   UNL     1      -9.626 -28.518  10.638  0.00  0.00    +0.000 C 
ATOM     12  C   UNL     1      -6.635 -32.748   7.083  0.00  0.00    +0.000 C 
ATOM     13  C   UNL     1     -10.159 -27.177  10.458  0.00  0.00    +0.000 C 
ATOM     14  C   UNL     1      -7.536 -33.356   6.077  0.00  0.00    +0.000 C 
ATOM     15  C   UNL     1      -8.850 -32.852   5.733  0.00  0.00    +0.000 C 
ATOM     16  C   UNL     1     -11.130 -26.896   9.351  0.00  0.00    +0.000 C 
ATOM     17  C   UNL     1      -9.182 -31.486   5.347  0.00  0.00    +0.000 C 
ATOM     18  C   UNL     1     -11.220 -29.971   5.602  0.00  0.00    +0.000 C 
ATOM     19  C   UNL     1     -10.078 -30.698   6.250  0.00  0.00    +0.000 C 
ATOM     20  C   UNL     1     -11.904 -28.913   6.349  0.00  0.00    +0.000 C 
ATOM     21  C   UNL     1     -11.641 -27.923   8.518  0.00  0.00    +0.000 C 
ATOM     22  C   UNL     1     -12.107 -28.880   7.780  0.00  0.00    +0.000 C 
ATOM     23  C   UNL     1     -11.651 -25.509   9.039  0.00  0.00    +0.000 C 
ATOM     24  C   UNL     1      -8.172 -30.692   4.517  0.00  0.00    +0.000 C 
ATOM     25  C   UNL     1     -11.733 -30.390   4.229  0.00  0.00    +0.000 C 
ATOM     26  C   UNL     1     -12.719 -30.041   8.523  0.00  0.00    +0.000 C 
ENDROOT
BRANCH   9  27
ATOM     27  O   UNL     1      -7.024 -28.699  11.712  0.00  0.00    +0.000 OA
ATOM     28  H   UNL     1      -7.157 -28.219  12.550  0.00  0.00    +0.000 HD
ENDBRANCH   9  27
BRANCH  10  29
ATOM     29  O   UNL     1      -9.541 -30.918  10.356  0.00  0.00    +0.000 OA
ATOM     30  H   UNL     1      -9.682 -30.866   9.392  0.00  0.00    +0.000 HD
ENDBRANCH  10  29
BRANCH  14  31
ATOM     31  O   UNL     1      -7.136 -34.520   5.443  0.00  0.00    +0.000 OA
ATOM     32  H   UNL     1      -6.788 -35.166   6.093  0.00  0.00    +0.000 HD
ENDBRANCH  14  31
BRANCH  15  33
ATOM     33  O   UNL     1      -9.723 -33.823   5.271  0.00  0.00    +0.000 OA
ATOM     34  C   UNL     1     -10.003 -33.619   3.912  0.00  0.00    +0.000 C 
ENDBRANCH  15  33
BRANCH  20  35
ATOM     35  O   UNL     1     -12.747 -28.015   5.642  0.00  0.00    +0.000 OA
BRANCH  35  37
ATOM     36  O   UNL     1     -11.160 -26.321   5.409  0.00  0.00    +0.000 OA
ATOM     37  C   UNL     1     -12.089 -27.002   5.021  0.00  0.00    +0.000 C 
ATOM     38  C   UNL     1     -12.625 -26.645   3.684  0.00  0.00    +0.000 C 
ENDBRANCH  35  37
ENDBRANCH  20  35
BRANCH   6  39
ATOM     39  C   UNL     1      -4.753 -30.324  10.163  0.00  0.00    +0.000 C 
BRANCH  39  41
ATOM     40  O   UNL     1      -2.454 -31.083  10.966  0.00  0.00    +0.000 OA
ATOM     41  C   UNL     1      -3.546 -31.189  10.020  0.00  0.00    +0.000 C 
ATOM     42  C   UNL     1      -3.333 -32.113  11.130  0.00  0.00    +0.000 C 
ATOM     43  C   UNL     1      -2.943 -31.374   8.585  0.00  0.00    +0.000 C 
BRANCH  42  44
ATOM     44  C   UNL     1      -2.870 -33.457  10.928  0.00  0.00    +0.000 C 
ATOM     45  C   UNL     1      -1.405 -33.725  10.698  0.00  0.00    +0.000 C 
BRANCH  44  46
ATOM     46  C   UNL     1      -3.622 -34.529  11.478  0.00  0.00    +0.000 C 
ATOM     47  C   UNL     1      -4.198 -35.499  11.886  0.00  0.00    +0.000 C 
ATOM     48  C   UNL     1      -4.868 -36.816  12.304  0.00  0.00    +0.000 C 
ENDBRANCH  44  46
ENDBRANCH  42  44
ENDBRANCH  39  41
BRANCH  39  49
ATOM     49  O   UNL     1      -4.676 -28.945  10.030  0.00  0.00    +0.000 OA
ATOM     50  H   UNL     1      -5.553 -28.530   9.922  0.00  0.00    +0.000 HD
ENDBRANCH  39  49
ENDBRANCH   6  39
BRANCH   9  51
ATOM     51  C   UNL     1      -8.224 -30.101  13.198  0.00  0.00    +0.000 C 
BRANCH  51  52
ATOM     52  O   UNL     1      -8.599 -30.282  14.464  0.00  0.00    +0.000 OA
ATOM     53  H   UNL     1      -8.254 -29.567  15.030  0.00  0.00    +0.000 HD
ENDBRANCH  51  52
ENDBRANCH   9  51
TORSDOF 13
ENDMDL
