MODEL 1
REMARK VINA RESULT:      -5.2      0.000      0.000
REMARK  Name = 102471178_CandidaspongiolideCore.pdbqt.pdb
REMARK  13 active torsions:
REMARK  status: ('A' for Active; 'I' for Inactive)
REMARK    1  A    between atoms: C_6  and  C_39
REMARK    2  A    between atoms: C_8  and  O_27
REMARK    3  A    between atoms: C_8  and  C_51
REMARK    4  A    between atoms: C_10  and  O_29
REMARK    5  A    between atoms: C_15  and  O_31
REMARK    6  A    between atoms: C_16  and  O_33
REMARK    7  A    between atoms: C_21  and  O_35
REMARK    8  A    between atoms: O_35  and  C_37
REMARK    9  A    between atoms: C_39  and  C_41
REMARK   10  A    between atoms: C_39  and  O_49
REMARK   11  A    between atoms: C_42  and  C_44
REMARK   12  A    between atoms: C_44  and  C_46
REMARK   13  A    between atoms: C_51  and  O_52
REMARK                            x       y       z     vdW  Elec       q    Type
REMARK                         _______ _______ _______ _____ _____    ______ ____
ROOT
ATOM      1  O   UNL     1      -4.380 -34.801  -4.015  0.00  0.00    +0.000 OA
ATOM      2  O   UNL     1      -5.020 -36.914  -4.649  0.00  0.00    +0.000 OA
ATOM      3  O   UNL     1      -7.578 -40.306  -7.176  0.00  0.00    +0.000 OA
ATOM      4  O   UNL     1      -2.131 -34.990  -4.078  0.00  0.00    +0.000 OA
ATOM      5  O   UNL     1      -2.196 -38.460  -3.489  0.00  0.00    +0.000 OA
ATOM      6  C   UNL     1      -6.357 -35.003  -5.208  0.00  0.00    +0.000 C 
ATOM      7  C   UNL     1      -7.623 -35.641  -5.331  0.00  0.00    +0.000 C 
ATOM      8  C   UNL     1      -8.994 -36.152  -5.410  0.00  0.00    +0.000 C 
ATOM      9  C   UNL     1      -5.188 -35.701  -4.612  0.00  0.00    +0.000 C 
ATOM     10  C   UNL     1      -9.176 -37.123  -6.557  0.00  0.00    +0.000 C 
ATOM     11  C   UNL     1      -8.238 -38.127  -6.917  0.00  0.00    +0.000 C 
ATOM     12  C   UNL     1      -7.234 -39.129  -7.206  0.00  0.00    +0.000 C 
ATOM     13  C   UNL     1      -3.206 -35.283  -3.567  0.00  0.00    +0.000 C 
ATOM     14  C   UNL     1      -5.822 -38.729  -7.484  0.00  0.00    +0.000 C 
ATOM     15  C   UNL     1      -3.236 -35.933  -2.234  0.00  0.00    +0.000 C 
ATOM     16  C   UNL     1      -4.204 -36.930  -1.826  0.00  0.00    +0.000 C 
ATOM     17  C   UNL     1      -4.075 -38.368  -2.022  0.00  0.00    +0.000 C 
ATOM     18  C   UNL     1      -4.764 -39.594  -7.112  0.00  0.00    +0.000 C 
ATOM     19  C   UNL     1      -4.021 -39.839  -4.121  0.00  0.00    +0.000 C 
ATOM     20  C   UNL     1      -5.440 -37.311  -7.885  0.00  0.00    +0.000 C 
ATOM     21  C   UNL     1      -3.309 -40.278  -5.317  0.00  0.00    +0.000 C 
ATOM     22  C   UNL     1      -3.325 -38.870  -3.214  0.00  0.00    +0.000 C 
ATOM     23  C   UNL     1      -3.841 -40.391  -6.668  0.00  0.00    +0.000 C 
ATOM     24  C   UNL     1      -4.406 -39.353  -0.905  0.00  0.00    +0.000 C 
ATOM     25  C   UNL     1      -5.509 -40.134  -3.996  0.00  0.00    +0.000 C 
ATOM     26  C   UNL     1      -3.317 -41.406  -7.650  0.00  0.00    +0.000 C 
ENDROOT
BRANCH   8  27
ATOM     27  O   UNL     1      -9.821 -35.010  -5.645  0.00  0.00    +0.000 OA
ATOM     28  H   UNL     1     -10.421 -34.984  -4.873  0.00  0.00    +0.000 HD
ENDBRANCH   8  27
BRANCH  10  29
ATOM     29  O   UNL     1     -10.368 -37.046  -7.261  0.00  0.00    +0.000 OA
ATOM     30  H   UNL     1     -10.579 -37.881  -7.720  0.00  0.00    +0.000 HD
ENDBRANCH  10  29
BRANCH  15  31
ATOM     31  O   UNL     1      -2.053 -35.980  -1.513  0.00  0.00    +0.000 OA
ATOM     32  H   UNL     1      -1.694 -35.076  -1.383  0.00  0.00    +0.000 HD
ENDBRANCH  15  31
BRANCH  16  33
ATOM     33  O   UNL     1      -5.030 -36.557  -0.781  0.00  0.00    +0.000 OA
ATOM     34  C   UNL     1      -6.296 -36.213  -1.288  0.00  0.00    +0.000 C 
ENDBRANCH  16  33
BRANCH  21  35
ATOM     35  O   UNL     1      -2.015 -40.802  -5.069  0.00  0.00    +0.000 OA
BRANCH  35  37
ATOM     36  O   UNL     1      -2.639 -42.999  -4.563  0.00  0.00    +0.000 OA
ATOM     37  C   UNL     1      -2.039 -41.960  -4.353  0.00  0.00    +0.000 C 
ATOM     38  C   UNL     1      -1.167 -41.961  -3.150  0.00  0.00    +0.000 C 
ENDBRANCH  35  37
ENDBRANCH  21  35
BRANCH   6  39
ATOM     39  C   UNL     1      -6.222 -33.677  -5.767  0.00  0.00    +0.000 C 
BRANCH  39  41
ATOM     40  O   UNL     1      -4.971 -32.245  -7.465  0.00  0.00    +0.000 OA
ATOM     41  C   UNL     1      -5.620 -33.490  -7.116  0.00  0.00    +0.000 C 
ATOM     42  C   UNL     1      -4.176 -33.277  -7.051  0.00  0.00    +0.000 C 
ATOM     43  C   UNL     1      -6.369 -34.059  -8.373  0.00  0.00    +0.000 C 
BRANCH  42  44
ATOM     44  C   UNL     1      -3.237 -33.804  -7.993  0.00  0.00    +0.000 C 
ATOM     45  C   UNL     1      -2.430 -32.870  -8.865  0.00  0.00    +0.000 C 
BRANCH  44  46
ATOM     46  C   UNL     1      -2.703 -35.107  -7.827  0.00  0.00    +0.000 C 
ATOM     47  C   UNL     1      -2.259 -36.217  -7.734  0.00  0.00    +0.000 C 
ATOM     48  C   UNL     1      -1.688 -37.640  -7.688  0.00  0.00    +0.000 C 
ENDBRANCH  44  46
ENDBRANCH  42  44
ENDBRANCH  39  41
BRANCH  39  49
ATOM     49  O   UNL     1      -6.611 -32.617  -4.965  0.00  0.00    +0.000 OA
ATOM     50  H   UNL     1      -6.976 -31.854  -5.453  0.00  0.00    +0.000 HD
ENDBRANCH  39  49
ENDBRANCH   6  39
BRANCH   8  51
ATOM     51  C   UNL     1      -9.428 -36.767  -4.145  0.00  0.00    +0.000 C 
BRANCH  51  52
ATOM     52  O   UNL     1      -9.859 -37.333  -3.018  0.00  0.00    +0.000 OA
ATOM     53  H   UNL     1      -9.111 -37.552  -2.427  0.00  0.00    +0.000 HD
ENDBRANCH  51  52
ENDBRANCH   8  51
TORSDOF 13
ENDMDL
MODEL 2
REMARK VINA RESULT:      -5.2      1.820      3.410
REMARK  Name = 102471178_CandidaspongiolideCore.pdbqt.pdb
REMARK  13 active torsions:
REMARK  status: ('A' for Active; 'I' for Inactive)
REMARK    1  A    between atoms: C_6  and  C_39
REMARK    2  A    between atoms: C_8  and  O_27
REMARK    3  A    between atoms: C_8  and  C_51
REMARK    4  A    between atoms: C_10  and  O_29
REMARK    5  A    between atoms: C_15  and  O_31
REMARK    6  A    between atoms: C_16  and  O_33
REMARK    7  A    between atoms: C_21  and  O_35
REMARK    8  A    between atoms: O_35  and  C_37
REMARK    9  A    between atoms: C_39  and  C_41
REMARK   10  A    between atoms: C_39  and  O_49
REMARK   11  A    between atoms: C_42  and  C_44
REMARK   12  A    between atoms: C_44  and  C_46
REMARK   13  A    between atoms: C_51  and  O_52
REMARK                            x       y       z     vdW  Elec       q    Type
REMARK                         _______ _______ _______ _____ _____    ______ ____
ROOT
ATOM      1  O   UNL     1      -6.725 -35.402  -4.349  0.00  0.00    +0.000 OA
ATOM      2  O   UNL     1      -5.441 -37.306  -4.376  0.00  0.00    +0.000 OA
ATOM      3  O   UNL     1      -3.239 -41.258  -6.370  0.00  0.00    +0.000 OA
ATOM      4  O   UNL     1      -5.397 -34.000  -3.178  0.00  0.00    +0.000 OA
ATOM      5  O   UNL     1      -3.793 -36.617  -1.458  0.00  0.00    +0.000 OA
ATOM      6  C   UNL     1      -6.898 -36.778  -6.206  0.00  0.00    +0.000 C 
ATOM      7  C   UNL     1      -7.116 -38.091  -6.709  0.00  0.00    +0.000 C 
ATOM      8  C   UNL     1      -7.489 -39.388  -7.279  0.00  0.00    +0.000 C 
ATOM      9  C   UNL     1      -6.254 -36.546  -4.886  0.00  0.00    +0.000 C 
ATOM     10  C   UNL     1      -6.306 -40.102  -7.897  0.00  0.00    +0.000 C 
ATOM     11  C   UNL     1      -5.008 -40.154  -7.321  0.00  0.00    +0.000 C 
ATOM     12  C   UNL     1      -3.722 -40.168  -6.658  0.00  0.00    +0.000 C 
ATOM     13  C   UNL     1      -6.110 -34.995  -3.222  0.00  0.00    +0.000 C 
ATOM     14  C   UNL     1      -3.039 -38.887  -6.302  0.00  0.00    +0.000 C 
ATOM     15  C   UNL     1      -6.584 -35.619  -1.962  0.00  0.00    +0.000 C 
ATOM     16  C   UNL     1      -6.769 -37.043  -1.768  0.00  0.00    +0.000 C 
ATOM     17  C   UNL     1      -5.747 -37.977  -1.316  0.00  0.00    +0.000 C 
ATOM     18  C   UNL     1      -2.217 -38.830  -5.150  0.00  0.00    +0.000 C 
ATOM     19  C   UNL     1      -3.556 -38.798  -2.363  0.00  0.00    +0.000 C 
ATOM     20  C   UNL     1      -3.410 -37.559  -6.947  0.00  0.00    +0.000 C 
ATOM     21  C   UNL     1      -2.182 -38.512  -2.762  0.00  0.00    +0.000 C 
ATOM     22  C   UNL     1      -4.318 -37.712  -1.668  0.00  0.00    +0.000 C 
ATOM     23  C   UNL     1      -1.550 -38.822  -4.036  0.00  0.00    +0.000 C 
ATOM     24  C   UNL     1      -6.049 -39.028  -0.252  0.00  0.00    +0.000 C 
ATOM     25  C   UNL     1      -4.243 -40.039  -2.916  0.00  0.00    +0.000 C 
ATOM     26  C   UNL     1      -0.074 -39.104  -4.150  0.00  0.00    +0.000 C 
ENDROOT
BRANCH   8  27
ATOM     27  O   UNL     1      -8.437 -39.100  -8.310  0.00  0.00    +0.000 OA
ATOM     28  H   UNL     1      -8.893 -39.952  -8.463  0.00  0.00    +0.000 HD
ENDBRANCH   8  27
BRANCH  10  29
ATOM     29  O   UNL     1      -6.535 -40.789  -9.079  0.00  0.00    +0.000 OA
ATOM     30  H   UNL     1      -7.268 -41.427  -8.999  0.00  0.00    +0.000 HD
ENDBRANCH  10  29
BRANCH  15  31
ATOM     31  O   UNL     1      -6.387 -34.918  -0.782  0.00  0.00    +0.000 OA
ATOM     32  H   UNL     1      -5.435 -34.904  -0.547  0.00  0.00    +0.000 HD
ENDBRANCH  15  31
BRANCH  16  33
ATOM     33  O   UNL     1      -8.071 -37.439  -1.520  0.00  0.00    +0.000 OA
ATOM     34  C   UNL     1      -8.633 -37.955  -2.701  0.00  0.00    +0.000 C 
ENDBRANCH  16  33
BRANCH  21  35
ATOM     35  O   UNL     1      -1.355 -38.034  -1.713  0.00  0.00    +0.000 OA
BRANCH  35  37
ATOM     36  O   UNL     1      -0.676 -40.104  -0.859  0.00  0.00    +0.000 OA
ATOM     37  C   UNL     1      -1.116 -38.973  -0.756  0.00  0.00    +0.000 C 
ATOM     38  C   UNL     1      -1.405 -38.527   0.632  0.00  0.00    +0.000 C 
ENDBRANCH  35  37
ENDBRANCH  21  35
BRANCH   6  39
ATOM     39  C   UNL     1      -7.246 -35.669  -7.066  0.00  0.00    +0.000 C 
BRANCH  39  41
ATOM     40  O   UNL     1      -6.387 -33.562  -8.217  0.00  0.00    +0.000 OA
ATOM     41  C   UNL     1      -6.183 -34.934  -7.807  0.00  0.00    +0.000 C 
ATOM     42  C   UNL     1      -5.688 -33.780  -7.063  0.00  0.00    +0.000 C 
ATOM     43  C   UNL     1      -5.358 -35.690  -8.909  0.00  0.00    +0.000 C 
BRANCH  42  44
ATOM     44  C   UNL     1      -4.320 -33.361  -7.032  0.00  0.00    +0.000 C 
ATOM     45  C   UNL     1      -3.928 -32.006  -7.574  0.00  0.00    +0.000 C 
BRANCH  44  46
ATOM     46  C   UNL     1      -3.407 -33.949  -6.121  0.00  0.00    +0.000 C 
ATOM     47  C   UNL     1      -2.672 -34.457  -5.320  0.00  0.00    +0.000 C 
ATOM     48  C   UNL     1      -1.790 -35.132  -4.262  0.00  0.00    +0.000 C 
ENDBRANCH  44  46
ENDBRANCH  42  44
ENDBRANCH  39  41
BRANCH  39  49
ATOM     49  O   UNL     1      -8.579 -35.298  -7.102  0.00  0.00    +0.000 OA
ATOM     50  H   UNL     1      -8.813 -34.703  -7.840  0.00  0.00    +0.000 HD
ENDBRANCH  39  49
ENDBRANCH   6  39
BRANCH   8  51
ATOM     51  C   UNL     1      -8.151 -40.255  -6.291  0.00  0.00    +0.000 C 
BRANCH  51  52
ATOM     52  O   UNL     1      -8.770 -41.004  -5.378  0.00  0.00    +0.000 OA
ATOM     53  H   UNL     1      -8.881 -41.923  -5.696  0.00  0.00    +0.000 HD
ENDBRANCH  51  52
ENDBRANCH   8  51
TORSDOF 13
ENDMDL
MODEL 3
REMARK VINA RESULT:      -5.1      1.933      6.151
REMARK  Name = 102471178_CandidaspongiolideCore.pdbqt.pdb
REMARK  13 active torsions:
REMARK  status: ('A' for Active; 'I' for Inactive)
REMARK    1  A    between atoms: C_6  and  C_39
REMARK    2  A    between atoms: C_8  and  O_27
REMARK    3  A    between atoms: C_8  and  C_51
REMARK    4  A    between atoms: C_10  and  O_29
REMARK    5  A    between atoms: C_15  and  O_31
REMARK    6  A    between atoms: C_16  and  O_33
REMARK    7  A    between atoms: C_21  and  O_35
REMARK    8  A    between atoms: O_35  and  C_37
REMARK    9  A    between atoms: C_39  and  C_41
REMARK   10  A    between atoms: C_39  and  O_49
REMARK   11  A    between atoms: C_42  and  C_44
REMARK   12  A    between atoms: C_44  and  C_46
REMARK   13  A    between atoms: C_51  and  O_52
REMARK                            x       y       z     vdW  Elec       q    Type
REMARK                         _______ _______ _______ _____ _____    ______ ____
ROOT
ATOM      1  O   UNL     1      -6.979 -38.990  -5.514  0.00  0.00    +0.000 OA
ATOM      2  O   UNL     1      -5.048 -37.900  -4.915  0.00  0.00    +0.000 OA
ATOM      3  O   UNL     1      -2.158 -34.009  -3.942  0.00  0.00    +0.000 OA
ATOM      4  O   UNL     1      -7.099 -40.574  -3.910  0.00  0.00    +0.000 OA
ATOM      5  O   UNL     1      -3.619 -40.606  -3.384  0.00  0.00    +0.000 OA
ATOM      6  C   UNL     1      -6.853 -36.719  -5.964  0.00  0.00    +0.000 C 
ATOM      7  C   UNL     1      -6.117 -35.652  -6.550  0.00  0.00    +0.000 C 
ATOM      8  C   UNL     1      -5.476 -34.550  -7.271  0.00  0.00    +0.000 C 
ATOM      9  C   UNL     1      -6.175 -37.913  -5.394  0.00  0.00    +0.000 C 
ATOM     10  C   UNL     1      -4.831 -33.552  -6.333  0.00  0.00    +0.000 C 
ATOM     11  C   UNL     1      -4.087 -33.902  -5.175  0.00  0.00    +0.000 C 
ATOM     12  C   UNL     1      -3.333 -34.348  -4.022  0.00  0.00    +0.000 C 
ATOM     13  C   UNL     1      -6.547 -40.107  -4.899  0.00  0.00    +0.000 C 
ATOM     14  C   UNL     1      -3.969 -35.229  -2.996  0.00  0.00    +0.000 C 
ATOM     15  C   UNL     1      -5.567 -40.927  -5.653  0.00  0.00    +0.000 C 
ATOM     16  C   UNL     1      -4.383 -40.403  -6.302  0.00  0.00    +0.000 C 
ATOM     17  C   UNL     1      -3.078 -40.233  -5.677  0.00  0.00    +0.000 C 
ATOM     18  C   UNL     1      -3.177 -36.175  -2.300  0.00  0.00    +0.000 C 
ATOM     19  C   UNL     1      -2.239 -38.718  -3.787  0.00  0.00    +0.000 C 
ATOM     20  C   UNL     1      -5.479 -35.368  -2.864  0.00  0.00    +0.000 C 
ATOM     21  C   UNL     1      -2.229 -38.389  -2.365  0.00  0.00    +0.000 C 
ATOM     22  C   UNL     1      -3.011 -39.929  -4.215  0.00  0.00    +0.000 C 
ATOM     23  C   UNL     1      -2.414 -37.077  -1.762  0.00  0.00    +0.000 C 
ATOM     24  C   UNL     1      -1.797 -40.656  -6.390  0.00  0.00    +0.000 C 
ATOM     25  C   UNL     1      -1.735 -37.687  -4.788  0.00  0.00    +0.000 C 
ATOM     26  C   UNL     1      -1.773 -36.702  -0.451  0.00  0.00    +0.000 C 
ENDROOT
BRANCH   8  27
ATOM     27  O   UNL     1      -6.525 -33.892  -7.985  0.00  0.00    +0.000 OA
ATOM     28  H   UNL     1      -7.346 -34.222  -7.566  0.00  0.00    +0.000 HD
ENDBRANCH   8  27
BRANCH  10  29
ATOM     29  O   UNL     1      -4.941 -32.212  -6.670  0.00  0.00    +0.000 OA
ATOM     30  H   UNL     1      -5.266 -32.086  -7.581  0.00  0.00    +0.000 HD
ENDBRANCH  10  29
BRANCH  15  31
ATOM     31  O   UNL     1      -5.480 -42.275  -5.341  0.00  0.00    +0.000 OA
ATOM     32  H   UNL     1      -4.848 -42.416  -4.603  0.00  0.00    +0.000 HD
ENDBRANCH  15  31
BRANCH  16  33
ATOM     33  O   UNL     1      -4.356 -40.541  -7.678  0.00  0.00    +0.000 OA
ATOM     34  C   UNL     1      -4.640 -39.300  -8.275  0.00  0.00    +0.000 C 
ENDBRANCH  16  33
BRANCH  21  35
ATOM     35  O   UNL     1      -1.826 -39.455  -1.521  0.00  0.00    +0.000 OA
BRANCH  35  37
ATOM     36  O   UNL     1       0.483 -39.084  -1.544  0.00  0.00    +0.000 OA
ATOM     37  C   UNL     1      -0.511 -39.777  -1.663  0.00  0.00    +0.000 C 
ATOM     38  C   UNL     1      -0.256 -41.207  -1.976  0.00  0.00    +0.000 C 
ENDBRANCH  35  37
ENDBRANCH  21  35
BRANCH   6  39
ATOM     39  C   UNL     1      -8.286 -36.562  -5.862  0.00  0.00    +0.000 C 
BRANCH  39  41
ATOM     40  O   UNL     1     -10.246 -36.586  -4.232  0.00  0.00    +0.000 OA
ATOM     41  C   UNL     1      -8.906 -36.159  -4.569  0.00  0.00    +0.000 C 
ATOM     42  C   UNL     1      -9.206 -37.308  -3.719  0.00  0.00    +0.000 C 
ATOM     43  C   UNL     1      -8.670 -34.703  -4.030  0.00  0.00    +0.000 C 
BRANCH  42  44
ATOM     44  C   UNL     1      -9.053 -37.325  -2.296  0.00  0.00    +0.000 C 
ATOM     45  C   UNL     1     -10.268 -37.239  -1.401  0.00  0.00    +0.000 C 
BRANCH  44  46
ATOM     46  C   UNL     1      -7.886 -37.870  -1.703  0.00  0.00    +0.000 C 
ATOM     47  C   UNL     1      -6.875 -38.291  -1.216  0.00  0.00    +0.000 C 
ATOM     48  C   UNL     1      -5.551 -38.764  -0.603  0.00  0.00    +0.000 C 
ENDBRANCH  44  46
ENDBRANCH  42  44
ENDBRANCH  39  41
BRANCH  39  49
ATOM     49  O   UNL     1      -9.032 -36.869  -6.988  0.00  0.00    +0.000 OA
ATOM     50  H   UNL     1      -8.578 -36.690  -7.834  0.00  0.00    +0.000 HD
ENDBRANCH  39  49
ENDBRANCH   6  39
BRANCH   8  51
ATOM     51  C   UNL     1      -4.496 -35.032  -8.258  0.00  0.00    +0.000 C 
BRANCH  51  52
ATOM     52  O   UNL     1      -3.621 -35.510  -9.144  0.00  0.00    +0.000 OA
ATOM     53  H   UNL     1      -3.587 -34.945  -9.942  0.00  0.00    +0.000 HD
ENDBRANCH  51  52
ENDBRANCH   8  51
TORSDOF 13
ENDMDL
MODEL 4
REMARK VINA RESULT:      -4.6     12.844     17.852
REMARK  Name = 102471178_CandidaspongiolideCore.pdbqt.pdb
REMARK  13 active torsions:
REMARK  status: ('A' for Active; 'I' for Inactive)
REMARK    1  A    between atoms: C_6  and  C_39
REMARK    2  A    between atoms: C_8  and  O_27
REMARK    3  A    between atoms: C_8  and  C_51
REMARK    4  A    between atoms: C_10  and  O_29
REMARK    5  A    between atoms: C_15  and  O_31
REMARK    6  A    between atoms: C_16  and  O_33
REMARK    7  A    between atoms: C_21  and  O_35
REMARK    8  A    between atoms: O_35  and  C_37
REMARK    9  A    between atoms: C_39  and  C_41
REMARK   10  A    between atoms: C_39  and  O_49
REMARK   11  A    between atoms: C_42  and  C_44
REMARK   12  A    between atoms: C_44  and  C_46
REMARK   13  A    between atoms: C_51  and  O_52
REMARK                            x       y       z     vdW  Elec       q    Type
REMARK                         _______ _______ _______ _____ _____    ______ ____
ROOT
ATOM      1  O   UNL     1     -10.251 -28.214 -17.672  0.00  0.00    +0.000 OA
ATOM      2  O   UNL     1      -8.141 -27.950 -18.541  0.00  0.00    +0.000 OA
ATOM      3  O   UNL     1      -3.415 -29.120 -19.395  0.00  0.00    +0.000 OA
ATOM      4  O   UNL     1     -11.525 -27.799 -19.490  0.00  0.00    +0.000 OA
ATOM      5  O   UNL     1      -9.083 -25.760 -20.996  0.00  0.00    +0.000 OA
ATOM      6  C   UNL     1      -8.557 -29.515 -16.772  0.00  0.00    +0.000 C 
ATOM      7  C   UNL     1      -7.256 -29.560 -16.198  0.00  0.00    +0.000 C 
ATOM      8  C   UNL     1      -5.992 -29.640 -15.462  0.00  0.00    +0.000 C 
ATOM      9  C   UNL     1      -8.933 -28.481 -17.771  0.00  0.00    +0.000 C 
ATOM     10  C   UNL     1      -4.885 -30.254 -16.293  0.00  0.00    +0.000 C 
ATOM     11  C   UNL     1      -4.657 -29.967 -17.665  0.00  0.00    +0.000 C 
ATOM     12  C   UNL     1      -4.488 -29.606 -19.057  0.00  0.00    +0.000 C 
ATOM     13  C   UNL     1     -10.752 -27.405 -18.624  0.00  0.00    +0.000 C 
ATOM     14  C   UNL     1      -5.611 -29.784 -20.027  0.00  0.00    +0.000 C 
ATOM     15  C   UNL     1     -10.581 -25.948 -18.396  0.00  0.00    +0.000 C 
ATOM     16  C   UNL     1      -9.334 -25.316 -18.016  0.00  0.00    +0.000 C 
ATOM     17  C   UNL     1      -8.314 -24.832 -18.937  0.00  0.00    +0.000 C 
ATOM     18  C   UNL     1      -5.739 -28.893 -21.120  0.00  0.00    +0.000 C 
ATOM     19  C   UNL     1      -6.759 -26.023 -20.591  0.00  0.00    +0.000 C 
ATOM     20  C   UNL     1      -6.796 -30.697 -19.743  0.00  0.00    +0.000 C 
ATOM     21  C   UNL     1      -6.598 -26.760 -21.840  0.00  0.00    +0.000 C 
ATOM     22  C   UNL     1      -8.131 -25.531 -20.246  0.00  0.00    +0.000 C 
ATOM     23  C   UNL     1      -5.848 -27.991 -22.047  0.00  0.00    +0.000 C 
ATOM     24  C   UNL     1      -7.653 -23.471 -18.743  0.00  0.00    +0.000 C 
ATOM     25  C   UNL     1      -5.628 -26.038 -19.572  0.00  0.00    +0.000 C 
ATOM     26  C   UNL     1      -5.197 -28.318 -23.366  0.00  0.00    +0.000 C 
ENDROOT
BRANCH   8  27
ATOM     27  O   UNL     1      -6.248 -30.493 -14.344  0.00  0.00    +0.000 OA
ATOM     28  H   UNL     1      -6.706 -29.916 -13.700  0.00  0.00    +0.000 HD
ENDBRANCH   8  27
BRANCH  10  29
ATOM     29  O   UNL     1      -4.014 -31.112 -15.642  0.00  0.00    +0.000 OA
ATOM     30  H   UNL     1      -3.153 -30.693 -15.456  0.00  0.00    +0.000 HD
ENDBRANCH  10  29
BRANCH  15  31
ATOM     31  O   UNL     1     -11.473 -25.089 -19.018  0.00  0.00    +0.000 OA
ATOM     32  H   UNL     1     -11.856 -25.512 -19.816  0.00  0.00    +0.000 HD
ENDBRANCH  15  31
BRANCH  16  33
ATOM     33  O   UNL     1      -9.338 -24.702 -16.777  0.00  0.00    +0.000 OA
ATOM     34  C   UNL     1      -8.772 -25.571 -15.826  0.00  0.00    +0.000 C 
ENDBRANCH  16  33
BRANCH  21  35
ATOM     35  O   UNL     1      -7.095 -26.087 -22.985  0.00  0.00    +0.000 OA
BRANCH  35  37
ATOM     36  O   UNL     1      -5.212 -24.780 -23.447  0.00  0.00    +0.000 OA
ATOM     37  C   UNL     1      -6.405 -24.950 -23.275  0.00  0.00    +0.000 C 
ATOM     38  C   UNL     1      -7.252 -23.740 -23.441  0.00  0.00    +0.000 C 
ENDBRANCH  35  37
ENDBRANCH  21  35
BRANCH   6  39
ATOM     39  C   UNL     1      -9.479 -30.569 -16.415  0.00  0.00    +0.000 C 
BRANCH  39  41
ATOM     40  O   UNL     1     -10.393 -32.896 -16.916  0.00  0.00    +0.000 OA
ATOM     41  C   UNL     1      -9.315 -31.935 -16.986  0.00  0.00    +0.000 C 
ATOM     42  C   UNL     1     -10.250 -32.192 -18.078  0.00  0.00    +0.000 C 
ATOM     43  C   UNL     1      -7.942 -32.677 -16.810  0.00  0.00    +0.000 C 
BRANCH  42  44
ATOM     44  C   UNL     1      -9.930 -32.932 -19.261  0.00  0.00    +0.000 C 
ATOM     45  C   UNL     1     -10.136 -34.429 -19.300  0.00  0.00    +0.000 C 
BRANCH  44  46
ATOM     46  C   UNL     1      -9.867 -32.285 -20.521  0.00  0.00    +0.000 C 
ATOM     47  C   UNL     1      -9.770 -31.719 -21.574  0.00  0.00    +0.000 C 
ATOM     48  C   UNL     1      -9.578 -30.982 -22.905  0.00  0.00    +0.000 C 
ENDBRANCH  44  46
ENDBRANCH  42  44
ENDBRANCH  39  41
BRANCH  39  49
ATOM     49  O   UNL     1     -10.536 -30.224 -15.588  0.00  0.00    +0.000 OA
ATOM     50  H   UNL     1     -10.447 -29.350 -15.162  0.00  0.00    +0.000 HD
ENDBRANCH  39  49
ENDBRANCH   6  39
BRANCH   8  51
ATOM     51  C   UNL     1      -5.573 -28.329 -14.939  0.00  0.00    +0.000 C 
BRANCH  51  52
ATOM     52  O   UNL     1      -5.183 -27.162 -14.427  0.00  0.00    +0.000 OA
ATOM     53  H   UNL     1      -4.222 -27.028 -14.553  0.00  0.00    +0.000 HD
ENDBRANCH  51  52
ENDBRANCH   8  51
TORSDOF 13
ENDMDL
MODEL 5
REMARK VINA RESULT:      -4.6     20.606     24.680
REMARK  Name = 102471178_CandidaspongiolideCore.pdbqt.pdb
REMARK  13 active torsions:
REMARK  status: ('A' for Active; 'I' for Inactive)
REMARK    1  A    between atoms: C_6  and  C_39
REMARK    2  A    between atoms: C_8  and  O_27
REMARK    3  A    between atoms: C_8  and  C_51
REMARK    4  A    between atoms: C_10  and  O_29
REMARK    5  A    between atoms: C_15  and  O_31
REMARK    6  A    between atoms: C_16  and  O_33
REMARK    7  A    between atoms: C_21  and  O_35
REMARK    8  A    between atoms: O_35  and  C_37
REMARK    9  A    between atoms: C_39  and  C_41
REMARK   10  A    between atoms: C_39  and  O_49
REMARK   11  A    between atoms: C_42  and  C_44
REMARK   12  A    between atoms: C_44  and  C_46
REMARK   13  A    between atoms: C_51  and  O_52
REMARK                            x       y       z     vdW  Elec       q    Type
REMARK                         _______ _______ _______ _____ _____    ______ ____
ROOT
ATOM      1  O   UNL     1      -1.983 -17.686 -19.983  0.00  0.00    +0.000 OA
ATOM      2  O   UNL     1      -3.119 -17.523 -17.993  0.00  0.00    +0.000 OA
ATOM      3  O   UNL     1      -3.773 -16.366 -13.232  0.00  0.00    +0.000 OA
ATOM      4  O   UNL     1      -3.523 -16.887 -21.429  0.00  0.00    +0.000 OA
ATOM      5  O   UNL     1      -6.233 -17.813 -19.383  0.00  0.00    +0.000 OA
ATOM      6  C   UNL     1      -0.737 -17.258 -18.076  0.00  0.00    +0.000 C 
ATOM      7  C   UNL     1      -0.420 -17.635 -16.741  0.00  0.00    +0.000 C 
ATOM      8  C   UNL     1       0.053 -18.075 -15.426  0.00  0.00    +0.000 C 
ATOM      9  C   UNL     1      -2.087 -17.492 -18.652  0.00  0.00    +0.000 C 
ATOM     10  C   UNL     1      -0.417 -17.162 -14.315  0.00  0.00    +0.000 C 
ATOM     11  C   UNL     1      -1.723 -16.610 -14.226  0.00  0.00    +0.000 C 
ATOM     12  C   UNL     1      -3.079 -16.103 -14.207  0.00  0.00    +0.000 C 
ATOM     13  C   UNL     1      -3.150 -17.758 -20.651  0.00  0.00    +0.000 C 
ATOM     14  C   UNL     1      -3.613 -15.325 -15.366  0.00  0.00    +0.000 C 
ATOM     15  C   UNL     1      -3.819 -19.082 -20.650  0.00  0.00    +0.000 C 
ATOM     16  C   UNL     1      -4.039 -19.892 -19.469  0.00  0.00    +0.000 C 
ATOM     17  C   UNL     1      -5.198 -19.810 -18.589  0.00  0.00    +0.000 C 
ATOM     18  C   UNL     1      -4.990 -15.405 -15.686  0.00  0.00    +0.000 C 
ATOM     19  C   UNL     1      -6.065 -17.978 -17.021  0.00  0.00    +0.000 C 
ATOM     20  C   UNL     1      -2.704 -14.678 -16.401  0.00  0.00    +0.000 C 
ATOM     21  C   UNL     1      -6.677 -16.663 -16.859  0.00  0.00    +0.000 C 
ATOM     22  C   UNL     1      -5.883 -18.493 -18.416  0.00  0.00    +0.000 C 
ATOM     23  C   UNL     1      -6.242 -15.590 -15.977  0.00  0.00    +0.000 C 
ATOM     24  C   UNL     1      -5.907 -21.068 -18.094  0.00  0.00    +0.000 C 
ATOM     25  C   UNL     1      -5.381 -18.627 -15.825  0.00  0.00    +0.000 C 
ATOM     26  C   UNL     1      -7.210 -14.596 -15.388  0.00  0.00    +0.000 C 
ENDROOT
BRANCH   8  27
ATOM     27  O   UNL     1       1.480 -18.019 -15.489  0.00  0.00    +0.000 OA
ATOM     28  H   UNL     1       1.765 -18.942 -15.335  0.00  0.00    +0.000 HD
ENDBRANCH   8  27
BRANCH  10  29
ATOM     29  O   UNL     1       0.485 -16.898 -13.296  0.00  0.00    +0.000 OA
ATOM     30  H   UNL     1       0.913 -17.709 -12.963  0.00  0.00    +0.000 HD
ENDBRANCH  10  29
BRANCH  15  31
ATOM     31  O   UNL     1      -4.695 -19.362 -21.687  0.00  0.00    +0.000 OA
ATOM     32  H   UNL     1      -5.204 -18.560 -21.932  0.00  0.00    +0.000 HD
ENDBRANCH  15  31
BRANCH  16  33
ATOM     33  O   UNL     1      -3.386 -21.111 -19.460  0.00  0.00    +0.000 OA
ATOM     34  C   UNL     1      -2.213 -21.003 -18.692  0.00  0.00    +0.000 C 
ENDBRANCH  16  33
BRANCH  21  35
ATOM     35  O   UNL     1      -7.922 -16.511 -17.521  0.00  0.00    +0.000 OA
BRANCH  35  37
ATOM     36  O   UNL     1      -9.169 -17.576 -15.852  0.00  0.00    +0.000 OA
ATOM     37  C   UNL     1      -8.896 -17.313 -17.010  0.00  0.00    +0.000 C 
ATOM     38  C   UNL     1      -9.784 -17.933 -18.028  0.00  0.00    +0.000 C 
ENDBRANCH  35  37
ENDBRANCH  21  35
BRANCH   6  39
ATOM     39  C   UNL     1       0.277 -16.555 -18.828  0.00  0.00    +0.000 C 
BRANCH  39  41
ATOM     40  O   UNL     1       0.730 -14.432 -20.167  0.00  0.00    +0.000 OA
ATOM     41  C   UNL     1       0.206 -15.075 -18.981  0.00  0.00    +0.000 C 
ATOM     42  C   UNL     1      -0.613 -14.677 -20.122  0.00  0.00    +0.000 C 
ATOM     43  C   UNL     1       0.475 -14.164 -17.731  0.00  0.00    +0.000 C 
BRANCH  42  44
ATOM     44  C   UNL     1      -1.490 -13.546 -20.135  0.00  0.00    +0.000 C 
ATOM     45  C   UNL     1      -1.098 -12.290 -20.878  0.00  0.00    +0.000 C 
BRANCH  44  46
ATOM     46  C   UNL     1      -2.876 -13.705 -19.880  0.00  0.00    +0.000 C 
ATOM     47  C   UNL     1      -4.044 -13.886 -19.681  0.00  0.00    +0.000 C 
ATOM     48  C   UNL     1      -5.528 -14.188 -19.437  0.00  0.00    +0.000 C 
ENDBRANCH  44  46
ENDBRANCH  42  44
ENDBRANCH  39  41
BRANCH  39  49
ATOM     49  O   UNL     1       1.252 -17.326 -19.439  0.00  0.00    +0.000 OA
ATOM     50  H   UNL     1       0.939 -18.194 -19.760  0.00  0.00    +0.000 HD
ENDBRANCH  39  49
ENDBRANCH   6  39
BRANCH   8  51
ATOM     51  C   UNL     1      -0.328 -19.468 -15.141  0.00  0.00    +0.000 C 
BRANCH  51  52
ATOM     52  O   UNL     1      -0.632 -20.738 -14.867  0.00  0.00    +0.000 OA
ATOM     53  H   UNL     1       0.168 -21.244 -14.620  0.00  0.00    +0.000 HD
ENDBRANCH  51  52
ENDBRANCH   8  51
TORSDOF 13
ENDMDL
MODEL 6
REMARK VINA RESULT:      -4.5     10.775     14.814
REMARK  Name = 102471178_CandidaspongiolideCore.pdbqt.pdb
REMARK  13 active torsions:
REMARK  status: ('A' for Active; 'I' for Inactive)
REMARK    1  A    between atoms: C_6  and  C_39
REMARK    2  A    between atoms: C_8  and  O_27
REMARK    3  A    between atoms: C_8  and  C_51
REMARK    4  A    between atoms: C_10  and  O_29
REMARK    5  A    between atoms: C_15  and  O_31
REMARK    6  A    between atoms: C_16  and  O_33
REMARK    7  A    between atoms: C_21  and  O_35
REMARK    8  A    between atoms: O_35  and  C_37
REMARK    9  A    between atoms: C_39  and  C_41
REMARK   10  A    between atoms: C_39  and  O_49
REMARK   11  A    between atoms: C_42  and  C_44
REMARK   12  A    between atoms: C_44  and  C_46
REMARK   13  A    between atoms: C_51  and  O_52
REMARK                            x       y       z     vdW  Elec       q    Type
REMARK                         _______ _______ _______ _____ _____    ______ ____
ROOT
ATOM      1  O   UNL     1      -6.413 -32.779 -19.532  0.00  0.00    +0.000 OA
ATOM      2  O   UNL     1      -7.543 -32.127 -17.642  0.00  0.00    +0.000 OA
ATOM      3  O   UNL     1      -9.560 -32.658 -13.160  0.00  0.00    +0.000 OA
ATOM      4  O   UNL     1      -4.958 -31.070 -19.780  0.00  0.00    +0.000 OA
ATOM      5  O   UNL     1      -7.045 -28.775 -18.118  0.00  0.00    +0.000 OA
ATOM      6  C   UNL     1      -7.190 -34.449 -18.125  0.00  0.00    +0.000 C 
ATOM      7  C   UNL     1      -8.291 -35.000 -17.412  0.00  0.00    +0.000 C 
ATOM      8  C   UNL     1      -9.424 -35.690 -16.789  0.00  0.00    +0.000 C 
ATOM      9  C   UNL     1      -7.076 -32.989 -18.377  0.00  0.00    +0.000 C 
ATOM     10  C   UNL     1      -9.398 -35.582 -15.280  0.00  0.00    +0.000 C 
ATOM     11  C   UNL     1      -9.067 -34.401 -14.563  0.00  0.00    +0.000 C 
ATOM     12  C   UNL     1      -8.730 -33.152 -13.914  0.00  0.00    +0.000 C 
ATOM     13  C   UNL     1      -6.107 -31.496 -19.801  0.00  0.00    +0.000 C 
ATOM     14  C   UNL     1      -7.427 -32.476 -14.201  0.00  0.00    +0.000 C 
ATOM     15  C   UNL     1      -7.182 -30.690 -20.432  0.00  0.00    +0.000 C 
ATOM     16  C   UNL     1      -8.551 -30.635 -19.964  0.00  0.00    +0.000 C 
ATOM     17  C   UNL     1      -9.069 -29.712 -18.963  0.00  0.00    +0.000 C 
ATOM     18  C   UNL     1      -7.349 -31.063 -14.157  0.00  0.00    +0.000 C 
ATOM     19  C   UNL     1      -8.611 -29.427 -16.457  0.00  0.00    +0.000 C 
ATOM     20  C   UNL     1      -6.248 -33.211 -14.823  0.00  0.00    +0.000 C 
ATOM     21  C   UNL     1      -7.693 -29.026 -15.396  0.00  0.00    +0.000 C 
ATOM     22  C   UNL     1      -8.160 -29.242 -17.874  0.00  0.00    +0.000 C 
ATOM     23  C   UNL     1      -7.366 -29.766 -14.186  0.00  0.00    +0.000 C 
ATOM     24  C   UNL     1     -10.394 -28.982 -19.168  0.00  0.00    +0.000 C 
ATOM     25  C   UNL     1      -9.828 -30.271 -16.102  0.00  0.00    +0.000 C 
ATOM     26  C   UNL     1      -6.978 -29.072 -12.905  0.00  0.00    +0.000 C 
ENDROOT
BRANCH   8  27
ATOM     27  O   UNL     1      -9.285 -37.066 -17.150  0.00  0.00    +0.000 OA
ATOM     28  H   UNL     1     -10.200 -37.360 -17.335  0.00  0.00    +0.000 HD
ENDBRANCH   8  27
BRANCH  10  29
ATOM     29  O   UNL     1      -9.776 -36.707 -14.564  0.00  0.00    +0.000 OA
ATOM     30  H   UNL     1      -9.052 -37.356 -14.487  0.00  0.00    +0.000 HD
ENDBRANCH  10  29
BRANCH  15  31
ATOM     31  O   UNL     1      -6.804 -29.584 -21.177  0.00  0.00    +0.000 OA
ATOM     32  H   UNL     1      -6.495 -29.860 -22.067  0.00  0.00    +0.000 HD
ENDBRANCH  15  31
BRANCH  16  33
ATOM     33  O   UNL     1      -9.496 -31.126 -20.848  0.00  0.00    +0.000 OA
ATOM     34  C   UNL     1      -9.917 -32.397 -20.420  0.00  0.00    +0.000 C 
ENDBRANCH  16  33
BRANCH  21  35
ATOM     35  O   UNL     1      -7.218 -27.694 -15.507  0.00  0.00    +0.000 OA
BRANCH  35  37
ATOM     36  O   UNL     1      -9.085 -26.655 -14.556  0.00  0.00    +0.000 OA
ATOM     37  C   UNL     1      -8.207 -26.766 -15.393  0.00  0.00    +0.000 C 
ATOM     38  C   UNL     1      -8.183 -25.706 -16.434  0.00  0.00    +0.000 C 
ENDBRANCH  35  37
ENDBRANCH  21  35
BRANCH   6  39
ATOM     39  C   UNL     1      -6.135 -35.354 -18.523  0.00  0.00    +0.000 C 
BRANCH  39  41
ATOM     40  O   UNL     1      -3.614 -35.709 -18.392  0.00  0.00    +0.000 OA
ATOM     41  C   UNL     1      -4.872 -35.424 -17.738  0.00  0.00    +0.000 C 
ATOM     42  C   UNL     1      -3.913 -34.399 -18.142  0.00  0.00    +0.000 C 
ATOM     43  C   UNL     1      -4.889 -36.102 -16.322  0.00  0.00    +0.000 C 
BRANCH  42  44
ATOM     44  C   UNL     1      -3.058 -33.688 -17.241  0.00  0.00    +0.000 C 
ATOM     45  C   UNL     1      -1.613 -34.099 -17.083  0.00  0.00    +0.000 C 
BRANCH  44  46
ATOM     46  C   UNL     1      -3.370 -32.363 -16.846  0.00  0.00    +0.000 C 
ATOM     47  C   UNL     1      -3.679 -31.247 -16.532  0.00  0.00    +0.000 C 
ATOM     48  C   UNL     1      -4.142 -29.836 -16.147  0.00  0.00    +0.000 C 
ENDBRANCH  44  46
ENDBRANCH  42  44
ENDBRANCH  39  41
BRANCH  39  49
ATOM     49  O   UNL     1      -6.337 -36.079 -19.686  0.00  0.00    +0.000 OA
ATOM     50  H   UNL     1      -5.645 -36.742 -19.874  0.00  0.00    +0.000 HD
ENDBRANCH  39  49
ENDBRANCH   6  39
BRANCH   8  51
ATOM     51  C   UNL     1     -10.715 -35.217 -17.315  0.00  0.00    +0.000 C 
BRANCH  51  52
ATOM     52  O   UNL     1     -11.866 -34.785 -17.831  0.00  0.00    +0.000 OA
ATOM     53  H   UNL     1     -12.277 -34.111 -17.253  0.00  0.00    +0.000 HD
ENDBRANCH  51  52
ENDBRANCH   8  51
TORSDOF 13
ENDMDL
MODEL 7
REMARK VINA RESULT:      -4.5      2.934      5.774
REMARK  Name = 102471178_CandidaspongiolideCore.pdbqt.pdb
REMARK  13 active torsions:
REMARK  status: ('A' for Active; 'I' for Inactive)
REMARK    1  A    between atoms: C_6  and  C_39
REMARK    2  A    between atoms: C_8  and  O_27
REMARK    3  A    between atoms: C_8  and  C_51
REMARK    4  A    between atoms: C_10  and  O_29
REMARK    5  A    between atoms: C_15  and  O_31
REMARK    6  A    between atoms: C_16  and  O_33
REMARK    7  A    between atoms: C_21  and  O_35
REMARK    8  A    between atoms: O_35  and  C_37
REMARK    9  A    between atoms: C_39  and  C_41
REMARK   10  A    between atoms: C_39  and  O_49
REMARK   11  A    between atoms: C_42  and  C_44
REMARK   12  A    between atoms: C_44  and  C_46
REMARK   13  A    between atoms: C_51  and  O_52
REMARK                            x       y       z     vdW  Elec       q    Type
REMARK                         _______ _______ _______ _____ _____    ______ ____
ROOT
ATOM      1  O   UNL     1      -5.372 -36.553  -4.713  0.00  0.00    +0.000 OA
ATOM      2  O   UNL     1      -5.918 -36.842  -2.501  0.00  0.00    +0.000 OA
ATOM      3  O   UNL     1      -8.787 -36.650   1.520  0.00  0.00    +0.000 OA
ATOM      4  O   UNL     1      -4.468 -38.563  -5.204  0.00  0.00    +0.000 OA
ATOM      5  O   UNL     1      -3.489 -39.170  -1.878  0.00  0.00    +0.000 OA
ATOM      6  C   UNL     1      -7.238 -35.430  -3.920  0.00  0.00    +0.000 C 
ATOM      7  C   UNL     1      -7.787 -34.565  -2.932  0.00  0.00    +0.000 C 
ATOM      8  C   UNL     1      -8.358 -33.558  -2.034  0.00  0.00    +0.000 C 
ATOM      9  C   UNL     1      -6.120 -36.359  -3.608  0.00  0.00    +0.000 C 
ATOM     10  C   UNL     1      -9.331 -34.161  -1.045  0.00  0.00    +0.000 C 
ATOM     11  C   UNL     1      -9.128 -35.391  -0.364  0.00  0.00    +0.000 C 
ATOM     12  C   UNL     1      -8.833 -36.646   0.295  0.00  0.00    +0.000 C 
ATOM     13  C   UNL     1      -4.415 -37.494  -4.607  0.00  0.00    +0.000 C 
ATOM     14  C   UNL     1      -8.551 -37.875  -0.507  0.00  0.00    +0.000 C 
ATOM     15  C   UNL     1      -3.139 -37.057  -3.988  0.00  0.00    +0.000 C 
ATOM     16  C   UNL     1      -3.038 -36.311  -2.750  0.00  0.00    +0.000 C 
ATOM     17  C   UNL     1      -2.964 -36.890  -1.415  0.00  0.00    +0.000 C 
ATOM     18  C   UNL     1      -7.658 -38.851  -0.001  0.00  0.00    +0.000 C 
ATOM     19  C   UNL     1      -4.626 -38.245  -0.012  0.00  0.00    +0.000 C 
ATOM     20  C   UNL     1      -8.947 -38.001  -1.972  0.00  0.00    +0.000 C 
ATOM     21  C   UNL     1      -5.346 -39.496   0.203  0.00  0.00    +0.000 C 
ATOM     22  C   UNL     1      -3.654 -38.189  -1.151  0.00  0.00    +0.000 C 
ATOM     23  C   UNL     1      -6.766 -39.661   0.481  0.00  0.00    +0.000 C 
ATOM     24  C   UNL     1      -1.961 -36.379  -0.385  0.00  0.00    +0.000 C 
ATOM     25  C   UNL     1      -5.092 -36.990   0.714  0.00  0.00    +0.000 C 
ATOM     26  C   UNL     1      -7.292 -40.810   1.300  0.00  0.00    +0.000 C 
ENDROOT
BRANCH   8  27
ATOM     27  O   UNL     1      -9.069 -32.647  -2.876  0.00  0.00    +0.000 OA
ATOM     28  H   UNL     1      -8.382 -32.029  -3.197  0.00  0.00    +0.000 HD
ENDBRANCH   8  27
BRANCH  10  29
ATOM     29  O   UNL     1     -10.470 -33.425  -0.756  0.00  0.00    +0.000 OA
ATOM     30  H   UNL     1     -10.259 -32.562  -0.352  0.00  0.00    +0.000 HD
ENDBRANCH  10  29
BRANCH  15  31
ATOM     31  O   UNL     1      -1.993 -37.770  -4.302  0.00  0.00    +0.000 OA
ATOM     32  H   UNL     1      -1.206 -37.185  -4.272  0.00  0.00    +0.000 HD
ENDBRANCH  15  31
BRANCH  16  33
ATOM     33  O   UNL     1      -2.492 -35.046  -2.868  0.00  0.00    +0.000 OA
ATOM     34  C   UNL     1      -3.317 -34.259  -3.691  0.00  0.00    +0.000 C 
ENDBRANCH  16  33
BRANCH  21  35
ATOM     35  O   UNL     1      -4.513 -40.639   0.315  0.00  0.00    +0.000 OA
BRANCH  35  37
ATOM     36  O   UNL     1      -4.021 -40.484   2.596  0.00  0.00    +0.000 OA
ATOM     37  C   UNL     1      -3.722 -40.614   1.423  0.00  0.00    +0.000 C 
ATOM     38  C   UNL     1      -2.274 -40.813   1.152  0.00  0.00    +0.000 C 
ENDBRANCH  35  37
ENDBRANCH  21  35
BRANCH   6  39
ATOM     39  C   UNL     1      -7.866 -35.438  -5.221  0.00  0.00    +0.000 C 
BRANCH  39  41
ATOM     40  O   UNL     1      -9.208 -36.840  -6.875  0.00  0.00    +0.000 OA
ATOM     41  C   UNL     1      -8.962 -36.402  -5.519  0.00  0.00    +0.000 C 
ATOM     42  C   UNL     1      -8.458 -37.655  -6.075  0.00  0.00    +0.000 C 
ATOM     43  C   UNL     1     -10.329 -36.264  -4.759  0.00  0.00    +0.000 C 
BRANCH  42  44
ATOM     44  C   UNL     1      -8.989 -38.949  -5.769  0.00  0.00    +0.000 C 
ATOM     45  C   UNL     1     -10.024 -39.577  -6.674  0.00  0.00    +0.000 C 
BRANCH  44  46
ATOM     46  C   UNL     1      -8.272 -39.844  -4.936  0.00  0.00    +0.000 C 
ATOM     47  C   UNL     1      -7.708 -40.615  -4.211  0.00  0.00    +0.000 C 
ATOM     48  C   UNL     1      -7.051 -41.629  -3.266  0.00  0.00    +0.000 C 
ENDBRANCH  44  46
ENDBRANCH  42  44
ENDBRANCH  39  41
BRANCH  39  49
ATOM     49  O   UNL     1      -7.355 -34.567  -6.170  0.00  0.00    +0.000 OA
ATOM     50  H   UNL     1      -6.548 -34.094  -5.890  0.00  0.00    +0.000 HD
ENDBRANCH  39  49
ENDBRANCH   6  39
BRANCH   8  51
ATOM     51  C   UNL     1      -7.316 -32.795  -1.327  0.00  0.00    +0.000 C 
BRANCH  51  52
ATOM     52  O   UNL     1      -6.401 -32.096  -0.655  0.00  0.00    +0.000 OA
ATOM     53  H   UNL     1      -6.769 -31.243  -0.347  0.00  0.00    +0.000 HD
ENDBRANCH  51  52
ENDBRANCH   8  51
TORSDOF 13
ENDMDL
MODEL 8
REMARK VINA RESULT:      -4.3     20.820     25.637
REMARK  Name = 102471178_CandidaspongiolideCore.pdbqt.pdb
REMARK  13 active torsions:
REMARK  status: ('A' for Active; 'I' for Inactive)
REMARK    1  A    between atoms: C_6  and  C_39
REMARK    2  A    between atoms: C_8  and  O_27
REMARK    3  A    between atoms: C_8  and  C_51
REMARK    4  A    between atoms: C_10  and  O_29
REMARK    5  A    between atoms: C_15  and  O_31
REMARK    6  A    between atoms: C_16  and  O_33
REMARK    7  A    between atoms: C_21  and  O_35
REMARK    8  A    between atoms: O_35  and  C_37
REMARK    9  A    between atoms: C_39  and  C_41
REMARK   10  A    between atoms: C_39  and  O_49
REMARK   11  A    between atoms: C_42  and  C_44
REMARK   12  A    between atoms: C_44  and  C_46
REMARK   13  A    between atoms: C_51  and  O_52
REMARK                            x       y       z     vdW  Elec       q    Type
REMARK                         _______ _______ _______ _____ _____    ______ ____
ROOT
ATOM      1  O   UNL     1      -5.402 -16.233 -20.230  0.00  0.00    +0.000 OA
ATOM      2  O   UNL     1      -5.564 -16.144 -17.940  0.00  0.00    +0.000 OA
ATOM      3  O   UNL     1      -3.953 -16.370 -13.272  0.00  0.00    +0.000 OA
ATOM      4  O   UNL     1      -6.511 -14.356 -20.817  0.00  0.00    +0.000 OA
ATOM      5  O   UNL     1      -8.480 -14.354 -17.899  0.00  0.00    +0.000 OA
ATOM      6  C   UNL     1      -3.649 -17.121 -19.001  0.00  0.00    +0.000 C 
ATOM      7  C   UNL     1      -3.238 -18.002 -17.962  0.00  0.00    +0.000 C 
ATOM      8  C   UNL     1      -2.754 -19.007 -17.012  0.00  0.00    +0.000 C 
ATOM      9  C   UNL     1      -4.970 -16.440 -18.969  0.00  0.00    +0.000 C 
ATOM     10  C   UNL     1      -2.234 -18.383 -15.735  0.00  0.00    +0.000 C 
ATOM     11  C   UNL     1      -2.858 -17.301 -15.057  0.00  0.00    +0.000 C 
ATOM     12  C   UNL     1      -3.567 -16.209 -14.425  0.00  0.00    +0.000 C 
ATOM     13  C   UNL     1      -6.517 -15.487 -20.344  0.00  0.00    +0.000 C 
ATOM     14  C   UNL     1      -3.850 -14.951 -15.181  0.00  0.00    +0.000 C 
ATOM     15  C   UNL     1      -7.802 -16.206 -20.169  0.00  0.00    +0.000 C 
ATOM     16  C   UNL     1      -8.096 -17.111 -19.076  0.00  0.00    +0.000 C 
ATOM     17  C   UNL     1      -8.653 -16.730 -17.785  0.00  0.00    +0.000 C 
ATOM     18  C   UNL     1      -5.024 -14.212 -14.892  0.00  0.00    +0.000 C 
ATOM     19  C   UNL     1      -7.750 -15.308 -15.853  0.00  0.00    +0.000 C 
ATOM     20  C   UNL     1      -3.094 -14.573 -16.446  0.00  0.00    +0.000 C 
ATOM     21  C   UNL     1      -7.381 -13.993 -15.340  0.00  0.00    +0.000 C 
ATOM     22  C   UNL     1      -8.334 -15.379 -17.231  0.00  0.00    +0.000 C 
ATOM     23  C   UNL     1      -6.156 -13.631 -14.641  0.00  0.00    +0.000 C 
ATOM     24  C   UNL     1      -9.782 -17.530 -17.142  0.00  0.00    +0.000 C 
ATOM     25  C   UNL     1      -7.268 -16.551 -15.117  0.00  0.00    +0.000 C 
ATOM     26  C   UNL     1      -6.117 -12.525 -13.618  0.00  0.00    +0.000 C 
ENDROOT
BRANCH   8  27
ATOM     27  O   UNL     1      -1.671 -19.671 -17.668  0.00  0.00    +0.000 OA
ATOM     28  H   UNL     1      -1.400 -19.050 -18.375  0.00  0.00    +0.000 HD
ENDBRANCH   8  27
BRANCH  10  29
ATOM     29  O   UNL     1      -1.100 -18.949 -15.176  0.00  0.00    +0.000 OA
ATOM     30  H   UNL     1      -1.067 -19.915 -15.306  0.00  0.00    +0.000 HD
ENDBRANCH  10  29
BRANCH  15  31
ATOM     31  O   UNL     1      -8.932 -15.660 -20.757  0.00  0.00    +0.000 OA
ATOM     32  H   UNL     1      -8.693 -15.182 -21.579  0.00  0.00    +0.000 HD
ENDBRANCH  15  31
BRANCH  16  33
ATOM     33  O   UNL     1      -8.327 -18.424 -19.445  0.00  0.00    +0.000 OA
ATOM     34  C   UNL     1      -7.192 -19.198 -19.141  0.00  0.00    +0.000 C 
ENDBRANCH  16  33
BRANCH  21  35
ATOM     35  O   UNL     1      -8.420 -13.029 -15.398  0.00  0.00    +0.000 OA
BRANCH  35  37
ATOM     36  O   UNL     1      -9.504 -13.502 -13.380  0.00  0.00    +0.000 OA
ATOM     37  C   UNL     1      -9.470 -13.331 -14.585  0.00  0.00    +0.000 C 
ATOM     38  C   UNL     1     -10.780 -13.431 -15.280  0.00  0.00    +0.000 C 
ENDBRANCH  35  37
ENDBRANCH  21  35
BRANCH   6  39
ATOM     39  C   UNL     1      -2.696 -16.841 -20.052  0.00  0.00    +0.000 C 
BRANCH  39  41
ATOM     40  O   UNL     1      -1.495 -14.944 -21.260  0.00  0.00    +0.000 OA
ATOM     41  C   UNL     1      -1.903 -15.581 -20.027  0.00  0.00    +0.000 C 
ATOM     42  C   UNL     1      -2.617 -14.467 -20.644  0.00  0.00    +0.000 C 
ATOM     43  C   UNL     1      -0.770 -15.412 -18.953  0.00  0.00    +0.000 C 
BRANCH  42  44
ATOM     44  C   UNL     1      -2.583 -13.118 -20.167  0.00  0.00    +0.000 C 
ATOM     45  C   UNL     1      -1.702 -12.094 -20.845  0.00  0.00    +0.000 C 
BRANCH  44  46
ATOM     46  C   UNL     1      -3.655 -12.598 -19.399  0.00  0.00    +0.000 C 
ATOM     47  C   UNL     1      -4.583 -12.203 -18.750  0.00  0.00    +0.000 C 
ATOM     48  C   UNL     1      -5.790 -11.766 -17.910  0.00  0.00    +0.000 C 
ENDBRANCH  44  46
ENDBRANCH  42  44
ENDBRANCH  39  41
BRANCH  39  49
ATOM     49  O   UNL     1      -2.620 -17.756 -21.089  0.00  0.00    +0.000 OA
ATOM     50  H   UNL     1      -3.475 -18.157 -21.338  0.00  0.00    +0.000 HD
ENDBRANCH  39  49
ENDBRANCH   6  39
BRANCH   8  51
ATOM     51  C   UNL     1      -3.780 -20.018 -16.708  0.00  0.00    +0.000 C 
BRANCH  51  52
ATOM     52  O   UNL     1      -4.740 -20.905 -16.445  0.00  0.00    +0.000 OA
ATOM     53  H   UNL     1      -5.296 -20.607 -15.697  0.00  0.00    +0.000 HD
ENDBRANCH  51  52
ENDBRANCH   8  51
TORSDOF 13
ENDMDL
MODEL 9
REMARK VINA RESULT:      -4.3     20.785     24.310
REMARK  Name = 102471178_CandidaspongiolideCore.pdbqt.pdb
REMARK  13 active torsions:
REMARK  status: ('A' for Active; 'I' for Inactive)
REMARK    1  A    between atoms: C_6  and  C_39
REMARK    2  A    between atoms: C_8  and  O_27
REMARK    3  A    between atoms: C_8  and  C_51
REMARK    4  A    between atoms: C_10  and  O_29
REMARK    5  A    between atoms: C_15  and  O_31
REMARK    6  A    between atoms: C_16  and  O_33
REMARK    7  A    between atoms: C_21  and  O_35
REMARK    8  A    between atoms: O_35  and  C_37
REMARK    9  A    between atoms: C_39  and  C_41
REMARK   10  A    between atoms: C_39  and  O_49
REMARK   11  A    between atoms: C_42  and  C_44
REMARK   12  A    between atoms: C_44  and  C_46
REMARK   13  A    between atoms: C_51  and  O_52
REMARK                            x       y       z     vdW  Elec       q    Type
REMARK                         _______ _______ _______ _____ _____    ______ ____
ROOT
ATOM      1  O   UNL     1      -4.022 -18.431 -15.653  0.00  0.00    +0.000 OA
ATOM      2  O   UNL     1      -3.701 -17.485 -17.721  0.00  0.00    +0.000 OA
ATOM      3  O   UNL     1      -2.163 -14.076 -20.954  0.00  0.00    +0.000 OA
ATOM      4  O   UNL     1      -3.346 -20.551 -16.035  0.00  0.00    +0.000 OA
ATOM      5  O   UNL     1      -4.109 -20.399 -19.468  0.00  0.00    +0.000 OA
ATOM      6  C   UNL     1      -3.438 -16.189 -15.720  0.00  0.00    +0.000 C 
ATOM      7  C   UNL     1      -3.705 -14.896 -16.250  0.00  0.00    +0.000 C 
ATOM      8  C   UNL     1      -4.036 -13.524 -16.645  0.00  0.00    +0.000 C 
ATOM      9  C   UNL     1      -3.721 -17.424 -16.498  0.00  0.00    +0.000 C 
ATOM     10  C   UNL     1      -3.037 -12.956 -17.629  0.00  0.00    +0.000 C 
ATOM     11  C   UNL     1      -2.483 -13.678 -18.720  0.00  0.00    +0.000 C 
ATOM     12  C   UNL     1      -1.978 -14.483 -19.813  0.00  0.00    +0.000 C 
ATOM     13  C   UNL     1      -4.150 -19.645 -16.220  0.00  0.00    +0.000 C 
ATOM     14  C   UNL     1      -1.298 -15.786 -19.543  0.00  0.00    +0.000 C 
ATOM     15  C   UNL     1      -5.471 -19.943 -16.826  0.00  0.00    +0.000 C 
ATOM     16  C   UNL     1      -6.183 -19.058 -17.725  0.00  0.00    +0.000 C 
ATOM     17  C   UNL     1      -6.033 -19.020 -19.174  0.00  0.00    +0.000 C 
ATOM     18  C   UNL     1      -1.406 -16.839 -20.484  0.00  0.00    +0.000 C 
ATOM     19  C   UNL     1      -4.081 -18.373 -20.704  0.00  0.00    +0.000 C 
ATOM     20  C   UNL     1      -0.735 -16.143 -18.174  0.00  0.00    +0.000 C 
ATOM     21  C   UNL     1      -2.759 -18.685 -21.236  0.00  0.00    +0.000 C 
ATOM     22  C   UNL     1      -4.708 -19.365 -19.772  0.00  0.00    +0.000 C 
ATOM     23  C   UNL     1      -1.617 -17.788 -21.343  0.00  0.00    +0.000 C 
ATOM     24  C   UNL     1      -7.248 -18.945 -20.094  0.00  0.00    +0.000 C 
ATOM     25  C   UNL     1      -4.630 -16.962 -20.867  0.00  0.00    +0.000 C 
ATOM     26  C   UNL     1      -0.582 -17.938 -22.427  0.00  0.00    +0.000 C 
ENDROOT
BRANCH   8  27
ATOM     27  O   UNL     1      -3.982 -12.752 -15.443  0.00  0.00    +0.000 OA
ATOM     28  H   UNL     1      -3.083 -12.913 -15.093  0.00  0.00    +0.000 HD
ENDBRANCH   8  27
BRANCH  10  29
ATOM     29  O   UNL     1      -2.689 -11.623 -17.472  0.00  0.00    +0.000 OA
ATOM     30  H   UNL     1      -2.426 -11.417 -16.556  0.00  0.00    +0.000 HD
ENDBRANCH  10  29
BRANCH  15  31
ATOM     31  O   UNL     1      -5.836 -21.275 -16.953  0.00  0.00    +0.000 OA
ATOM     32  H   UNL     1      -5.197 -21.851 -16.482  0.00  0.00    +0.000 HD
ENDBRANCH  15  31
BRANCH  16  33
ATOM     33  O   UNL     1      -7.396 -18.590 -17.252  0.00  0.00    +0.000 OA
ATOM     34  C   UNL     1      -7.223 -17.294 -16.732  0.00  0.00    +0.000 C 
ENDBRANCH  16  33
BRANCH  21  35
ATOM     35  O   UNL     1      -2.665 -19.955 -21.861  0.00  0.00    +0.000 OA
BRANCH  35  37
ATOM     36  O   UNL     1      -3.436 -19.339 -23.982  0.00  0.00    +0.000 OA
ATOM     37  C   UNL     1      -3.418 -20.048 -22.992  0.00  0.00    +0.000 C 
ATOM     38  C   UNL     1      -4.331 -21.219 -23.031  0.00  0.00    +0.000 C 
ENDBRANCH  35  37
ENDBRANCH  21  35
BRANCH   6  39
ATOM     39  C   UNL     1      -2.796 -16.259 -14.427  0.00  0.00    +0.000 C 
BRANCH  39  41
ATOM     40  O   UNL     1      -0.735 -17.078 -13.169  0.00  0.00    +0.000 OA
ATOM     41  C   UNL     1      -1.322 -16.448 -14.332  0.00  0.00    +0.000 C 
ATOM     42  C   UNL     1      -0.949 -17.858 -14.271  0.00  0.00    +0.000 C 
ATOM     43  C   UNL     1      -0.370 -15.308 -14.844  0.00  0.00    +0.000 C 
BRANCH  42  44
ATOM     44  C   UNL     1       0.200 -18.421 -14.912  0.00  0.00    +0.000 C 
ATOM     45  C   UNL     1       1.406 -18.823 -14.095  0.00  0.00    +0.000 C 
BRANCH  44  46
ATOM     46  C   UNL     1       0.086 -19.033 -16.187  0.00  0.00    +0.000 C 
ATOM     47  C   UNL     1      -0.036 -19.511 -17.280  0.00  0.00    +0.000 C 
ATOM     48  C   UNL     1      -0.216 -20.059 -18.701  0.00  0.00    +0.000 C 
ENDBRANCH  44  46
ENDBRANCH  42  44
ENDBRANCH  39  41
BRANCH  39  49
ATOM     49  O   UNL     1      -3.620 -16.211 -13.315  0.00  0.00    +0.000 OA
ATOM     50  H   UNL     1      -3.149 -16.095 -12.468  0.00  0.00    +0.000 HD
ENDBRANCH  39  49
ENDBRANCH   6  39
BRANCH   8  51
ATOM     51  C   UNL     1      -5.402 -13.420 -17.183  0.00  0.00    +0.000 C 
BRANCH  51  52
ATOM     52  O   UNL     1      -6.653 -13.306 -17.633  0.00  0.00    +0.000 OA
ATOM     53  H   UNL     1      -6.898 -12.366 -17.752  0.00  0.00    +0.000 HD
ENDBRANCH  51  52
ENDBRANCH   8  51
TORSDOF 13
ENDMDL
