MODEL 1
REMARK VINA RESULT:      -4.3      0.000      0.000
REMARK  Name = 10281_Thymoquinone.pdbqt.pdb
REMARK  1 active torsions:
REMARK  status: ('A' for Active; 'I' for Inactive)
REMARK    1  A    between atoms: C_3  and  C_10
REMARK                            x       y       z     vdW  Elec       q    Type
REMARK                         _______ _______ _______ _____ _____    ______ ____
ROOT
ATOM      1  O   UNL     1      -5.706 -33.706  -8.058  0.00  0.00    +0.000 OA
ATOM      2  O   UNL     1      -2.484 -33.957  -3.757  0.00  0.00    +0.000 OA
ATOM      3  C   UNL     1      -3.431 -33.706  -7.235  0.00  0.00    +0.000 C 
ATOM      4  C   UNL     1      -4.927 -33.758  -7.126  0.00  0.00    +0.000 C 
ATOM      5  C   UNL     1      -2.869 -33.784  -6.055  0.00  0.00    +0.000 C 
ATOM      6  C   UNL     1      -4.824 -33.961  -4.566  0.00  0.00    +0.000 C 
ATOM      7  C   UNL     1      -3.296 -33.908  -4.660  0.00  0.00    +0.000 C 
ATOM      8  C   UNL     1      -5.378 -33.883  -5.745  0.00  0.00    +0.000 C 
ATOM      9  C   UNL     1      -5.629 -34.088  -3.313  0.00  0.00    +0.000 C 
ENDROOT
BRANCH   3  10
ATOM     10  C   UNL     1      -2.799 -33.581  -8.507  0.00  0.00    +0.000 C 
ATOM     11  C   UNL     1      -2.406 -32.224  -9.039  0.00  0.00    +0.000 C 
ATOM     12  C   UNL     1      -2.134 -34.771  -9.153  0.00  0.00    +0.000 C 
ENDBRANCH   3  10
TORSDOF 1
ENDMDL
MODEL 2
REMARK VINA RESULT:      -4.0     15.364     16.551
REMARK  Name = 10281_Thymoquinone.pdbqt.pdb
REMARK  1 active torsions:
REMARK  status: ('A' for Active; 'I' for Inactive)
REMARK    1  A    between atoms: C_3  and  C_10
REMARK                            x       y       z     vdW  Elec       q    Type
REMARK                         _______ _______ _______ _____ _____    ______ ____
ROOT
ATOM      1  O   UNL     1      -1.772 -17.450   1.768  0.00  0.00    +0.000 OA
ATOM      2  O   UNL     1      -1.283 -22.462  -0.123  0.00  0.00    +0.000 OA
ATOM      3  C   UNL     1      -2.884 -19.543   1.282  0.00  0.00    +0.000 C 
ATOM      4  C   UNL     1      -1.725 -18.590   1.352  0.00  0.00    +0.000 C 
ATOM      5  C   UNL     1      -2.516 -20.698   0.787  0.00  0.00    +0.000 C 
ATOM      6  C   UNL     1      -0.116 -20.334   0.363  0.00  0.00    +0.000 C 
ATOM      7  C   UNL     1      -1.288 -21.317   0.284  0.00  0.00    +0.000 C 
ATOM      8  C   UNL     1      -0.489 -19.185   0.857  0.00  0.00    +0.000 C 
ATOM      9  C   UNL     1       1.293 -20.603  -0.055  0.00  0.00    +0.000 C 
ENDROOT
BRANCH   3  10
ATOM     10  C   UNL     1      -4.180 -19.142   1.718  0.00  0.00    +0.000 C 
ATOM     11  C   UNL     1      -4.486 -19.005   3.190  0.00  0.00    +0.000 C 
ATOM     12  C   UNL     1      -5.129 -18.451   0.771  0.00  0.00    +0.000 C 
ENDBRANCH   3  10
TORSDOF 1
ENDMDL
MODEL 3
REMARK VINA RESULT:      -4.0      3.484      4.930
REMARK  Name = 10281_Thymoquinone.pdbqt.pdb
REMARK  1 active torsions:
REMARK  status: ('A' for Active; 'I' for Inactive)
REMARK    1  A    between atoms: C_3  and  C_10
REMARK                            x       y       z     vdW  Elec       q    Type
REMARK                         _______ _______ _______ _____ _____    ______ ____
ROOT
ATOM      1  O   UNL     1      -2.537 -38.158  -6.767  0.00  0.00    +0.000 OA
ATOM      2  O   UNL     1      -2.485 -33.595  -3.917  0.00  0.00    +0.000 OA
ATOM      3  C   UNL     1      -2.141 -37.124  -4.616  0.00  0.00    +0.000 C 
ATOM      4  C   UNL     1      -2.507 -37.162  -6.072  0.00  0.00    +0.000 C 
ATOM      5  C   UNL     1      -2.201 -35.903  -4.146  0.00  0.00    +0.000 C 
ATOM      6  C   UNL     1      -2.900 -34.622  -6.131  0.00  0.00    +0.000 C 
ATOM      7  C   UNL     1      -2.528 -34.567  -4.647  0.00  0.00    +0.000 C 
ATOM      8  C   UNL     1      -2.837 -35.841  -6.594  0.00  0.00    +0.000 C 
ATOM      9  C   UNL     1      -3.293 -33.463  -6.988  0.00  0.00    +0.000 C 
ENDROOT
BRANCH   3  10
ATOM     10  C   UNL     1      -1.783 -38.318  -3.926  0.00  0.00    +0.000 C 
ATOM     11  C   UNL     1      -0.333 -38.692  -3.740  0.00  0.00    +0.000 C 
ATOM     12  C   UNL     1      -2.773 -39.005  -3.017  0.00  0.00    +0.000 C 
ENDBRANCH   3  10
TORSDOF 1
ENDMDL
MODEL 4
REMARK VINA RESULT:      -4.0     20.471     21.073
REMARK  Name = 10281_Thymoquinone.pdbqt.pdb
REMARK  1 active torsions:
REMARK  status: ('A' for Active; 'I' for Inactive)
REMARK    1  A    between atoms: C_3  and  C_10
REMARK                            x       y       z     vdW  Elec       q    Type
REMARK                         _______ _______ _______ _____ _____    ______ ____
ROOT
ATOM      1  O   UNL     1      -3.855 -15.368   0.365  0.00  0.00    +0.000 OA
ATOM      2  O   UNL     1      -7.418 -11.647  -1.186  0.00  0.00    +0.000 OA
ATOM      3  C   UNL     1      -4.566 -13.858  -1.386  0.00  0.00    +0.000 C 
ATOM      4  C   UNL     1      -4.628 -14.523  -0.041  0.00  0.00    +0.000 C 
ATOM      5  C   UNL     1      -5.538 -12.992  -1.529  0.00  0.00    +0.000 C 
ATOM      6  C   UNL     1      -6.716 -13.181   0.626  0.00  0.00    +0.000 C 
ATOM      7  C   UNL     1      -6.667 -12.494  -0.741  0.00  0.00    +0.000 C 
ATOM      8  C   UNL     1      -5.745 -14.042   0.763  0.00  0.00    +0.000 C 
ATOM      9  C   UNL     1      -7.721 -12.934   1.704  0.00  0.00    +0.000 C 
ENDROOT
BRANCH   3  10
ATOM     10  C   UNL     1      -3.543 -14.199  -2.318  0.00  0.00    +0.000 C 
ATOM     11  C   UNL     1      -2.130 -13.706  -2.121  0.00  0.00    +0.000 C 
ATOM     12  C   UNL     1      -3.720 -15.366  -3.258  0.00  0.00    +0.000 C 
ENDBRANCH   3  10
TORSDOF 1
ENDMDL
MODEL 5
REMARK VINA RESULT:      -4.0      9.968     10.988
REMARK  Name = 10281_Thymoquinone.pdbqt.pdb
REMARK  1 active torsions:
REMARK  status: ('A' for Active; 'I' for Inactive)
REMARK    1  A    between atoms: C_3  and  C_10
REMARK                            x       y       z     vdW  Elec       q    Type
REMARK                         _______ _______ _______ _____ _____    ______ ____
ROOT
ATOM      1  O   UNL     1       6.125 -31.171  -1.382  0.00  0.00    +0.000 OA
ATOM      2  O   UNL     1       2.046 -29.428   1.662  0.00  0.00    +0.000 OA
ATOM      3  C   UNL     1       4.323 -29.575  -1.140  0.00  0.00    +0.000 C 
ATOM      4  C   UNL     1       5.192 -30.732  -0.739  0.00  0.00    +0.000 C 
ATOM      5  C   UNL     1       3.402 -29.342  -0.239  0.00  0.00    +0.000 C 
ATOM      6  C   UNL     1       3.882 -31.075   1.446  0.00  0.00    +0.000 C 
ATOM      7  C   UNL     1       2.986 -29.897   1.050  0.00  0.00    +0.000 C 
ATOM      8  C   UNL     1       4.798 -31.302   0.544  0.00  0.00    +0.000 C 
ATOM      9  C   UNL     1       3.769 -31.892   2.692  0.00  0.00    +0.000 C 
ENDROOT
BRANCH   3  10
ATOM     10  C   UNL     1       4.551 -28.887  -2.368  0.00  0.00    +0.000 C 
ATOM     11  C   UNL     1       4.246 -29.552  -3.688  0.00  0.00    +0.000 C 
ATOM     12  C   UNL     1       4.688 -27.385  -2.391  0.00  0.00    +0.000 C 
ENDBRANCH   3  10
TORSDOF 1
ENDMDL
MODEL 6
REMARK VINA RESULT:      -3.9      5.959      8.600
REMARK  Name = 10281_Thymoquinone.pdbqt.pdb
REMARK  1 active torsions:
REMARK  status: ('A' for Active; 'I' for Inactive)
REMARK    1  A    between atoms: C_3  and  C_10
REMARK                            x       y       z     vdW  Elec       q    Type
REMARK                         _______ _______ _______ _____ _____    ______ ____
ROOT
ATOM      1  O   UNL     1     -10.567 -34.053   0.131  0.00  0.00    +0.000 OA
ATOM      2  O   UNL     1      -7.688 -31.931  -3.888  0.00  0.00    +0.000 OA
ATOM      3  C   UNL     1      -9.363 -32.122  -0.692  0.00  0.00    +0.000 C 
ATOM      4  C   UNL     1      -9.912 -33.519  -0.743  0.00  0.00    +0.000 C 
ATOM      5  C   UNL     1      -8.699 -31.836  -1.784  0.00  0.00    +0.000 C 
ATOM      6  C   UNL     1      -8.913 -33.923  -3.076  0.00  0.00    +0.000 C 
ATOM      7  C   UNL     1      -8.346 -32.501  -3.040  0.00  0.00    +0.000 C 
ATOM      8  C   UNL     1      -9.573 -34.202  -1.985  0.00  0.00    +0.000 C 
ATOM      9  C   UNL     1      -8.763 -34.906  -4.192  0.00  0.00    +0.000 C 
ENDROOT
BRANCH   3  10
ATOM     10  C   UNL     1      -9.586 -31.295   0.447  0.00  0.00    +0.000 C 
ATOM     11  C   UNL     1     -10.772 -30.362   0.497  0.00  0.00    +0.000 C 
ATOM     12  C   UNL     1      -8.930 -31.614   1.768  0.00  0.00    +0.000 C 
ENDBRANCH   3  10
TORSDOF 1
ENDMDL
MODEL 7
REMARK VINA RESULT:      -3.8     10.853     13.318
REMARK  Name = 10281_Thymoquinone.pdbqt.pdb
REMARK  1 active torsions:
REMARK  status: ('A' for Active; 'I' for Inactive)
REMARK    1  A    between atoms: C_3  and  C_10
REMARK                            x       y       z     vdW  Elec       q    Type
REMARK                         _______ _______ _______ _____ _____    ______ ____
ROOT
ATOM      1  O   UNL     1      -5.872 -27.855 -18.031  0.00  0.00    +0.000 OA
ATOM      2  O   UNL     1      -9.546 -24.847 -15.501  0.00  0.00    +0.000 OA
ATOM      3  C   UNL     1      -6.788 -27.147 -15.907  0.00  0.00    +0.000 C 
ATOM      4  C   UNL     1      -6.678 -27.197 -17.404  0.00  0.00    +0.000 C 
ATOM      5  C   UNL     1      -7.754 -26.347 -15.531  0.00  0.00    +0.000 C 
ATOM      6  C   UNL     1      -8.632 -25.552 -17.692  0.00  0.00    +0.000 C 
ATOM      7  C   UNL     1      -8.756 -25.489 -16.167  0.00  0.00    +0.000 C 
ATOM      8  C   UNL     1      -7.668 -26.351 -18.060  0.00  0.00    +0.000 C 
ATOM      9  C   UNL     1      -9.480 -24.817 -18.679  0.00  0.00    +0.000 C 
ENDROOT
BRANCH   3  10
ATOM     10  C   UNL     1      -5.902 -27.907 -15.088  0.00  0.00    +0.000 C 
ATOM     11  C   UNL     1      -6.171 -29.366 -14.815  0.00  0.00    +0.000 C 
ATOM     12  C   UNL     1      -4.496 -27.425 -14.826  0.00  0.00    +0.000 C 
ENDBRANCH   3  10
TORSDOF 1
ENDMDL
MODEL 8
REMARK VINA RESULT:      -3.7      9.290     11.642
REMARK  Name = 10281_Thymoquinone.pdbqt.pdb
REMARK  1 active torsions:
REMARK  status: ('A' for Active; 'I' for Inactive)
REMARK    1  A    between atoms: C_3  and  C_10
REMARK                            x       y       z     vdW  Elec       q    Type
REMARK                         _______ _______ _______ _____ _____    ______ ____
ROOT
ATOM      1  O   UNL     1      -5.894 -28.484 -14.005  0.00  0.00    +0.000 OA
ATOM      2  O   UNL     1     -10.305 -28.343 -17.081  0.00  0.00    +0.000 OA
ATOM      3  C   UNL     1      -7.628 -29.758 -15.109  0.00  0.00    +0.000 C 
ATOM      4  C   UNL     1      -6.892 -28.516 -14.697  0.00  0.00    +0.000 C 
ATOM      5  C   UNL     1      -8.666 -29.467 -15.853  0.00  0.00    +0.000 C 
ATOM      6  C   UNL     1      -8.544 -27.009 -15.965  0.00  0.00    +0.000 C 
ATOM      7  C   UNL     1      -9.306 -28.266 -16.393  0.00  0.00    +0.000 C 
ATOM      8  C   UNL     1      -7.511 -27.306 -15.224  0.00  0.00    +0.000 C 
ATOM      9  C   UNL     1      -8.891 -25.600 -16.321  0.00  0.00    +0.000 C 
ENDROOT
BRANCH   3  10
ATOM     10  C   UNL     1      -7.177 -31.043 -14.689  0.00  0.00    +0.000 C 
ATOM     11  C   UNL     1      -6.024 -31.720 -15.390  0.00  0.00    +0.000 C 
ATOM     12  C   UNL     1      -7.526 -31.568 -13.318  0.00  0.00    +0.000 C 
ENDBRANCH   3  10
TORSDOF 1
ENDMDL
MODEL 9
REMARK VINA RESULT:      -3.6     21.114     21.942
REMARK  Name = 10281_Thymoquinone.pdbqt.pdb
REMARK  1 active torsions:
REMARK  status: ('A' for Active; 'I' for Inactive)
REMARK    1  A    between atoms: C_3  and  C_10
REMARK                            x       y       z     vdW  Elec       q    Type
REMARK                         _______ _______ _______ _____ _____    ______ ____
ROOT
ATOM      1  O   UNL     1     -18.510 -16.126  -6.508  0.00  0.00    +0.000 OA
ATOM      2  O   UNL     1     -15.095 -17.419  -2.557  0.00  0.00    +0.000 OA
ATOM      3  C   UNL     1     -16.628 -15.431  -5.156  0.00  0.00    +0.000 C 
ATOM      4  C   UNL     1     -17.710 -16.361  -5.623  0.00  0.00    +0.000 C 
ATOM      5  C   UNL     1     -15.930 -15.968  -4.187  0.00  0.00    +0.000 C 
ATOM      6  C   UNL     1     -17.021 -18.162  -3.924  0.00  0.00    +0.000 C 
ATOM      7  C   UNL     1     -15.913 -17.225  -3.435  0.00  0.00    +0.000 C 
ATOM      8  C   UNL     1     -17.713 -17.620  -4.889  0.00  0.00    +0.000 C 
ATOM      9  C   UNL     1     -17.315 -19.531  -3.402  0.00  0.00    +0.000 C 
ENDROOT
BRANCH   3  10
ATOM     10  C   UNL     1     -16.467 -14.146  -5.751  0.00  0.00    +0.000 C 
ATOM     11  C   UNL     1     -17.088 -12.924  -5.119  0.00  0.00    +0.000 C 
ATOM     12  C   UNL     1     -15.363 -13.895  -6.749  0.00  0.00    +0.000 C 
ENDBRANCH   3  10
TORSDOF 1
ENDMDL
