MODEL 1
REMARK VINA RESULT:      -5.6      0.000      0.000
REMARK  Name = 10288191_Binimetinib.pdbqt.pdb
REMARK  6 active torsions:
REMARK  status: ('A' for Active; 'I' for Inactive)
REMARK    1  A    between atoms: C_6  and  N_21
REMARK    2  A    between atoms: C_7  and  C_14
REMARK    3  A    between atoms: N_13  and  O_16
REMARK    4  A    between atoms: O_16  and  C_17
REMARK    5  A    between atoms: C_18  and  O_19
REMARK    6  A    between atoms: N_21  and  C_25
REMARK                            x       y       z     vdW  Elec       q    Type
REMARK                         _______ _______ _______ _____ _____    ______ ____
ROOT
ATOM      1  F   UNL     1      -8.243 -32.604  -3.914  0.00  0.00    +0.000 F 
ATOM      2  N   UNL     1      -8.792 -32.966   0.557  0.00  0.00    +0.000 N 
ATOM      3  N   UNL     1      -9.302 -31.844  -1.273  0.00  0.00    +0.000 NA
ATOM      4  C   UNL     1      -8.144 -33.631  -0.442  0.00  0.00    +0.000 A 
ATOM      5  C   UNL     1      -8.481 -32.912  -1.585  0.00  0.00    +0.000 A 
ATOM      6  C   UNL     1      -7.133 -34.476  -2.918  0.00  0.00    +0.000 A 
ATOM      7  C   UNL     1      -6.808 -35.166  -1.721  0.00  0.00    +0.000 A 
ATOM      8  C   UNL     1      -7.309 -34.750  -0.474  0.00  0.00    +0.000 A 
ATOM      9  C   UNL     1      -7.969 -33.338  -2.826  0.00  0.00    +0.000 A 
ATOM     10  C   UNL     1      -9.472 -31.908   0.034  0.00  0.00    +0.000 A 
ATOM     11  C   UNL     1      -8.782 -33.327   1.936  0.00  0.00    +0.000 C 
ENDROOT
BRANCH   7  14
ATOM     12  O   UNL     1      -6.149 -37.312  -2.449  0.00  0.00    +0.000 OA
ATOM     13  N   UNL     1      -4.786 -36.280  -0.904  0.00  0.00    +0.000 N 
ATOM     14  C   UNL     1      -5.890 -36.350  -1.729  0.00  0.00    +0.000 C 
ATOM     15  H   UNL     1      -4.769 -35.687  -0.084  0.00  0.00    +0.000 HD
BRANCH  13  16
ATOM     16  O   UNL     1      -4.121 -37.514  -0.735  0.00  0.00    +0.000 OA
BRANCH  16  17
ATOM     17  C   UNL     1      -2.944 -37.230  -0.181  0.00  0.00    +0.000 C 
ATOM     18  C   UNL     1      -1.590 -36.891   0.452  0.00  0.00    +0.000 C 
BRANCH  18  19
ATOM     19  O   UNL     1      -0.418 -36.589   1.000  0.00  0.00    +0.000 OA
ATOM     20  H   UNL     1       0.243 -37.263   0.769  0.00  0.00    +0.000 HD
ENDBRANCH  18  19
ENDBRANCH  16  17
ENDBRANCH  13  16
ENDBRANCH   7  14
BRANCH   6  21
ATOM     21  N   UNL     1      -6.651 -34.943  -4.169  0.00  0.00    +0.000 N 
ATOM     22  H   UNL     1      -7.215 -35.714  -4.560  0.00  0.00    +0.000 HD
BRANCH  21  25
ATOM     23 BR   UNL     1      -3.230 -32.052  -8.307  0.00  0.00    +0.000 Br
ATOM     24  F   UNL     1      -4.101 -34.057  -3.605  0.00  0.00    +0.000 F 
ATOM     25  C   UNL     1      -5.872 -34.313  -5.162  0.00  0.00    +0.000 A 
ATOM     26  C   UNL     1      -4.587 -33.847  -4.839  0.00  0.00    +0.000 A 
ATOM     27  C   UNL     1      -6.344 -34.055  -6.450  0.00  0.00    +0.000 A 
ATOM     28  C   UNL     1      -3.791 -33.177  -5.763  0.00  0.00    +0.000 A 
ATOM     29  C   UNL     1      -5.561 -33.386  -7.391  0.00  0.00    +0.000 A 
ATOM     30  C   UNL     1      -4.289 -32.953  -7.038  0.00  0.00    +0.000 A 
ENDBRANCH  21  25
ENDBRANCH   6  21
TORSDOF 6
ENDMDL
MODEL 2
REMARK VINA RESULT:      -5.5      3.117      5.839
REMARK  Name = 10288191_Binimetinib.pdbqt.pdb
REMARK  6 active torsions:
REMARK  status: ('A' for Active; 'I' for Inactive)
REMARK    1  A    between atoms: C_6  and  N_21
REMARK    2  A    between atoms: C_7  and  C_14
REMARK    3  A    between atoms: N_13  and  O_16
REMARK    4  A    between atoms: O_16  and  C_17
REMARK    5  A    between atoms: C_18  and  O_19
REMARK    6  A    between atoms: N_21  and  C_25
REMARK                            x       y       z     vdW  Elec       q    Type
REMARK                         _______ _______ _______ _____ _____    ______ ____
ROOT
ATOM      1  F   UNL     1      -1.533 -35.725  -4.239  0.00  0.00    +0.000 F 
ATOM      2  N   UNL     1      -3.852 -37.777  -0.946  0.00  0.00    +0.000 N 
ATOM      3  N   UNL     1      -1.901 -37.545  -1.953  0.00  0.00    +0.000 NA
ATOM      4  C   UNL     1      -4.077 -36.844  -1.917  0.00  0.00    +0.000 A 
ATOM      5  C   UNL     1      -2.838 -36.709  -2.535  0.00  0.00    +0.000 A 
ATOM      6  C   UNL     1      -3.817 -35.036  -4.045  0.00  0.00    +0.000 A 
ATOM      7  C   UNL     1      -5.063 -35.221  -3.390  0.00  0.00    +0.000 A 
ATOM      8  C   UNL     1      -5.204 -36.126  -2.321  0.00  0.00    +0.000 A 
ATOM      9  C   UNL     1      -2.713 -35.802  -3.604  0.00  0.00    +0.000 A 
ATOM     10  C   UNL     1      -2.550 -38.175  -0.992  0.00  0.00    +0.000 A 
ATOM     11  C   UNL     1      -4.818 -38.251  -0.012  0.00  0.00    +0.000 C 
ENDROOT
BRANCH   7  14
ATOM     12  O   UNL     1      -6.918 -34.879  -4.808  0.00  0.00    +0.000 OA
ATOM     13  N   UNL     1      -6.643 -33.376  -3.084  0.00  0.00    +0.000 N 
ATOM     14  C   UNL     1      -6.291 -34.483  -3.829  0.00  0.00    +0.000 C 
ATOM     15  H   UNL     1      -5.963 -32.861  -2.538  0.00  0.00    +0.000 HD
BRANCH  13  16
ATOM     16  O   UNL     1      -7.622 -32.564  -3.698  0.00  0.00    +0.000 OA
BRANCH  16  17
ATOM     17  C   UNL     1      -8.436 -32.162  -2.724  0.00  0.00    +0.000 C 
ATOM     18  C   UNL     1      -9.384 -31.701  -1.612  0.00  0.00    +0.000 C 
BRANCH  18  19
ATOM     19  O   UNL     1     -10.212 -31.303  -0.652  0.00  0.00    +0.000 OA
ATOM     20  H   UNL     1     -11.119 -31.237  -0.999  0.00  0.00    +0.000 HD
ENDBRANCH  18  19
ENDBRANCH  16  17
ENDBRANCH  13  16
ENDBRANCH   7  14
BRANCH   6  21
ATOM     21  N   UNL     1      -3.690 -34.084  -5.090  0.00  0.00    +0.000 N 
ATOM     22  H   UNL     1      -3.185 -33.232  -4.804  0.00  0.00    +0.000 HD
BRANCH  21  25
ATOM     23 BR   UNL     1      -4.007 -34.751 -11.143  0.00  0.00    +0.000 Br
ATOM     24  F   UNL     1      -5.541 -32.730  -6.621  0.00  0.00    +0.000 F 
ATOM     25  C   UNL     1      -3.710 -34.232  -6.493  0.00  0.00    +0.000 A 
ATOM     26  C   UNL     1      -4.681 -33.551  -7.245  0.00  0.00    +0.000 A 
ATOM     27  C   UNL     1      -2.849 -35.090  -7.180  0.00  0.00    +0.000 A 
ATOM     28  C   UNL     1      -4.779 -33.693  -8.626  0.00  0.00    +0.000 A 
ATOM     29  C   UNL     1      -2.931 -35.246  -8.564  0.00  0.00    +0.000 A 
ATOM     30  C   UNL     1      -3.896 -34.544  -9.276  0.00  0.00    +0.000 A 
ENDBRANCH  21  25
ENDBRANCH   6  21
TORSDOF 6
ENDMDL
MODEL 3
REMARK VINA RESULT:      -5.3     18.826     21.024
REMARK  Name = 10288191_Binimetinib.pdbqt.pdb
REMARK  6 active torsions:
REMARK  status: ('A' for Active; 'I' for Inactive)
REMARK    1  A    between atoms: C_6  and  N_21
REMARK    2  A    between atoms: C_7  and  C_14
REMARK    3  A    between atoms: N_13  and  O_16
REMARK    4  A    between atoms: O_16  and  C_17
REMARK    5  A    between atoms: C_18  and  O_19
REMARK    6  A    between atoms: N_21  and  C_25
REMARK                            x       y       z     vdW  Elec       q    Type
REMARK                         _______ _______ _______ _____ _____    ______ ____
ROOT
ATOM      1  F   UNL     1     -15.256 -17.596  -1.936  0.00  0.00    +0.000 F 
ATOM      2  N   UNL     1     -17.862 -21.267  -1.531  0.00  0.00    +0.000 N 
ATOM      3  N   UNL     1     -16.338 -19.980  -0.587  0.00  0.00    +0.000 NA
ATOM      4  C   UNL     1     -17.645 -20.272  -2.440  0.00  0.00    +0.000 A 
ATOM      5  C   UNL     1     -16.687 -19.471  -1.825  0.00  0.00    +0.000 A 
ATOM      6  C   UNL     1     -16.727 -17.988  -3.784  0.00  0.00    +0.000 A 
ATOM      7  C   UNL     1     -17.692 -18.846  -4.374  0.00  0.00    +0.000 A 
ATOM      8  C   UNL     1     -18.160 -19.994  -3.708  0.00  0.00    +0.000 A 
ATOM      9  C   UNL     1     -16.227 -18.327  -2.505  0.00  0.00    +0.000 A 
ATOM     10  C   UNL     1     -17.072 -21.067  -0.440  0.00  0.00    +0.000 A 
ATOM     11  C   UNL     1     -18.787 -22.341  -1.684  0.00  0.00    +0.000 C 
ENDROOT
BRANCH   7  14
ATOM     12  O   UNL     1     -19.278 -17.947  -5.873  0.00  0.00    +0.000 OA
ATOM     13  N   UNL     1     -17.503 -19.085  -6.803  0.00  0.00    +0.000 N 
ATOM     14  C   UNL     1     -18.234 -18.582  -5.745  0.00  0.00    +0.000 C 
ATOM     15  H   UNL     1     -16.882 -19.877  -6.695  0.00  0.00    +0.000 HD
BRANCH  13  16
ATOM     16  O   UNL     1     -18.192 -19.058  -8.035  0.00  0.00    +0.000 OA
BRANCH  16  17
ATOM     17  C   UNL     1     -17.275 -18.819  -8.970  0.00  0.00    +0.000 C 
ATOM     18  C   UNL     1     -16.228 -18.549 -10.056  0.00  0.00    +0.000 C 
BRANCH  18  19
ATOM     19  O   UNL     1     -15.326 -18.316 -11.003  0.00  0.00    +0.000 OA
ATOM     20  H   UNL     1     -15.202 -19.109 -11.550  0.00  0.00    +0.000 HD
ENDBRANCH  18  19
ENDBRANCH  16  17
ENDBRANCH  13  16
ENDBRANCH   7  14
BRANCH   6  21
ATOM     21  N   UNL     1     -16.306 -16.812  -4.457  0.00  0.00    +0.000 N 
ATOM     22  H   UNL     1     -15.741 -17.005  -5.299  0.00  0.00    +0.000 HD
BRANCH  21  25
ATOM     23 BR   UNL     1     -18.409 -11.088  -4.506  0.00  0.00    +0.000 Br
ATOM     24  F   UNL     1     -15.050 -14.798  -5.862  0.00  0.00    +0.000 F 
ATOM     25  C   UNL     1     -16.842 -15.507  -4.479  0.00  0.00    +0.000 A 
ATOM     26  C   UNL     1     -16.166 -14.494  -5.180  0.00  0.00    +0.000 A 
ATOM     27  C   UNL     1     -17.987 -15.142  -3.768  0.00  0.00    +0.000 A 
ATOM     28  C   UNL     1     -16.621 -13.180  -5.199  0.00  0.00    +0.000 A 
ATOM     29  C   UNL     1     -18.460 -13.830  -3.775  0.00  0.00    +0.000 A 
ATOM     30  C   UNL     1     -17.772 -12.859  -4.493  0.00  0.00    +0.000 A 
ENDBRANCH  21  25
ENDBRANCH   6  21
TORSDOF 6
ENDMDL
MODEL 4
REMARK VINA RESULT:      -5.2      5.509      8.594
REMARK  Name = 10288191_Binimetinib.pdbqt.pdb
REMARK  6 active torsions:
REMARK  status: ('A' for Active; 'I' for Inactive)
REMARK    1  A    between atoms: C_6  and  N_21
REMARK    2  A    between atoms: C_7  and  C_14
REMARK    3  A    between atoms: N_13  and  O_16
REMARK    4  A    between atoms: O_16  and  C_17
REMARK    5  A    between atoms: C_18  and  O_19
REMARK    6  A    between atoms: N_21  and  C_25
REMARK                            x       y       z     vdW  Elec       q    Type
REMARK                         _______ _______ _______ _____ _____    ______ ____
ROOT
ATOM      1  F   UNL     1      -2.311 -33.655  -6.582  0.00  0.00    +0.000 F 
ATOM      2  N   UNL     1      -6.432 -34.766  -5.095  0.00  0.00    +0.000 N 
ATOM      3  N   UNL     1      -4.399 -34.102  -4.553  0.00  0.00    +0.000 NA
ATOM      4  C   UNL     1      -5.782 -34.647  -6.289  0.00  0.00    +0.000 A 
ATOM      5  C   UNL     1      -4.507 -34.224  -5.926  0.00  0.00    +0.000 A 
ATOM      6  C   UNL     1      -3.886 -34.188  -8.304  0.00  0.00    +0.000 A 
ATOM      7  C   UNL     1      -5.196 -34.633  -8.620  0.00  0.00    +0.000 A 
ATOM      8  C   UNL     1      -6.155 -34.867  -7.617  0.00  0.00    +0.000 A 
ATOM      9  C   UNL     1      -3.557 -33.998  -6.941  0.00  0.00    +0.000 A 
ATOM     10  C   UNL     1      -5.585 -34.436  -4.081  0.00  0.00    +0.000 A 
ATOM     11  C   UNL     1      -7.793 -35.155  -4.928  0.00  0.00    +0.000 C 
ENDROOT
BRANCH   7  14
ATOM     12  O   UNL     1      -5.828 -36.059 -10.391  0.00  0.00    +0.000 OA
ATOM     13  N   UNL     1      -5.707 -33.808 -10.868  0.00  0.00    +0.000 N 
ATOM     14  C   UNL     1      -5.606 -34.904 -10.035  0.00  0.00    +0.000 C 
ATOM     15  H   UNL     1      -5.196 -32.952 -10.689  0.00  0.00    +0.000 HD
BRANCH  13  16
ATOM     16  O   UNL     1      -5.814 -34.139 -12.236  0.00  0.00    +0.000 OA
BRANCH  16  17
ATOM     17  C   UNL     1      -7.014 -33.717 -12.629  0.00  0.00    +0.000 C 
ATOM     18  C   UNL     1      -8.389 -33.224 -13.091  0.00  0.00    +0.000 C 
BRANCH  18  19
ATOM     19  O   UNL     1      -9.578 -32.793 -13.499  0.00  0.00    +0.000 OA
ATOM     20  H   UNL     1      -9.665 -31.840 -13.329  0.00  0.00    +0.000 HD
ENDBRANCH  18  19
ENDBRANCH  16  17
ENDBRANCH  13  16
ENDBRANCH   7  14
BRANCH   6  21
ATOM     21  N   UNL     1      -2.952 -33.916  -9.337  0.00  0.00    +0.000 N 
ATOM     22  H   UNL     1      -3.072 -32.982  -9.758  0.00  0.00    +0.000 HD
BRANCH  21  25
ATOM     23 BR   UNL     1       2.597 -36.071 -10.662  0.00  0.00    +0.000 Br
ATOM     24  F   UNL     1      -0.906 -32.277 -10.195  0.00  0.00    +0.000 F 
ATOM     25  C   UNL     1      -1.669 -34.442  -9.596  0.00  0.00    +0.000 A 
ATOM     26  C   UNL     1      -0.653 -33.589 -10.058  0.00  0.00    +0.000 A 
ATOM     27  C   UNL     1      -1.367 -35.801  -9.489  0.00  0.00    +0.000 A 
ATOM     28  C   UNL     1       0.618 -34.058 -10.376  0.00  0.00    +0.000 A 
ATOM     29  C   UNL     1      -0.099 -36.291  -9.801  0.00  0.00    +0.000 A 
ATOM     30  C   UNL     1       0.884 -35.413 -10.242  0.00  0.00    +0.000 A 
ENDBRANCH  21  25
ENDBRANCH   6  21
TORSDOF 6
ENDMDL
MODEL 5
REMARK VINA RESULT:      -5.2      3.926      7.384
REMARK  Name = 10288191_Binimetinib.pdbqt.pdb
REMARK  6 active torsions:
REMARK  status: ('A' for Active; 'I' for Inactive)
REMARK    1  A    between atoms: C_6  and  N_21
REMARK    2  A    between atoms: C_7  and  C_14
REMARK    3  A    between atoms: N_13  and  O_16
REMARK    4  A    between atoms: O_16  and  C_17
REMARK    5  A    between atoms: C_18  and  O_19
REMARK    6  A    between atoms: N_21  and  C_25
REMARK                            x       y       z     vdW  Elec       q    Type
REMARK                         _______ _______ _______ _____ _____    ______ ____
ROOT
ATOM      1  F   UNL     1      -4.614 -37.301  -1.025  0.00  0.00    +0.000 F 
ATOM      2  N   UNL     1      -0.967 -39.148  -2.952  0.00  0.00    +0.000 N 
ATOM      3  N   UNL     1      -2.535 -39.350  -1.412  0.00  0.00    +0.000 NA
ATOM      4  C   UNL     1      -1.740 -38.033  -3.104  0.00  0.00    +0.000 A 
ATOM      5  C   UNL     1      -2.722 -38.182  -2.129  0.00  0.00    +0.000 A 
ATOM      6  C   UNL     1      -3.713 -36.055  -2.859  0.00  0.00    +0.000 A 
ATOM      7  C   UNL     1      -2.680 -35.943  -3.827  0.00  0.00    +0.000 A 
ATOM      8  C   UNL     1      -1.686 -36.930  -3.958  0.00  0.00    +0.000 A 
ATOM      9  C   UNL     1      -3.709 -37.185  -2.008  0.00  0.00    +0.000 A 
ATOM     10  C   UNL     1      -1.463 -39.911  -1.939  0.00  0.00    +0.000 A 
ATOM     11  C   UNL     1       0.173 -39.478  -3.741  0.00  0.00    +0.000 C 
ENDROOT
BRANCH   7  14
ATOM     12  O   UNL     1      -2.382 -33.641  -4.252  0.00  0.00    +0.000 OA
ATOM     13  N   UNL     1      -2.745 -34.992  -6.083  0.00  0.00    +0.000 N 
ATOM     14  C   UNL     1      -2.587 -34.753  -4.732  0.00  0.00    +0.000 C 
ATOM     15  H   UNL     1      -3.253 -35.797  -6.427  0.00  0.00    +0.000 HD
BRANCH  13  16
ATOM     16  O   UNL     1      -2.932 -33.822  -6.851  0.00  0.00    +0.000 OA
BRANCH  16  17
ATOM     17  C   UNL     1      -4.081 -33.984  -7.503  0.00  0.00    +0.000 C 
ATOM     18  C   UNL     1      -5.410 -34.160  -8.247  0.00  0.00    +0.000 C 
BRANCH  18  19
ATOM     19  O   UNL     1      -6.564 -34.304  -8.889  0.00  0.00    +0.000 OA
ATOM     20  H   UNL     1      -7.307 -34.160  -8.278  0.00  0.00    +0.000 HD
ENDBRANCH  18  19
ENDBRANCH  16  17
ENDBRANCH  13  16
ENDBRANCH   7  14
BRANCH   6  21
ATOM     21  N   UNL     1      -4.730 -35.069  -2.778  0.00  0.00    +0.000 N 
ATOM     22  H   UNL     1      -4.387 -34.115  -2.971  0.00  0.00    +0.000 HD
BRANCH  21  25
ATOM     23 BR   UNL     1     -10.767 -35.310  -3.602  0.00  0.00    +0.000 Br
ATOM     24  F   UNL     1      -5.857 -35.527  -5.253  0.00  0.00    +0.000 F 
ATOM     25  C   UNL     1      -6.130 -35.158  -2.926  0.00  0.00    +0.000 A 
ATOM     26  C   UNL     1      -6.678 -35.365  -4.203  0.00  0.00    +0.000 A 
ATOM     27  C   UNL     1      -7.021 -34.974  -1.867  0.00  0.00    +0.000 A 
ATOM     28  C   UNL     1      -8.051 -35.415  -4.418  0.00  0.00    +0.000 A 
ATOM     29  C   UNL     1      -8.401 -35.022  -2.061  0.00  0.00    +0.000 A 
ATOM     30  C   UNL     1      -8.905 -35.243  -3.337  0.00  0.00    +0.000 A 
ENDBRANCH  21  25
ENDBRANCH   6  21
TORSDOF 6
ENDMDL
MODEL 6
REMARK VINA RESULT:      -5.2     19.728     21.431
REMARK  Name = 10288191_Binimetinib.pdbqt.pdb
REMARK  6 active torsions:
REMARK  status: ('A' for Active; 'I' for Inactive)
REMARK    1  A    between atoms: C_6  and  N_21
REMARK    2  A    between atoms: C_7  and  C_14
REMARK    3  A    between atoms: N_13  and  O_16
REMARK    4  A    between atoms: O_16  and  C_17
REMARK    5  A    between atoms: C_18  and  O_19
REMARK    6  A    between atoms: N_21  and  C_25
REMARK                            x       y       z     vdW  Elec       q    Type
REMARK                         _______ _______ _______ _____ _____    ______ ____
ROOT
ATOM      1  F   UNL     1      -6.046 -20.132 -16.426  0.00  0.00    +0.000 F 
ATOM      2  N   UNL     1      -3.280 -21.991 -19.479  0.00  0.00    +0.000 N 
ATOM      3  N   UNL     1      -5.355 -21.802 -18.752  0.00  0.00    +0.000 NA
ATOM      4  C   UNL     1      -3.195 -21.126 -18.427  0.00  0.00    +0.000 A 
ATOM      5  C   UNL     1      -4.511 -21.018 -17.987  0.00  0.00    +0.000 A 
ATOM      6  C   UNL     1      -3.756 -19.459 -16.242  0.00  0.00    +0.000 A 
ATOM      7  C   UNL     1      -2.429 -19.616 -16.721  0.00  0.00    +0.000 A 
ATOM      8  C   UNL     1      -2.137 -20.450 -17.816  0.00  0.00    +0.000 A 
ATOM      9  C   UNL     1      -4.787 -20.182 -16.888  0.00  0.00    +0.000 A 
ATOM     10  C   UNL     1      -4.575 -22.376 -19.649  0.00  0.00    +0.000 A 
ATOM     11  C   UNL     1      -2.189 -22.415 -20.294  0.00  0.00    +0.000 C 
ENDROOT
BRANCH   7  14
ATOM     12  O   UNL     1      -1.107 -17.721 -16.244  0.00  0.00    +0.000 OA
ATOM     13  N   UNL     1      -0.458 -19.707 -15.272  0.00  0.00    +0.000 N 
ATOM     14  C   UNL     1      -1.276 -18.924 -16.061  0.00  0.00    +0.000 C 
ATOM     15  H   UNL     1      -0.380 -20.707 -15.409  0.00  0.00    +0.000 HD
BRANCH  13  16
ATOM     16  O   UNL     1       0.755 -19.080 -14.911  0.00  0.00    +0.000 OA
BRANCH  16  17
ATOM     17  C   UNL     1       0.880 -19.238 -13.595  0.00  0.00    +0.000 C 
ATOM     18  C   UNL     1       1.025 -19.435 -12.082  0.00  0.00    +0.000 C 
BRANCH  18  19
ATOM     19  O   UNL     1       1.153 -19.613 -10.772  0.00  0.00    +0.000 OA
ATOM     20  H   UNL     1       1.720 -20.382 -10.592  0.00  0.00    +0.000 HD
ENDBRANCH  18  19
ENDBRANCH  16  17
ENDBRANCH  13  16
ENDBRANCH   7  14
BRANCH   6  21
ATOM     21  N   UNL     1      -4.031 -18.577 -15.166  0.00  0.00    +0.000 N 
ATOM     22  H   UNL     1      -3.511 -18.812 -14.305  0.00  0.00    +0.000 HD
BRANCH  21  25
ATOM     23 BR   UNL     1      -5.998 -12.814 -14.847  0.00  0.00    +0.000 Br
ATOM     24  F   UNL     1      -2.663 -16.634 -13.766  0.00  0.00    +0.000 F 
ATOM     25  C   UNL     1      -4.493 -17.245 -15.146  0.00  0.00    +0.000 A 
ATOM     26  C   UNL     1      -3.792 -16.281 -14.402  0.00  0.00    +0.000 A 
ATOM     27  C   UNL     1      -5.672 -16.838 -15.774  0.00  0.00    +0.000 A 
ATOM     28  C   UNL     1      -4.225 -14.962 -14.307  0.00  0.00    +0.000 A 
ATOM     29  C   UNL     1      -6.123 -15.521 -15.691  0.00  0.00    +0.000 A 
ATOM     30  C   UNL     1      -5.394 -14.593 -14.958  0.00  0.00    +0.000 A 
ENDBRANCH  21  25
ENDBRANCH   6  21
TORSDOF 6
ENDMDL
MODEL 7
REMARK VINA RESULT:      -5.1      6.122      9.231
REMARK  Name = 10288191_Binimetinib.pdbqt.pdb
REMARK  6 active torsions:
REMARK  status: ('A' for Active; 'I' for Inactive)
REMARK    1  A    between atoms: C_6  and  N_21
REMARK    2  A    between atoms: C_7  and  C_14
REMARK    3  A    between atoms: N_13  and  O_16
REMARK    4  A    between atoms: O_16  and  C_17
REMARK    5  A    between atoms: C_18  and  O_19
REMARK    6  A    between atoms: N_21  and  C_25
REMARK                            x       y       z     vdW  Elec       q    Type
REMARK                         _______ _______ _______ _____ _____    ______ ____
ROOT
ATOM      1  F   UNL     1      -2.544 -31.958  -8.107  0.00  0.00    +0.000 F 
ATOM      2  N   UNL     1      -6.019 -34.196  -6.277  0.00  0.00    +0.000 N 
ATOM      3  N   UNL     1      -4.509 -32.609  -6.011  0.00  0.00    +0.000 NA
ATOM      4  C   UNL     1      -5.329 -34.180  -7.455  0.00  0.00    +0.000 A 
ATOM      5  C   UNL     1      -4.388 -33.172  -7.268  0.00  0.00    +0.000 A 
ATOM      6  C   UNL     1      -3.544 -33.595  -9.538  0.00  0.00    +0.000 A 
ATOM      7  C   UNL     1      -4.514 -34.623  -9.672  0.00  0.00    +0.000 A 
ATOM      8  C   UNL     1      -5.414 -34.925  -8.633  0.00  0.00    +0.000 A 
ATOM      9  C   UNL     1      -3.492 -32.884  -8.316  0.00  0.00    +0.000 A 
ATOM     10  C   UNL     1      -5.509 -33.252  -5.439  0.00  0.00    +0.000 A 
ATOM     11  C   UNL     1      -7.117 -35.052  -5.972  0.00  0.00    +0.000 C 
ENDROOT
BRANCH   7  14
ATOM     12  O   UNL     1      -3.605 -36.052 -11.316  0.00  0.00    +0.000 OA
ATOM     13  N   UNL     1      -5.828 -35.490 -11.548  0.00  0.00    +0.000 N 
ATOM     14  C   UNL     1      -4.601 -35.454 -10.916  0.00  0.00    +0.000 C 
ATOM     15  H   UNL     1      -6.508 -34.748 -11.437  0.00  0.00    +0.000 HD
BRANCH  13  16
ATOM     16  O   UNL     1      -5.784 -36.042 -12.846  0.00  0.00    +0.000 OA
BRANCH  16  17
ATOM     17  C   UNL     1      -5.915 -35.021 -13.690  0.00  0.00    +0.000 C 
ATOM     18  C   UNL     1      -6.056 -33.837 -14.654  0.00  0.00    +0.000 C 
BRANCH  18  19
ATOM     19  O   UNL     1      -6.173 -32.808 -15.485  0.00  0.00    +0.000 OA
ATOM     20  H   UNL     1      -5.588 -32.929 -16.253  0.00  0.00    +0.000 HD
ENDBRANCH  18  19
ENDBRANCH  16  17
ENDBRANCH  13  16
ENDBRANCH   7  14
BRANCH   6  21
ATOM     21  N   UNL     1      -2.679 -33.280 -10.617  0.00  0.00    +0.000 N 
ATOM     22  H   UNL     1      -3.115 -32.666 -11.322  0.00  0.00    +0.000 HD
BRANCH  21  25
ATOM     23 BR   UNL     1       3.417 -33.257 -10.785  0.00  0.00    +0.000 Br
ATOM     24  F   UNL     1      -1.177 -35.417  -9.730  0.00  0.00    +0.000 F 
ATOM     25  C   UNL     1      -1.271 -33.257 -10.707  0.00  0.00    +0.000 A 
ATOM     26  C   UNL     1      -0.530 -34.348 -10.223  0.00  0.00    +0.000 A 
ATOM     27  C   UNL     1      -0.556 -32.159 -11.191  0.00  0.00    +0.000 A 
ATOM     28  C   UNL     1       0.861 -34.363 -10.242  0.00  0.00    +0.000 A 
ATOM     29  C   UNL     1       0.838 -32.155 -11.220  0.00  0.00    +0.000 A 
ATOM     30  C   UNL     1       1.535 -33.259 -10.745  0.00  0.00    +0.000 A 
ENDBRANCH  21  25
ENDBRANCH   6  21
TORSDOF 6
ENDMDL
MODEL 8
REMARK VINA RESULT:      -5.0     15.697     18.185
REMARK  Name = 10288191_Binimetinib.pdbqt.pdb
REMARK  6 active torsions:
REMARK  status: ('A' for Active; 'I' for Inactive)
REMARK    1  A    between atoms: C_6  and  N_21
REMARK    2  A    between atoms: C_7  and  C_14
REMARK    3  A    between atoms: N_13  and  O_16
REMARK    4  A    between atoms: O_16  and  C_17
REMARK    5  A    between atoms: C_18  and  O_19
REMARK    6  A    between atoms: N_21  and  C_25
REMARK                            x       y       z     vdW  Elec       q    Type
REMARK                         _______ _______ _______ _____ _____    ______ ____
ROOT
ATOM      1  F   UNL     1     -11.338 -20.852   4.123  0.00  0.00    +0.000 F 
ATOM      2  N   UNL     1     -14.356 -22.969   1.507  0.00  0.00    +0.000 N 
ATOM      3  N   UNL     1     -12.871 -23.162   3.128  0.00  0.00    +0.000 NA
ATOM      4  C   UNL     1     -13.892 -21.699   1.698  0.00  0.00    +0.000 A 
ATOM      5  C   UNL     1     -12.962 -21.843   2.724  0.00  0.00    +0.000 A 
ATOM      6  C   UNL     1     -12.531 -19.425   2.616  0.00  0.00    +0.000 A 
ATOM      7  C   UNL     1     -13.478 -19.336   1.561  0.00  0.00    +0.000 A 
ATOM      8  C   UNL     1     -14.166 -20.471   1.093  0.00  0.00    +0.000 A 
ATOM      9  C   UNL     1     -12.280 -20.698   3.179  0.00  0.00    +0.000 A 
ATOM     10  C   UNL     1     -13.731 -23.816   2.371  0.00  0.00    +0.000 A 
ATOM     11  C   UNL     1     -15.355 -23.353   0.566  0.00  0.00    +0.000 C 
ENDROOT
BRANCH   7  14
ATOM     12  O   UNL     1     -14.350 -17.145   1.493  0.00  0.00    +0.000 OA
ATOM     13  N   UNL     1     -13.337 -17.916  -0.428  0.00  0.00    +0.000 N 
ATOM     14  C   UNL     1     -13.763 -18.033   0.880  0.00  0.00    +0.000 C 
ATOM     15  H   UNL     1     -13.194 -18.725  -1.018  0.00  0.00    +0.000 HD
BRANCH  13  16
ATOM     16  O   UNL     1     -13.874 -16.798  -1.104  0.00  0.00    +0.000 OA
BRANCH  16  17
ATOM     17  C   UNL     1     -14.704 -17.283  -2.025  0.00  0.00    +0.000 C 
ATOM     18  C   UNL     1     -15.654 -17.853  -3.083  0.00  0.00    +0.000 C 
BRANCH  18  19
ATOM     19  O   UNL     1     -16.475 -18.356  -3.999  0.00  0.00    +0.000 OA
ATOM     20  H   UNL     1     -16.980 -17.642  -4.423  0.00  0.00    +0.000 HD
ENDBRANCH  18  19
ENDBRANCH  16  17
ENDBRANCH  13  16
ENDBRANCH   7  14
BRANCH   6  21
ATOM     21  N   UNL     1     -11.884 -18.259   3.100  0.00  0.00    +0.000 N 
ATOM     22  H   UNL     1     -12.191 -17.987   4.047  0.00  0.00    +0.000 HD
BRANCH  21  25
ATOM     23 BR   UNL     1      -6.502 -15.660   1.889  0.00  0.00    +0.000 Br
ATOM     24  F   UNL     1      -9.667 -18.666   4.688  0.00  0.00    +0.000 F 
ATOM     25  C   UNL     1     -10.644 -17.674   2.768  0.00  0.00    +0.000 A 
ATOM     26  C   UNL     1      -9.538 -17.876   3.610  0.00  0.00    +0.000 A 
ATOM     27  C   UNL     1     -10.470 -16.829   1.670  0.00  0.00    +0.000 A 
ATOM     28  C   UNL     1      -8.303 -17.287   3.360  0.00  0.00    +0.000 A 
ATOM     29  C   UNL     1      -9.239 -16.230   1.402  0.00  0.00    +0.000 A 
ATOM     30  C   UNL     1      -8.164 -16.465   2.250  0.00  0.00    +0.000 A 
ENDBRANCH  21  25
ENDBRANCH   6  21
TORSDOF 6
ENDMDL
MODEL 9
REMARK VINA RESULT:      -5.0      4.338      7.120
REMARK  Name = 10288191_Binimetinib.pdbqt.pdb
REMARK  6 active torsions:
REMARK  status: ('A' for Active; 'I' for Inactive)
REMARK    1  A    between atoms: C_6  and  N_21
REMARK    2  A    between atoms: C_7  and  C_14
REMARK    3  A    between atoms: N_13  and  O_16
REMARK    4  A    between atoms: O_16  and  C_17
REMARK    5  A    between atoms: C_18  and  O_19
REMARK    6  A    between atoms: N_21  and  C_25
REMARK                            x       y       z     vdW  Elec       q    Type
REMARK                         _______ _______ _______ _____ _____    ______ ____
ROOT
ATOM      1  F   UNL     1     -10.482 -34.664  -1.695  0.00  0.00    +0.000 F 
ATOM      2  N   UNL     1     -10.387 -37.021  -5.550  0.00  0.00    +0.000 N 
ATOM      3  N   UNL     1     -11.506 -36.557  -3.706  0.00  0.00    +0.000 NA
ATOM      4  C   UNL     1      -9.614 -36.100  -4.905  0.00  0.00    +0.000 A 
ATOM      5  C   UNL     1     -10.337 -35.818  -3.750  0.00  0.00    +0.000 A 
ATOM      6  C   UNL     1      -8.580 -34.234  -3.084  0.00  0.00    +0.000 A 
ATOM      7  C   UNL     1      -7.875 -34.568  -4.269  0.00  0.00    +0.000 A 
ATOM      8  C   UNL     1      -8.384 -35.503  -5.189  0.00  0.00    +0.000 A 
ATOM      9  C   UNL     1      -9.813 -34.883  -2.837  0.00  0.00    +0.000 A 
ATOM     10  C   UNL     1     -11.505 -37.273  -4.814  0.00  0.00    +0.000 A 
ATOM     11  C   UNL     1     -10.088 -37.617  -6.810  0.00  0.00    +0.000 C 
ENDROOT
BRANCH   7  14
ATOM     12  O   UNL     1      -5.623 -34.070  -3.768  0.00  0.00    +0.000 OA
ATOM     13  N   UNL     1      -6.428 -33.301  -5.785  0.00  0.00    +0.000 N 
ATOM     14  C   UNL     1      -6.540 -33.961  -4.578  0.00  0.00    +0.000 C 
ATOM     15  H   UNL     1      -7.234 -32.912  -6.258  0.00  0.00    +0.000 HD
BRANCH  13  16
ATOM     16  O   UNL     1      -5.260 -32.515  -5.898  0.00  0.00    +0.000 OA
BRANCH  16  17
ATOM     17  C   UNL     1      -4.850 -32.638  -7.159  0.00  0.00    +0.000 C 
ATOM     18  C   UNL     1      -4.366 -32.786  -8.606  0.00  0.00    +0.000 C 
BRANCH  18  19
ATOM     19  O   UNL     1      -3.940 -32.919  -9.857  0.00  0.00    +0.000 OA
ATOM     20  H   UNL     1      -4.268 -32.184 -10.402  0.00  0.00    +0.000 HD
ENDBRANCH  18  19
ENDBRANCH  16  17
ENDBRANCH  13  16
ENDBRANCH   7  14
BRANCH   6  21
ATOM     21  N   UNL     1      -8.067 -33.255  -2.195  0.00  0.00    +0.000 N 
ATOM     22  H   UNL     1      -7.372 -32.631  -2.635  0.00  0.00    +0.000 HD
BRANCH  21  25
ATOM     23 BR   UNL     1     -10.448 -31.023   2.956  0.00  0.00    +0.000 Br
ATOM     24  F   UNL     1      -7.492 -34.334   0.277  0.00  0.00    +0.000 F 
ATOM     25  C   UNL     1      -8.604 -32.688  -1.020  0.00  0.00    +0.000 A 
ATOM     26  C   UNL     1      -8.316 -33.275   0.224  0.00  0.00    +0.000 A 
ATOM     27  C   UNL     1      -9.482 -31.602  -1.030  0.00  0.00    +0.000 A 
ATOM     28  C   UNL     1      -8.854 -32.790   1.411  0.00  0.00    +0.000 A 
ATOM     29  C   UNL     1     -10.030 -31.101   0.150  0.00  0.00    +0.000 A 
ATOM     30  C   UNL     1      -9.711 -31.699   1.362  0.00  0.00    +0.000 A 
ENDBRANCH  21  25
ENDBRANCH   6  21
TORSDOF 6
ENDMDL
