MODEL 1
REMARK VINA RESULT:      -5.7      0.000      0.000
REMARK  Name = 10639_Physcion.pdbqt.pdb
REMARK  3 active torsions:
REMARK  status: ('A' for Active; 'I' for Inactive)
REMARK    1  A    between atoms: C_10  and  O_18
REMARK    2  A    between atoms: C_12  and  O_20
REMARK    3  A    between atoms: C_15  and  O_22
REMARK                            x       y       z     vdW  Elec       q    Type
REMARK                         _______ _______ _______ _____ _____    ______ ____
ROOT
ATOM      1  O   UNL     1      -3.294 -33.346  -4.745  0.00  0.00    +0.000 OA
ATOM      2  O   UNL     1      -2.196 -37.559  -7.816  0.00  0.00    +0.000 OA
ATOM      3  C   UNL     1      -2.408 -36.683  -5.659  0.00  0.00    +0.000 A 
ATOM      4  C   UNL     1      -2.696 -35.577  -4.864  0.00  0.00    +0.000 A 
ATOM      5  C   UNL     1      -3.095 -34.175  -6.974  0.00  0.00    +0.000 A 
ATOM      6  C   UNL     1      -2.802 -35.300  -7.745  0.00  0.00    +0.000 A 
ATOM      7  C   UNL     1      -3.049 -34.286  -5.493  0.00  0.00    +0.000 C 
ATOM      8  C   UNL     1      -2.450 -36.584  -7.122  0.00  0.00    +0.000 C 
ATOM      9  C   UNL     1      -2.072 -37.910  -5.082  0.00  0.00    +0.000 A 
ATOM     10  C   UNL     1      -2.643 -35.716  -3.470  0.00  0.00    +0.000 A 
ATOM     11  C   UNL     1      -2.024 -38.032  -3.698  0.00  0.00    +0.000 A 
ATOM     12  C   UNL     1      -3.422 -32.984  -7.636  0.00  0.00    +0.000 A 
ATOM     13  C   UNL     1      -2.832 -35.243  -9.143  0.00  0.00    +0.000 A 
ATOM     14  C   UNL     1      -2.309 -36.939  -2.887  0.00  0.00    +0.000 A 
ATOM     15  C   UNL     1      -3.158 -34.057  -9.794  0.00  0.00    +0.000 A 
ATOM     16  C   UNL     1      -3.452 -32.930  -9.031  0.00  0.00    +0.000 A 
ATOM     17  C   UNL     1      -1.664 -39.350  -3.081  0.00  0.00    +0.000 C 
ENDROOT
BRANCH  10  18
ATOM     18  O   UNL     1      -2.910 -34.688  -2.607  0.00  0.00    +0.000 OA
ATOM     19  H   UNL     1      -2.090 -34.475  -2.102  0.00  0.00    +0.000 HD
ENDBRANCH  10  18
BRANCH  12  20
ATOM     20  O   UNL     1      -3.721 -31.844  -6.948  0.00  0.00    +0.000 OA
ATOM     21  H   UNL     1      -4.479 -32.000  -6.358  0.00  0.00    +0.000 HD
ENDBRANCH  12  20
BRANCH  15  22
ATOM     22  O   UNL     1      -3.160 -34.106 -11.166  0.00  0.00    +0.000 OA
ATOM     23  C   UNL     1      -2.227 -34.988 -11.730  0.00  0.00    +0.000 C 
ENDBRANCH  15  22
TORSDOF 3
ENDMDL
MODEL 2
REMARK VINA RESULT:      -5.7      2.728      4.308
REMARK  Name = 10639_Physcion.pdbqt.pdb
REMARK  3 active torsions:
REMARK  status: ('A' for Active; 'I' for Inactive)
REMARK    1  A    between atoms: C_10  and  O_18
REMARK    2  A    between atoms: C_12  and  O_20
REMARK    3  A    between atoms: C_15  and  O_22
REMARK                            x       y       z     vdW  Elec       q    Type
REMARK                         _______ _______ _______ _____ _____    ______ ____
ROOT
ATOM      1  O   UNL     1      -2.849 -36.612  -7.510  0.00  0.00    +0.000 OA
ATOM      2  O   UNL     1      -4.073 -31.429  -7.653  0.00  0.00    +0.000 OA
ATOM      3  C   UNL     1      -4.447 -33.525  -6.689  0.00  0.00    +0.000 A 
ATOM      4  C   UNL     1      -4.121 -34.878  -6.659  0.00  0.00    +0.000 A 
ATOM      5  C   UNL     1      -2.418 -34.502  -8.539  0.00  0.00    +0.000 A 
ATOM      6  C   UNL     1      -2.765 -33.150  -8.547  0.00  0.00    +0.000 A 
ATOM      7  C   UNL     1      -3.096 -35.413  -7.582  0.00  0.00    +0.000 C 
ATOM      8  C   UNL     1      -3.783 -32.617  -7.631  0.00  0.00    +0.000 C 
ATOM      9  C   UNL     1      -5.412 -33.003  -5.825  0.00  0.00    +0.000 A 
ATOM     10  C   UNL     1      -4.780 -35.710  -5.743  0.00  0.00    +0.000 A 
ATOM     11  C   UNL     1      -6.056 -33.841  -4.922  0.00  0.00    +0.000 A 
ATOM     12  C   UNL     1      -1.439 -34.940  -9.441  0.00  0.00    +0.000 A 
ATOM     13  C   UNL     1      -2.153 -32.254  -9.431  0.00  0.00    +0.000 A 
ATOM     14  C   UNL     1      -5.745 -35.196  -4.876  0.00  0.00    +0.000 A 
ATOM     15  C   UNL     1      -1.182 -32.696 -10.324  0.00  0.00    +0.000 A 
ATOM     16  C   UNL     1      -0.830 -34.044 -10.322  0.00  0.00    +0.000 A 
ATOM     17  C   UNL     1      -7.092 -33.278  -3.995  0.00  0.00    +0.000 C 
ENDROOT
BRANCH  10  18
ATOM     18  O   UNL     1      -4.528 -37.052  -5.638  0.00  0.00    +0.000 OA
ATOM     19  H   UNL     1      -4.923 -37.386  -4.799  0.00  0.00    +0.000 HD
ENDBRANCH  10  18
BRANCH  12  20
ATOM     20  O   UNL     1      -1.048 -36.247  -9.491  0.00  0.00    +0.000 OA
ATOM     21  H   UNL     1      -1.776 -36.799  -9.828  0.00  0.00    +0.000 HD
ENDBRANCH  12  20
BRANCH  15  22
ATOM     22  O   UNL     1      -0.644 -31.740 -11.148  0.00  0.00    +0.000 OA
ATOM     23  C   UNL     1      -0.266 -32.195 -12.419  0.00  0.00    +0.000 C 
ENDBRANCH  15  22
TORSDOF 3
ENDMDL
MODEL 3
REMARK VINA RESULT:      -5.2      3.132      6.928
REMARK  Name = 10639_Physcion.pdbqt.pdb
REMARK  3 active torsions:
REMARK  status: ('A' for Active; 'I' for Inactive)
REMARK    1  A    between atoms: C_10  and  O_18
REMARK    2  A    between atoms: C_12  and  O_20
REMARK    3  A    between atoms: C_15  and  O_22
REMARK                            x       y       z     vdW  Elec       q    Type
REMARK                         _______ _______ _______ _____ _____    ______ ____
ROOT
ATOM      1  O   UNL     1      -6.859 -35.890  -3.518  0.00  0.00    +0.000 OA
ATOM      2  O   UNL     1      -1.714 -34.708  -4.233  0.00  0.00    +0.000 OA
ATOM      3  C   UNL     1      -3.927 -34.410  -4.922  0.00  0.00    +0.000 A 
ATOM      4  C   UNL     1      -5.270 -34.725  -4.728  0.00  0.00    +0.000 A 
ATOM      5  C   UNL     1      -4.622 -36.240  -2.763  0.00  0.00    +0.000 A 
ATOM      6  C   UNL     1      -3.285 -35.907  -2.981  0.00  0.00    +0.000 A 
ATOM      7  C   UNL     1      -5.664 -35.650  -3.644  0.00  0.00    +0.000 C 
ATOM      8  C   UNL     1      -2.891 -34.988  -4.059  0.00  0.00    +0.000 C 
ATOM      9  C   UNL     1      -3.538 -33.538  -5.942  0.00  0.00    +0.000 A 
ATOM     10  C   UNL     1      -6.226 -34.150  -5.577  0.00  0.00    +0.000 A 
ATOM     11  C   UNL     1      -4.499 -32.976  -6.775  0.00  0.00    +0.000 A 
ATOM     12  C   UNL     1      -4.923 -37.123  -1.718  0.00  0.00    +0.000 A 
ATOM     13  C   UNL     1      -2.269 -36.438  -2.178  0.00  0.00    +0.000 A 
ATOM     14  C   UNL     1      -5.844 -33.278  -6.597  0.00  0.00    +0.000 A 
ATOM     15  C   UNL     1      -2.576 -37.314  -1.141  0.00  0.00    +0.000 A 
ATOM     16  C   UNL     1      -3.909 -37.652  -0.917  0.00  0.00    +0.000 A 
ATOM     17  C   UNL     1      -4.078 -32.041  -7.868  0.00  0.00    +0.000 C 
ENDROOT
BRANCH  10  18
ATOM     18  O   UNL     1      -7.568 -34.398  -5.465  0.00  0.00    +0.000 OA
ATOM     19  H   UNL     1      -7.876 -34.860  -6.281  0.00  0.00    +0.000 HD
ENDBRANCH  10  18
BRANCH  12  20
ATOM     20  O   UNL     1      -6.208 -37.495  -1.445  0.00  0.00    +0.000 OA
ATOM     21  H   UNL     1      -6.459 -37.196  -0.553  0.00  0.00    +0.000 HD
ENDBRANCH  12  20
BRANCH  15  22
ATOM     22  O   UNL     1      -1.510 -37.778  -0.413  0.00  0.00    +0.000 OA
ATOM     23  C   UNL     1      -1.417 -37.274   0.892  0.00  0.00    +0.000 C 
ENDBRANCH  15  22
TORSDOF 3
ENDMDL
MODEL 4
REMARK VINA RESULT:      -5.1     19.333     22.623
REMARK  Name = 10639_Physcion.pdbqt.pdb
REMARK  3 active torsions:
REMARK  status: ('A' for Active; 'I' for Inactive)
REMARK    1  A    between atoms: C_10  and  O_18
REMARK    2  A    between atoms: C_12  and  O_20
REMARK    3  A    between atoms: C_15  and  O_22
REMARK                            x       y       z     vdW  Elec       q    Type
REMARK                         _______ _______ _______ _____ _____    ______ ____
ROOT
ATOM      1  O   UNL     1      -5.073 -14.020 -15.039  0.00  0.00    +0.000 OA
ATOM      2  O   UNL     1      -9.225 -17.301 -15.654  0.00  0.00    +0.000 OA
ATOM      3  C   UNL     1      -6.907 -17.007 -15.723  0.00  0.00    +0.000 A 
ATOM      4  C   UNL     1      -5.828 -16.142 -15.560  0.00  0.00    +0.000 A 
ATOM      5  C   UNL     1      -7.446 -14.249 -14.950  0.00  0.00    +0.000 A 
ATOM      6  C   UNL     1      -8.509 -15.138 -15.120  0.00  0.00    +0.000 A 
ATOM      7  C   UNL     1      -6.059 -14.735 -15.169  0.00  0.00    +0.000 C 
ATOM      8  C   UNL     1      -8.280 -16.537 -15.510  0.00  0.00    +0.000 C 
ATOM      9  C   UNL     1      -6.706 -18.339 -16.092  0.00  0.00    +0.000 A 
ATOM     10  C   UNL     1      -4.532 -16.634 -15.774  0.00  0.00    +0.000 A 
ATOM     11  C   UNL     1      -5.415 -18.811 -16.300  0.00  0.00    +0.000 A 
ATOM     12  C   UNL     1      -7.739 -12.931 -14.579  0.00  0.00    +0.000 A 
ATOM     13  C   UNL     1      -9.832 -14.726 -14.926  0.00  0.00    +0.000 A 
ATOM     14  C   UNL     1      -4.324 -17.963 -16.143  0.00  0.00    +0.000 A 
ATOM     15  C   UNL     1     -10.115 -13.415 -14.557  0.00  0.00    +0.000 A 
ATOM     16  C   UNL     1      -9.060 -12.521 -14.385  0.00  0.00    +0.000 A 
ATOM     17  C   UNL     1      -5.202 -20.241 -16.696  0.00  0.00    +0.000 C 
ENDROOT
BRANCH  10  18
ATOM     18  O   UNL     1      -3.409 -15.862 -15.639  0.00  0.00    +0.000 OA
ATOM     19  H   UNL     1      -3.682 -14.934 -15.445  0.00  0.00    +0.000 HD
ENDBRANCH  10  18
BRANCH  12  20
ATOM     20  O   UNL     1      -6.753 -12.005 -14.394  0.00  0.00    +0.000 OA
ATOM     21  H   UNL     1      -5.901 -12.359 -14.708  0.00  0.00    +0.000 HD
ENDBRANCH  12  20
BRANCH  15  22
ATOM     22  O   UNL     1     -11.443 -13.111 -14.391  0.00  0.00    +0.000 OA
ATOM     23  C   UNL     1     -11.707 -11.788 -14.012  0.00  0.00    +0.000 C 
ENDBRANCH  15  22
TORSDOF 3
ENDMDL
MODEL 5
REMARK VINA RESULT:      -5.1     18.674     22.250
REMARK  Name = 10639_Physcion.pdbqt.pdb
REMARK  3 active torsions:
REMARK  status: ('A' for Active; 'I' for Inactive)
REMARK    1  A    between atoms: C_10  and  O_18
REMARK    2  A    between atoms: C_12  and  O_20
REMARK    3  A    between atoms: C_15  and  O_22
REMARK                            x       y       z     vdW  Elec       q    Type
REMARK                         _______ _______ _______ _____ _____    ______ ____
ROOT
ATOM      1  O   UNL     1      -4.964 -14.090 -15.006  0.00  0.00    +0.000 OA
ATOM      2  O   UNL     1      -8.981 -17.512 -15.736  0.00  0.00    +0.000 OA
ATOM      3  C   UNL     1      -8.305 -15.324 -15.270  0.00  0.00    +0.000 A 
ATOM      4  C   UNL     1      -7.249 -14.436 -15.080  0.00  0.00    +0.000 A 
ATOM      5  C   UNL     1      -5.584 -16.344 -15.484  0.00  0.00    +0.000 A 
ATOM      6  C   UNL     1      -6.662 -17.211 -15.669  0.00  0.00    +0.000 A 
ATOM      7  C   UNL     1      -5.853 -14.915 -15.181  0.00  0.00    +0.000 C 
ATOM      8  C   UNL     1      -8.050 -16.737 -15.570  0.00  0.00    +0.000 C 
ATOM      9  C   UNL     1      -9.629 -14.889 -15.179  0.00  0.00    +0.000 A 
ATOM     10  C   UNL     1      -7.539 -13.094 -14.796  0.00  0.00    +0.000 A 
ATOM     11  C   UNL     1      -9.900 -13.554 -14.895  0.00  0.00    +0.000 A 
ATOM     12  C   UNL     1      -4.288 -16.866 -15.594  0.00  0.00    +0.000 A 
ATOM     13  C   UNL     1      -6.458 -18.565 -15.957  0.00  0.00    +0.000 A 
ATOM     14  C   UNL     1      -8.859 -12.653 -14.703  0.00  0.00    +0.000 A 
ATOM     15  C   UNL     1      -5.168 -19.076 -16.064  0.00  0.00    +0.000 A 
ATOM     16  C   UNL     1      -4.086 -18.217 -15.881  0.00  0.00    +0.000 A 
ATOM     17  C   UNL     1     -11.322 -13.090 -14.798  0.00  0.00    +0.000 C 
ENDROOT
BRANCH  10  18
ATOM     18  O   UNL     1      -6.570 -12.148 -14.594  0.00  0.00    +0.000 OA
ATOM     19  H   UNL     1      -6.990 -11.334 -14.229  0.00  0.00    +0.000 HD
ENDBRANCH  10  18
BRANCH  12  20
ATOM     20  O   UNL     1      -3.186 -16.079 -15.426  0.00  0.00    +0.000 OA
ATOM     21  H   UNL     1      -3.246 -15.597 -14.582  0.00  0.00    +0.000 HD
ENDBRANCH  12  20
BRANCH  15  22
ATOM     22  O   UNL     1      -5.075 -20.415 -16.349  0.00  0.00    +0.000 OA
ATOM     23  C   UNL     1      -5.672 -20.809 -17.554  0.00  0.00    +0.000 C 
ENDBRANCH  15  22
TORSDOF 3
ENDMDL
MODEL 6
REMARK VINA RESULT:      -5.0     17.663     18.579
REMARK  Name = 10639_Physcion.pdbqt.pdb
REMARK  3 active torsions:
REMARK  status: ('A' for Active; 'I' for Inactive)
REMARK    1  A    between atoms: C_10  and  O_18
REMARK    2  A    between atoms: C_12  and  O_20
REMARK    3  A    between atoms: C_15  and  O_22
REMARK                            x       y       z     vdW  Elec       q    Type
REMARK                         _______ _______ _______ _____ _____    ______ ____
ROOT
ATOM      1  O   UNL     1       0.591 -16.298 -12.073  0.00  0.00    +0.000 OA
ATOM      2  O   UNL     1       2.287 -21.008 -13.895  0.00  0.00    +0.000 OA
ATOM      3  C   UNL     1       2.639 -19.198 -12.458  0.00  0.00    +0.000 A 
ATOM      4  C   UNL     1       2.188 -17.968 -11.988  0.00  0.00    +0.000 A 
ATOM      5  C   UNL     1       0.171 -18.113 -13.564  0.00  0.00    +0.000 A 
ATOM      6  C   UNL     1       0.647 -19.344 -14.017  0.00  0.00    +0.000 A 
ATOM      7  C   UNL     1       0.941 -17.383 -12.524  0.00  0.00    +0.000 C 
ATOM      8  C   UNL     1       1.887 -19.927 -13.485  0.00  0.00    +0.000 C 
ATOM      9  C   UNL     1       3.816 -19.765 -11.962  0.00  0.00    +0.000 A 
ATOM     10  C   UNL     1       2.938 -17.305 -11.005  0.00  0.00    +0.000 A 
ATOM     11  C   UNL     1       4.548 -19.096 -10.988  0.00  0.00    +0.000 A 
ATOM     12  C   UNL     1      -1.018 -17.618 -14.116  0.00  0.00    +0.000 A 
ATOM     13  C   UNL     1      -0.043 -20.068 -14.995  0.00  0.00    +0.000 A 
ATOM     14  C   UNL     1       4.115 -17.866 -10.506  0.00  0.00    +0.000 A 
ATOM     15  C   UNL     1      -1.223 -19.571 -15.539  0.00  0.00    +0.000 A 
ATOM     16  C   UNL     1      -1.705 -18.342 -15.093  0.00  0.00    +0.000 A 
ATOM     17  C   UNL     1       5.811 -19.707 -10.458  0.00  0.00    +0.000 C 
ENDROOT
BRANCH  10  18
ATOM     18  O   UNL     1       2.577 -16.093 -10.481  0.00  0.00    +0.000 OA
ATOM     19  H   UNL     1       2.310 -16.219  -9.541  0.00  0.00    +0.000 HD
ENDBRANCH  10  18
BRANCH  12  20
ATOM     20  O   UNL     1      -1.543 -16.422 -13.724  0.00  0.00    +0.000 OA
ATOM     21  H   UNL     1      -0.959 -15.694 -14.001  0.00  0.00    +0.000 HD
ENDBRANCH  12  20
BRANCH  15  22
ATOM     22  O   UNL     1      -1.823 -20.356 -16.492  0.00  0.00    +0.000 OA
ATOM     23  C   UNL     1      -3.225 -20.362 -16.459  0.00  0.00    +0.000 C 
ENDBRANCH  15  22
TORSDOF 3
ENDMDL
MODEL 7
REMARK VINA RESULT:      -5.0      4.007      5.797
REMARK  Name = 10639_Physcion.pdbqt.pdb
REMARK  3 active torsions:
REMARK  status: ('A' for Active; 'I' for Inactive)
REMARK    1  A    between atoms: C_10  and  O_18
REMARK    2  A    between atoms: C_12  and  O_20
REMARK    3  A    between atoms: C_15  and  O_22
REMARK                            x       y       z     vdW  Elec       q    Type
REMARK                         _______ _______ _______ _____ _____    ______ ____
ROOT
ATOM      1  O   UNL     1       0.983 -32.811 -10.617  0.00  0.00    +0.000 OA
ATOM      2  O   UNL     1      -1.389 -37.353  -9.158  0.00  0.00    +0.000 OA
ATOM      3  C   UNL     1       0.557 -36.281  -9.883  0.00  0.00    +0.000 A 
ATOM      4  C   UNL     1       1.169 -35.089 -10.264  0.00  0.00    +0.000 A 
ATOM      5  C   UNL     1      -1.038 -33.842  -9.879  0.00  0.00    +0.000 A 
ATOM      6  C   UNL     1      -1.626 -35.051  -9.503  0.00  0.00    +0.000 A 
ATOM      7  C   UNL     1       0.394 -33.830 -10.275  0.00  0.00    +0.000 C 
ATOM      8  C   UNL     1      -0.856 -36.304  -9.491  0.00  0.00    +0.000 C 
ATOM      9  C   UNL     1       1.275 -37.479  -9.867  0.00  0.00    +0.000 A 
ATOM     10  C   UNL     1       2.522 -35.113 -10.631  0.00  0.00    +0.000 A 
ATOM     11  C   UNL     1       2.616 -37.486 -10.234  0.00  0.00    +0.000 A 
ATOM     12  C   UNL     1      -1.832 -32.688  -9.867  0.00  0.00    +0.000 A 
ATOM     13  C   UNL     1      -2.971 -35.112  -9.123  0.00  0.00    +0.000 A 
ATOM     14  C   UNL     1       3.245 -36.306 -10.617  0.00  0.00    +0.000 A 
ATOM     15  C   UNL     1      -3.753 -33.962  -9.113  0.00  0.00    +0.000 A 
ATOM     16  C   UNL     1      -3.175 -32.751  -9.487  0.00  0.00    +0.000 A 
ATOM     17  C   UNL     1       3.384 -38.774 -10.216  0.00  0.00    +0.000 C 
ENDROOT
BRANCH  10  18
ATOM     18  O   UNL     1       3.210 -33.995 -11.019  0.00  0.00    +0.000 OA
ATOM     19  H   UNL     1       3.171 -33.329 -10.293  0.00  0.00    +0.000 HD
ENDBRANCH  10  18
BRANCH  12  20
ATOM     20  O   UNL     1      -1.328 -31.471 -10.222  0.00  0.00    +0.000 OA
ATOM     21  H   UNL     1      -1.042 -30.985  -9.428  0.00  0.00    +0.000 HD
ENDBRANCH  12  20
BRANCH  15  22
ATOM     22  O   UNL     1      -5.059 -34.127  -8.725  0.00  0.00    +0.000 OA
ATOM     23  C   UNL     1      -5.447 -33.373  -7.608  0.00  0.00    +0.000 C 
ENDBRANCH  15  22
TORSDOF 3
ENDMDL
MODEL 8
REMARK VINA RESULT:      -4.8     12.467     16.801
REMARK  Name = 10639_Physcion.pdbqt.pdb
REMARK  3 active torsions:
REMARK  status: ('A' for Active; 'I' for Inactive)
REMARK    1  A    between atoms: C_10  and  O_18
REMARK    2  A    between atoms: C_12  and  O_20
REMARK    3  A    between atoms: C_15  and  O_22
REMARK                            x       y       z     vdW  Elec       q    Type
REMARK                         _______ _______ _______ _____ _____    ______ ____
ROOT
ATOM      1  O   UNL     1     -11.089 -28.550 -18.965  0.00  0.00    +0.000 OA
ATOM      2  O   UNL     1      -8.469 -24.671 -16.420  0.00  0.00    +0.000 OA
ATOM      3  C   UNL     1      -9.926 -25.274 -18.146  0.00  0.00    +0.000 A 
ATOM      4  C   UNL     1     -10.607 -26.294 -18.805  0.00  0.00    +0.000 A 
ATOM      5  C   UNL     1      -9.596 -28.005 -17.184  0.00  0.00    +0.000 A 
ATOM      6  C   UNL     1      -8.926 -26.962 -16.543  0.00  0.00    +0.000 A 
ATOM      7  C   UNL     1     -10.466 -27.693 -18.348  0.00  0.00    +0.000 C 
ATOM      8  C   UNL     1      -9.065 -25.571 -16.996  0.00  0.00    +0.000 C 
ATOM      9  C   UNL     1     -10.047 -23.947 -18.565  0.00  0.00    +0.000 A 
ATOM     10  C   UNL     1     -11.419 -25.965 -19.900  0.00  0.00    +0.000 A 
ATOM     11  C   UNL     1     -10.857 -23.637 -19.652  0.00  0.00    +0.000 A 
ATOM     12  C   UNL     1      -9.417 -29.306 -16.698  0.00  0.00    +0.000 A 
ATOM     13  C   UNL     1      -8.096 -27.207 -15.443  0.00  0.00    +0.000 A 
ATOM     14  C   UNL     1     -11.545 -24.641 -20.323  0.00  0.00    +0.000 A 
ATOM     15  C   UNL     1      -7.923 -28.502 -14.965  0.00  0.00    +0.000 A 
ATOM     16  C   UNL     1      -8.588 -29.549 -15.600  0.00  0.00    +0.000 A 
ATOM     17  C   UNL     1     -10.985 -22.211 -20.099  0.00  0.00    +0.000 C 
ENDROOT
BRANCH  10  18
ATOM     18  O   UNL     1     -12.126 -26.896 -20.611  0.00  0.00    +0.000 OA
ATOM     19  H   UNL     1     -12.806 -27.299 -20.020  0.00  0.00    +0.000 HD
ENDBRANCH  10  18
BRANCH  12  20
ATOM     20  O   UNL     1     -10.039 -30.376 -17.273  0.00  0.00    +0.000 OA
ATOM     21  H   UNL     1      -9.377 -30.989 -17.640  0.00  0.00    +0.000 HD
ENDBRANCH  12  20
BRANCH  15  22
ATOM     22  O   UNL     1      -7.090 -28.636 -13.883  0.00  0.00    +0.000 OA
ATOM     23  C   UNL     1      -7.124 -29.892 -13.259  0.00  0.00    +0.000 C 
ENDBRANCH  15  22
TORSDOF 3
ENDMDL
MODEL 9
REMARK VINA RESULT:      -4.7      2.635      4.832
REMARK  Name = 10639_Physcion.pdbqt.pdb
REMARK  3 active torsions:
REMARK  status: ('A' for Active; 'I' for Inactive)
REMARK    1  A    between atoms: C_10  and  O_18
REMARK    2  A    between atoms: C_12  and  O_20
REMARK    3  A    between atoms: C_15  and  O_22
REMARK                            x       y       z     vdW  Elec       q    Type
REMARK                         _______ _______ _______ _____ _____    ______ ____
ROOT
ATOM      1  O   UNL     1      -0.571 -34.852 -10.764  0.00  0.00    +0.000 OA
ATOM      2  O   UNL     1      -3.040 -36.861  -6.492  0.00  0.00    +0.000 OA
ATOM      3  C   UNL     1      -1.559 -37.207  -8.267  0.00  0.00    +0.000 A 
ATOM      4  C   UNL     1      -0.919 -36.673  -9.383  0.00  0.00    +0.000 A 
ATOM      5  C   UNL     1      -2.093 -34.430  -8.975  0.00  0.00    +0.000 A 
ATOM      6  C   UNL     1      -2.721 -34.991  -7.862  0.00  0.00    +0.000 A 
ATOM      7  C   UNL     1      -1.163 -35.269  -9.775  0.00  0.00    +0.000 C 
ATOM      8  C   UNL     1      -2.479 -36.388  -7.471  0.00  0.00    +0.000 C 
ATOM      9  C   UNL     1      -1.340 -38.532  -7.883  0.00  0.00    +0.000 A 
ATOM     10  C   UNL     1      -0.047 -37.492 -10.115  0.00  0.00    +0.000 A 
ATOM     11  C   UNL     1      -0.473 -39.330  -8.620  0.00  0.00    +0.000 A 
ATOM     12  C   UNL     1      -2.370 -33.094  -9.288  0.00  0.00    +0.000 A 
ATOM     13  C   UNL     1      -3.604 -34.241  -7.078  0.00  0.00    +0.000 A 
ATOM     14  C   UNL     1       0.176 -38.816  -9.737  0.00  0.00    +0.000 A 
ATOM     15  C   UNL     1      -3.875 -32.914  -7.396  0.00  0.00    +0.000 A 
ATOM     16  C   UNL     1      -3.253 -32.346  -8.505  0.00  0.00    +0.000 A 
ATOM     17  C   UNL     1      -0.240 -40.752  -8.204  0.00  0.00    +0.000 C 
ENDROOT
BRANCH  10  18
ATOM     18  O   UNL     1       0.628 -37.059 -11.225  0.00  0.00    +0.000 OA
ATOM     19  H   UNL     1       1.157 -37.807 -11.588  0.00  0.00    +0.000 HD
ENDBRANCH  10  18
BRANCH  12  20
ATOM     20  O   UNL     1      -1.794 -32.478 -10.361  0.00  0.00    +0.000 OA
ATOM     21  H   UNL     1      -0.826 -32.576 -10.321  0.00  0.00    +0.000 HD
ENDBRANCH  12  20
BRANCH  15  22
ATOM     22  O   UNL     1      -4.755 -32.265  -6.566  0.00  0.00    +0.000 OA
ATOM     23  C   UNL     1      -5.649 -33.099  -5.880  0.00  0.00    +0.000 C 
ENDBRANCH  15  22
TORSDOF 3
ENDMDL
