MODEL 1
REMARK VINA RESULT:      -5.6      0.000      0.000
REMARK  Name = 10940649_MilnamideD.pdbqt.pdb
REMARK  7 active torsions:
REMARK  status: ('A' for Active; 'I' for Inactive)
REMARK    1  A    between atoms: C_3  and  C_8
REMARK    2  A    between atoms: C_22  and  C_25
REMARK    3  A    between atoms: C_22  and  C_38
REMARK    4  A    between atoms: N_24  and  C_27
REMARK    5  A    between atoms: C_27  and  C_28
REMARK    6  A    between atoms: C_32  and  C_35
REMARK    7  A    between atoms: C_35  and  O_36
REMARK                            x       y       z     vdW  Elec       q    Type
REMARK                         _______ _______ _______ _____ _____    ______ ____
ROOT
ATOM      1  O   UNL     1      -6.467 -35.497  -4.414  0.00  0.00    +0.000 OA
ATOM      2  N   UNL     1      -8.204 -36.950  -4.254  0.00  0.00    +0.000 N 
ATOM      3  C   UNL     1      -7.367 -35.979  -3.737  0.00  0.00    +0.000 C 
ATOM      4  H   UNL     1      -8.878 -37.400  -3.624  0.00  0.00    +0.000 HD
ATOM      5  C   UNL     1      -8.161 -37.440  -5.582  0.00  0.00    +0.000 C 
ENDROOT
BRANCH   3   9
ATOM      6  N   UNL     1      -7.356 -36.493  -1.215  0.00  0.00    +0.000 NA
ATOM      7  N   UNL     1      -8.600 -34.020   1.564  0.00  0.00    +0.000 N 
ATOM      8  C   UNL     1      -8.446 -34.246  -2.159  0.00  0.00    +0.000 C 
ATOM      9  C   UNL     1      -7.626 -35.560  -2.322  0.00  0.00    +0.000 C 
ATOM     10  C   UNL     1      -8.659 -33.814  -0.673  0.00  0.00    +0.000 A 
ATOM     11  C   UNL     1      -8.295 -34.616   0.390  0.00  0.00    +0.000 A 
ATOM     12  C   UNL     1      -9.891 -34.454  -2.702  0.00  0.00    +0.000 C 
ATOM     13  C   UNL     1      -7.669 -33.062  -2.805  0.00  0.00    +0.000 C 
ATOM     14  C   UNL     1      -9.245 -32.642  -0.074  0.00  0.00    +0.000 A 
ATOM     15  C   UNL     1      -7.711 -35.829   0.012  0.00  0.00    +0.000 C 
ATOM     16  C   UNL     1      -9.189 -32.801   1.325  0.00  0.00    +0.000 A 
ATOM     17  C   UNL     1      -5.941 -36.820  -1.138  0.00  0.00    +0.000 C 
ATOM     18  C   UNL     1      -9.820 -31.465  -0.594  0.00  0.00    +0.000 A 
ATOM     19  C   UNL     1      -8.359 -34.593   2.844  0.00  0.00    +0.000 C 
ATOM     20  C   UNL     1      -9.682 -31.826   2.207  0.00  0.00    +0.000 A 
ATOM     21  C   UNL     1     -10.312 -30.494   0.278  0.00  0.00    +0.000 A 
ATOM     22  C   UNL     1     -10.241 -30.673   1.654  0.00  0.00    +0.000 A 
ENDBRANCH   3   9
BRANCH   5  25
ATOM     23  O   UNL     1      -7.738 -35.791  -7.170  0.00  0.00    +0.000 OA
ATOM     24  N   UNL     1      -6.000 -37.329  -6.726  0.00  0.00    +0.000 N 
ATOM     25  C   UNL     1      -7.298 -36.780  -6.591  0.00  0.00    +0.000 C 
ATOM     26  C   UNL     1      -5.538 -38.542  -6.040  0.00  0.00    +0.000 C 
BRANCH  24  27
ATOM     27  C   UNL     1      -5.040 -36.699  -7.538  0.00  0.00    +0.000 C 
ATOM     28  C   UNL     1      -4.522 -35.400  -7.207  0.00  0.00    +0.000 C 
ATOM     29  C   UNL     1      -4.048 -34.224  -6.915  0.00  0.00    +0.000 C 
ATOM     30  C   UNL     1      -2.587 -34.193  -6.518  0.00  0.00    +0.000 C 
BRANCH  27  31
ATOM     31  C   UNL     1      -4.512 -37.340  -8.734  0.00  0.00    +0.000 C 
ATOM     32  C   UNL     1      -5.325 -37.372 -10.013  0.00  0.00    +0.000 C 
ATOM     33  C   UNL     1      -3.010 -37.424  -8.934  0.00  0.00    +0.000 C 
ENDBRANCH  27  31
BRANCH  29  35
ATOM     34  O   UNL     1      -4.626 -31.949  -7.469  0.00  0.00    +0.000 OA
ATOM     35  C   UNL     1      -4.933 -33.030  -6.986  0.00  0.00    +0.000 C 
BRANCH  35  36
ATOM     36  O   UNL     1      -6.161 -33.209  -6.457  0.00  0.00    +0.000 OA
ATOM     37  H   UNL     1      -6.635 -33.783  -7.093  0.00  0.00    +0.000 HD
ENDBRANCH  35  36
ENDBRANCH  29  35
ENDBRANCH  24  27
ENDBRANCH   5  25
BRANCH   5  38
ATOM     38  C   UNL     1      -9.146 -38.452  -6.145  0.00  0.00    +0.000 C 
ATOM     39  C   UNL     1      -9.195 -39.641  -5.132  0.00  0.00    +0.000 C 
ATOM     40  C   UNL     1     -10.550 -37.784  -6.179  0.00  0.00    +0.000 C 
ATOM     41  C   UNL     1      -8.749 -38.993  -7.540  0.00  0.00    +0.000 C 
ENDBRANCH   5  38
TORSDOF 7
ENDMDL
MODEL 2
REMARK VINA RESULT:      -5.6      3.708      8.880
REMARK  Name = 10940649_MilnamideD.pdbqt.pdb
REMARK  7 active torsions:
REMARK  status: ('A' for Active; 'I' for Inactive)
REMARK    1  A    between atoms: C_3  and  C_8
REMARK    2  A    between atoms: C_22  and  C_25
REMARK    3  A    between atoms: C_22  and  C_38
REMARK    4  A    between atoms: N_24  and  C_27
REMARK    5  A    between atoms: C_27  and  C_28
REMARK    6  A    between atoms: C_32  and  C_35
REMARK    7  A    between atoms: C_35  and  O_36
REMARK                            x       y       z     vdW  Elec       q    Type
REMARK                         _______ _______ _______ _____ _____    ______ ____
ROOT
ATOM      1  O   UNL     1      -5.241 -36.812  -2.041  0.00  0.00    +0.000 OA
ATOM      2  N   UNL     1      -3.180 -37.664  -1.614  0.00  0.00    +0.000 N 
ATOM      3  C   UNL     1      -4.120 -37.092  -2.450  0.00  0.00    +0.000 C 
ATOM      4  H   UNL     1      -2.291 -37.977  -2.020  0.00  0.00    +0.000 HD
ATOM      5  C   UNL     1      -3.370 -37.929  -0.236  0.00  0.00    +0.000 C 
ENDROOT
BRANCH   3   9
ATOM      6  N   UNL     1      -2.942 -37.872  -4.602  0.00  0.00    +0.000 NA
ATOM      7  N   UNL     1      -2.553 -35.691  -7.839  0.00  0.00    +0.000 N 
ATOM      8  C   UNL     1      -3.828 -35.366  -4.346  0.00  0.00    +0.000 C 
ATOM      9  C   UNL     1      -3.691 -36.840  -3.864  0.00  0.00    +0.000 C 
ATOM     10  C   UNL     1      -3.414 -35.147  -5.836  0.00  0.00    +0.000 A 
ATOM     11  C   UNL     1      -2.827 -36.139  -6.594  0.00  0.00    +0.000 A 
ATOM     12  C   UNL     1      -2.850 -34.455  -3.545  0.00  0.00    +0.000 C 
ATOM     13  C   UNL     1      -5.321 -34.933  -4.285  0.00  0.00    +0.000 C 
ATOM     14  C   UNL     1      -3.483 -34.002  -6.708  0.00  0.00    +0.000 A 
ATOM     15  C   UNL     1      -2.655 -37.348  -5.912  0.00  0.00    +0.000 C 
ATOM     16  C   UNL     1      -2.941 -34.376  -7.953  0.00  0.00    +0.000 A 
ATOM     17  C   UNL     1      -3.741 -39.074  -4.779  0.00  0.00    +0.000 C 
ATOM     18  C   UNL     1      -3.953 -32.683  -6.549  0.00  0.00    +0.000 A 
ATOM     19  C   UNL     1      -1.939 -36.470  -8.858  0.00  0.00    +0.000 C 
ATOM     20  C   UNL     1      -2.860 -33.481  -9.032  0.00  0.00    +0.000 A 
ATOM     21  C   UNL     1      -3.874 -31.789  -7.618  0.00  0.00    +0.000 A 
ATOM     22  C   UNL     1      -3.339 -32.185  -8.836  0.00  0.00    +0.000 A 
ENDBRANCH   3   9
BRANCH   5  25
ATOM     23  O   UNL     1      -4.537 -36.282   0.924  0.00  0.00    +0.000 OA
ATOM     24  N   UNL     1      -5.692 -38.289   0.452  0.00  0.00    +0.000 N 
ATOM     25  C   UNL     1      -4.575 -37.419   0.462  0.00  0.00    +0.000 C 
ATOM     26  C   UNL     1      -5.671 -39.657  -0.077  0.00  0.00    +0.000 C 
BRANCH  24  27
ATOM     27  C   UNL     1      -6.935 -37.857   0.947  0.00  0.00    +0.000 C 
ATOM     28  C   UNL     1      -7.707 -36.862   0.256  0.00  0.00    +0.000 C 
ATOM     29  C   UNL     1      -8.412 -35.960  -0.364  0.00  0.00    +0.000 C 
ATOM     30  C   UNL     1      -9.708 -36.453  -0.971  0.00  0.00    +0.000 C 
BRANCH  27  31
ATOM     31  C   UNL     1      -7.507 -38.414   2.164  0.00  0.00    +0.000 C 
ATOM     32  C   UNL     1      -8.736 -39.300   2.101  0.00  0.00    +0.000 C 
ATOM     33  C   UNL     1      -6.615 -38.652   3.368  0.00  0.00    +0.000 C 
ENDBRANCH  27  31
BRANCH  29  35
ATOM     34  O   UNL     1      -8.630 -33.560  -0.452  0.00  0.00    +0.000 OA
ATOM     35  C   UNL     1      -7.922 -34.557  -0.435  0.00  0.00    +0.000 C 
BRANCH  35  36
ATOM     36  O   UNL     1      -6.579 -34.432  -0.485  0.00  0.00    +0.000 OA
ATOM     37  H   UNL     1      -6.414 -33.478  -0.631  0.00  0.00    +0.000 HD
ENDBRANCH  35  36
ENDBRANCH  29  35
ENDBRANCH  24  27
ENDBRANCH   5  25
BRANCH   5  38
ATOM     38  C   UNL     1      -2.290 -38.488   0.677  0.00  0.00    +0.000 C 
ATOM     39  C   UNL     1      -1.645 -39.694  -0.078  0.00  0.00    +0.000 C 
ATOM     40  C   UNL     1      -1.203 -37.389   0.857  0.00  0.00    +0.000 C 
ATOM     41  C   UNL     1      -2.826 -38.974   2.045  0.00  0.00    +0.000 C 
ENDBRANCH   5  38
TORSDOF 7
ENDMDL
MODEL 3
REMARK VINA RESULT:      -5.6      4.029      9.275
REMARK  Name = 10940649_MilnamideD.pdbqt.pdb
REMARK  7 active torsions:
REMARK  status: ('A' for Active; 'I' for Inactive)
REMARK    1  A    between atoms: C_3  and  C_8
REMARK    2  A    between atoms: C_22  and  C_25
REMARK    3  A    between atoms: C_22  and  C_38
REMARK    4  A    between atoms: N_24  and  C_27
REMARK    5  A    between atoms: C_27  and  C_28
REMARK    6  A    between atoms: C_32  and  C_35
REMARK    7  A    between atoms: C_35  and  O_36
REMARK                            x       y       z     vdW  Elec       q    Type
REMARK                         _______ _______ _______ _____ _____    ______ ____
ROOT
ATOM      1  O   UNL     1      -3.095 -37.060  -1.351  0.00  0.00    +0.000 OA
ATOM      2  N   UNL     1      -5.196 -36.373  -1.868  0.00  0.00    +0.000 N 
ATOM      3  C   UNL     1      -3.897 -36.701  -2.205  0.00  0.00    +0.000 C 
ATOM      4  H   UNL     1      -5.805 -35.980  -2.595  0.00  0.00    +0.000 HD
ATOM      5  C   UNL     1      -5.747 -36.464  -0.567  0.00  0.00    +0.000 C 
ENDROOT
BRANCH   3   9
ATOM      6  N   UNL     1      -2.801 -37.683  -4.317  0.00  0.00    +0.000 NA
ATOM      7  N   UNL     1      -2.602 -35.846  -7.777  0.00  0.00    +0.000 N 
ATOM      8  C   UNL     1      -3.725 -35.178  -4.281  0.00  0.00    +0.000 C 
ATOM      9  C   UNL     1      -3.536 -36.592  -3.656  0.00  0.00    +0.000 C 
ATOM     10  C   UNL     1      -3.384 -35.110  -5.803  0.00  0.00    +0.000 A 
ATOM     11  C   UNL     1      -2.810 -36.166  -6.481  0.00  0.00    +0.000 A 
ATOM     12  C   UNL     1      -2.732 -34.174  -3.626  0.00  0.00    +0.000 C 
ATOM     13  C   UNL     1      -5.223 -34.765  -4.195  0.00  0.00    +0.000 C 
ATOM     14  C   UNL     1      -3.515 -34.063  -6.785  0.00  0.00    +0.000 A 
ATOM     15  C   UNL     1      -2.584 -37.294  -5.686  0.00  0.00    +0.000 C 
ATOM     16  C   UNL     1      -3.021 -34.557  -8.009  0.00  0.00    +0.000 A 
ATOM     17  C   UNL     1      -3.582 -38.909  -4.332  0.00  0.00    +0.000 C 
ATOM     18  C   UNL     1      -4.004 -32.742  -6.742  0.00  0.00    +0.000 A 
ATOM     19  C   UNL     1      -2.018 -36.718  -8.738  0.00  0.00    +0.000 C 
ATOM     20  C   UNL     1      -3.008 -33.778  -9.177  0.00  0.00    +0.000 A 
ATOM     21  C   UNL     1      -3.992 -31.964  -7.900  0.00  0.00    +0.000 A 
ATOM     22  C   UNL     1      -3.504 -32.476  -9.095  0.00  0.00    +0.000 A 
ENDBRANCH   3   9
BRANCH   5  25
ATOM     23  O   UNL     1      -4.422 -36.400   1.346  0.00  0.00    +0.000 OA
ATOM     24  N   UNL     1      -5.047 -38.532   0.541  0.00  0.00    +0.000 N 
ATOM     25  C   UNL     1      -4.982 -37.118   0.522  0.00  0.00    +0.000 C 
ATOM     26  C   UNL     1      -5.696 -39.345  -0.494  0.00  0.00    +0.000 C 
BRANCH  24  27
ATOM     27  C   UNL     1      -4.490 -39.257   1.609  0.00  0.00    +0.000 C 
ATOM     28  C   UNL     1      -5.034 -39.164   2.936  0.00  0.00    +0.000 C 
ATOM     29  C   UNL     1      -5.521 -39.084   4.140  0.00  0.00    +0.000 C 
ATOM     30  C   UNL     1      -6.182 -40.344   4.659  0.00  0.00    +0.000 C 
BRANCH  27  31
ATOM     31  C   UNL     1      -3.357 -40.150   1.418  0.00  0.00    +0.000 C 
ATOM     32  C   UNL     1      -1.939 -39.646   1.604  0.00  0.00    +0.000 C 
ATOM     33  C   UNL     1      -3.535 -41.641   1.642  0.00  0.00    +0.000 C 
ENDBRANCH  27  31
BRANCH  29  35
ATOM     34  O   UNL     1      -6.332 -37.206   5.418  0.00  0.00    +0.000 OA
ATOM     35  C   UNL     1      -5.403 -37.813   4.905  0.00  0.00    +0.000 C 
BRANCH  35  36
ATOM     36  O   UNL     1      -4.145 -37.335   5.008  0.00  0.00    +0.000 OA
ATOM     37  H   UNL     1      -3.906 -37.041   4.104  0.00  0.00    +0.000 HD
ENDBRANCH  35  36
ENDBRANCH  29  35
ENDBRANCH  24  27
ENDBRANCH   5  25
BRANCH   5  38
ATOM     38  C   UNL     1      -7.203 -36.170  -0.240  0.00  0.00    +0.000 C 
ATOM     39  C   UNL     1      -7.348 -34.616  -0.194  0.00  0.00    +0.000 C 
ATOM     40  C   UNL     1      -8.072 -36.706  -1.414  0.00  0.00    +0.000 C 
ATOM     41  C   UNL     1      -7.666 -36.762   1.114  0.00  0.00    +0.000 C 
ENDBRANCH   5  38
TORSDOF 7
ENDMDL
MODEL 4
REMARK VINA RESULT:      -5.4     15.481     19.486
REMARK  Name = 10940649_MilnamideD.pdbqt.pdb
REMARK  7 active torsions:
REMARK  status: ('A' for Active; 'I' for Inactive)
REMARK    1  A    between atoms: C_3  and  C_8
REMARK    2  A    between atoms: C_22  and  C_25
REMARK    3  A    between atoms: C_22  and  C_38
REMARK    4  A    between atoms: N_24  and  C_27
REMARK    5  A    between atoms: C_27  and  C_28
REMARK    6  A    between atoms: C_32  and  C_35
REMARK    7  A    between atoms: C_35  and  O_36
REMARK                            x       y       z     vdW  Elec       q    Type
REMARK                         _______ _______ _______ _____ _____    ______ ____
ROOT
ATOM      1  O   UNL     1     -14.330 -19.325   0.351  0.00  0.00    +0.000 OA
ATOM      2  N   UNL     1     -15.549 -21.240   0.384  0.00  0.00    +0.000 N 
ATOM      3  C   UNL     1     -15.236 -19.996  -0.129  0.00  0.00    +0.000 C 
ATOM      4  H   UNL     1     -16.378 -21.724   0.022  0.00  0.00    +0.000 HD
ATOM      5  C   UNL     1     -14.854 -21.885   1.437  0.00  0.00    +0.000 C 
ENDROOT
BRANCH   3   9
ATOM      6  N   UNL     1     -17.197 -20.337  -1.762  0.00  0.00    +0.000 NA
ATOM      7  N   UNL     1     -18.102 -17.889  -4.691  0.00  0.00    +0.000 N 
ATOM      8  C   UNL     1     -15.462 -18.334  -2.090  0.00  0.00    +0.000 C 
ATOM      9  C   UNL     1     -16.063 -19.526  -1.288  0.00  0.00    +0.000 C 
ATOM     10  C   UNL     1     -16.368 -17.841  -3.262  0.00  0.00    +0.000 A 
ATOM     11  C   UNL     1     -17.511 -18.511  -3.646  0.00  0.00    +0.000 A 
ATOM     12  C   UNL     1     -14.146 -18.780  -2.793  0.00  0.00    +0.000 C 
ATOM     13  C   UNL     1     -15.317 -17.097  -1.157  0.00  0.00    +0.000 C 
ATOM     14  C   UNL     1     -16.265 -16.727  -4.171  0.00  0.00    +0.000 A 
ATOM     15  C   UNL     1     -17.784 -19.651  -2.883  0.00  0.00    +0.000 C 
ATOM     16  C   UNL     1     -17.366 -16.784  -5.048  0.00  0.00    +0.000 A 
ATOM     17  C   UNL     1     -18.223 -20.454  -0.737  0.00  0.00    +0.000 C 
ATOM     18  C   UNL     1     -15.334 -15.681  -4.329  0.00  0.00    +0.000 A 
ATOM     19  C   UNL     1     -19.295 -18.337  -5.324  0.00  0.00    +0.000 C 
ATOM     20  C   UNL     1     -17.562 -15.834  -6.063  0.00  0.00    +0.000 A 
ATOM     21  C   UNL     1     -15.524 -14.734  -5.336  0.00  0.00    +0.000 A 
ATOM     22  C   UNL     1     -16.621 -14.811  -6.185  0.00  0.00    +0.000 A 
ENDBRANCH   3   9
BRANCH   5  25
ATOM     23  O   UNL     1     -12.546 -21.588   1.352  0.00  0.00    +0.000 OA
ATOM     24  N   UNL     1     -13.718 -20.437   3.052  0.00  0.00    +0.000 N 
ATOM     25  C   UNL     1     -13.584 -21.316   1.949  0.00  0.00    +0.000 C 
ATOM     26  C   UNL     1     -14.979 -20.180   3.757  0.00  0.00    +0.000 C 
BRANCH  24  27
ATOM     27  C   UNL     1     -12.607 -19.719   3.529  0.00  0.00    +0.000 C 
ATOM     28  C   UNL     1     -12.373 -18.359   3.131  0.00  0.00    +0.000 C 
ATOM     29  C   UNL     1     -12.154 -17.127   2.775  0.00  0.00    +0.000 C 
ATOM     30  C   UNL     1     -12.304 -16.096   3.874  0.00  0.00    +0.000 C 
BRANCH  27  31
ATOM     31  C   UNL     1     -11.661 -20.310   4.464  0.00  0.00    +0.000 C 
ATOM     32  C   UNL     1     -10.417 -19.550   4.883  0.00  0.00    +0.000 C 
ATOM     33  C   UNL     1     -12.148 -21.335   5.472  0.00  0.00    +0.000 C 
ENDBRANCH  27  31
BRANCH  29  35
ATOM     34  O   UNL     1     -11.308 -15.760   0.976  0.00  0.00    +0.000 OA
ATOM     35  C   UNL     1     -11.783 -16.817   1.367  0.00  0.00    +0.000 C 
BRANCH  35  36
ATOM     36  O   UNL     1     -12.013 -17.819   0.493  0.00  0.00    +0.000 OA
ATOM     37  H   UNL     1     -11.622 -17.518  -0.353  0.00  0.00    +0.000 HD
ENDBRANCH  35  36
ENDBRANCH  29  35
ENDBRANCH  24  27
ENDBRANCH   5  25
BRANCH   5  38
ATOM     38  C   UNL     1     -15.171 -23.288   1.928  0.00  0.00    +0.000 C 
ATOM     39  C   UNL     1     -15.637 -24.106   0.681  0.00  0.00    +0.000 C 
ATOM     40  C   UNL     1     -13.851 -23.918   2.458  0.00  0.00    +0.000 C 
ATOM     41  C   UNL     1     -16.283 -23.331   3.005  0.00  0.00    +0.000 C 
ENDBRANCH   5  38
TORSDOF 7
ENDMDL
MODEL 5
REMARK VINA RESULT:      -5.4     13.993     18.955
REMARK  Name = 10940649_MilnamideD.pdbqt.pdb
REMARK  7 active torsions:
REMARK  status: ('A' for Active; 'I' for Inactive)
REMARK    1  A    between atoms: C_3  and  C_8
REMARK    2  A    between atoms: C_22  and  C_25
REMARK    3  A    between atoms: C_22  and  C_38
REMARK    4  A    between atoms: N_24  and  C_27
REMARK    5  A    between atoms: C_27  and  C_28
REMARK    6  A    between atoms: C_32  and  C_35
REMARK    7  A    between atoms: C_35  and  O_36
REMARK                            x       y       z     vdW  Elec       q    Type
REMARK                         _______ _______ _______ _____ _____    ______ ____
ROOT
ATOM      1  O   UNL     1     -15.498 -19.872   2.221  0.00  0.00    +0.000 OA
ATOM      2  N   UNL     1     -14.431 -20.274   0.258  0.00  0.00    +0.000 N 
ATOM      3  C   UNL     1     -14.845 -20.640   1.524  0.00  0.00    +0.000 C 
ATOM      4  H   UNL     1     -13.800 -20.904  -0.251  0.00  0.00    +0.000 HD
ATOM      5  C   UNL     1     -14.745 -19.050  -0.380  0.00  0.00    +0.000 C 
ENDROOT
BRANCH   3   9
ATOM      6  N   UNL     1     -13.058 -22.289   2.369  0.00  0.00    +0.000 NA
ATOM      7  N   UNL     1     -13.715 -26.079   3.137  0.00  0.00    +0.000 N 
ATOM      8  C   UNL     1     -15.515 -23.123   1.738  0.00  0.00    +0.000 C 
ATOM      9  C   UNL     1     -14.452 -22.011   1.984  0.00  0.00    +0.000 C 
ATOM     10  C   UNL     1     -15.092 -24.529   2.269  0.00  0.00    +0.000 A 
ATOM     11  C   UNL     1     -13.827 -24.787   2.758  0.00  0.00    +0.000 A 
ATOM     12  C   UNL     1     -15.707 -23.340   0.208  0.00  0.00    +0.000 C 
ATOM     13  C   UNL     1     -16.817 -22.783   2.519  0.00  0.00    +0.000 C 
ATOM     14  C   UNL     1     -15.788 -25.788   2.354  0.00  0.00    +0.000 A 
ATOM     15  C   UNL     1     -12.978 -23.676   2.746  0.00  0.00    +0.000 C 
ATOM     16  C   UNL     1     -14.901 -26.735   2.904  0.00  0.00    +0.000 A 
ATOM     17  C   UNL     1     -12.667 -21.500   3.527  0.00  0.00    +0.000 C 
ATOM     18  C   UNL     1     -17.089 -26.208   2.010  0.00  0.00    +0.000 A 
ATOM     19  C   UNL     1     -12.533 -26.660   3.675  0.00  0.00    +0.000 C 
ATOM     20  C   UNL     1     -15.274 -28.070   3.121  0.00  0.00    +0.000 A 
ATOM     21  C   UNL     1     -17.465 -27.535   2.222  0.00  0.00    +0.000 A 
ATOM     22  C   UNL     1     -16.572 -28.447   2.770  0.00  0.00    +0.000 A 
ENDBRANCH   3   9
BRANCH   5  25
ATOM     23  O   UNL     1     -16.923 -18.318   0.001  0.00  0.00    +0.000 OA
ATOM     24  N   UNL     1     -15.187 -17.142   1.090  0.00  0.00    +0.000 N 
ATOM     25  C   UNL     1     -15.732 -18.125   0.229  0.00  0.00    +0.000 C 
ATOM     26  C   UNL     1     -13.750 -16.926   1.295  0.00  0.00    +0.000 C 
BRANCH  24  27
ATOM     27  C   UNL     1     -16.031 -16.307   1.843  0.00  0.00    +0.000 C 
ATOM     28  C   UNL     1     -16.699 -16.788   3.020  0.00  0.00    +0.000 C 
ATOM     29  C   UNL     1     -17.307 -17.218   4.087  0.00  0.00    +0.000 C 
ATOM     30  C   UNL     1     -16.842 -16.606   5.392  0.00  0.00    +0.000 C 
BRANCH  27  31
ATOM     31  C   UNL     1     -16.248 -14.914   1.480  0.00  0.00    +0.000 C 
ATOM     32  C   UNL     1     -17.410 -14.523   0.588  0.00  0.00    +0.000 C 
ATOM     33  C   UNL     1     -15.764 -13.816   2.409  0.00  0.00    +0.000 C 
ENDBRANCH  27  31
BRANCH  29  35
ATOM     34  O   UNL     1     -19.241 -18.467   4.807  0.00  0.00    +0.000 OA
ATOM     35  C   UNL     1     -18.382 -18.240   3.967  0.00  0.00    +0.000 C 
BRANCH  35  36
ATOM     36  O   UNL     1     -18.356 -18.949   2.818  0.00  0.00    +0.000 OA
ATOM     37  H   UNL     1     -17.595 -19.558   2.908  0.00  0.00    +0.000 HD
ENDBRANCH  35  36
ENDBRANCH  29  35
ENDBRANCH  24  27
ENDBRANCH   5  25
BRANCH   5  38
ATOM     38  C   UNL     1     -14.340 -18.707  -1.805  0.00  0.00    +0.000 C 
ATOM     39  C   UNL     1     -12.802 -18.957  -1.906  0.00  0.00    +0.000 C 
ATOM     40  C   UNL     1     -15.060 -19.704  -2.757  0.00  0.00    +0.000 C 
ATOM     41  C   UNL     1     -14.642 -17.240  -2.198  0.00  0.00    +0.000 C 
ENDBRANCH   5  38
TORSDOF 7
ENDMDL
MODEL 6
REMARK VINA RESULT:      -5.3      3.134      4.487
REMARK  Name = 10940649_MilnamideD.pdbqt.pdb
REMARK  7 active torsions:
REMARK  status: ('A' for Active; 'I' for Inactive)
REMARK    1  A    between atoms: C_3  and  C_8
REMARK    2  A    between atoms: C_22  and  C_25
REMARK    3  A    between atoms: C_22  and  C_38
REMARK    4  A    between atoms: N_24  and  C_27
REMARK    5  A    between atoms: C_27  and  C_28
REMARK    6  A    between atoms: C_32  and  C_35
REMARK    7  A    between atoms: C_35  and  O_36
REMARK                            x       y       z     vdW  Elec       q    Type
REMARK                         _______ _______ _______ _____ _____    ______ ____
ROOT
ATOM      1  O   UNL     1      -4.404 -35.800  -6.237  0.00  0.00    +0.000 OA
ATOM      2  N   UNL     1      -4.776 -38.036  -6.365  0.00  0.00    +0.000 N 
ATOM      3  C   UNL     1      -4.447 -36.887  -5.673  0.00  0.00    +0.000 C 
ATOM      4  H   UNL     1      -4.701 -38.938  -5.880  0.00  0.00    +0.000 HD
ATOM      5  C   UNL     1      -5.143 -38.086  -7.732  0.00  0.00    +0.000 C 
ENDROOT
BRANCH   3   9
ATOM      6  N   UNL     1      -2.948 -37.780  -3.780  0.00  0.00    +0.000 NA
ATOM      7  N   UNL     1      -3.725 -37.389   0.045  0.00  0.00    +0.000 N 
ATOM      8  C   UNL     1      -5.319 -36.671  -3.253  0.00  0.00    +0.000 C 
ATOM      9  C   UNL     1      -4.152 -37.050  -4.212  0.00  0.00    +0.000 C 
ATOM     10  C   UNL     1      -4.963 -36.810  -1.739  0.00  0.00    +0.000 A 
ATOM     11  C   UNL     1      -3.781 -37.374  -1.306  0.00  0.00    +0.000 A 
ATOM     12  C   UNL     1      -6.508 -37.657  -3.453  0.00  0.00    +0.000 C 
ATOM     13  C   UNL     1      -5.679 -35.168  -3.437  0.00  0.00    +0.000 C 
ATOM     14  C   UNL     1      -5.679 -36.471  -0.535  0.00  0.00    +0.000 A 
ATOM     15  C   UNL     1      -2.937 -37.789  -2.341  0.00  0.00    +0.000 C 
ATOM     16  C   UNL     1      -4.876 -36.843   0.562  0.00  0.00    +0.000 A 
ATOM     17  C   UNL     1      -1.738 -37.103  -4.220  0.00  0.00    +0.000 C 
ATOM     18  C   UNL     1      -6.936 -35.888  -0.280  0.00  0.00    +0.000 A 
ATOM     19  C   UNL     1      -2.639 -37.914   0.800  0.00  0.00    +0.000 C 
ATOM     20  C   UNL     1      -5.288 -36.646   1.889  0.00  0.00    +0.000 A 
ATOM     21  C   UNL     1      -7.351 -35.691   1.038  0.00  0.00    +0.000 A 
ATOM     22  C   UNL     1      -6.538 -36.062   2.101  0.00  0.00    +0.000 A 
ENDBRANCH   3   9
BRANCH   5  25
ATOM     23  O   UNL     1      -6.473 -36.283  -8.365  0.00  0.00    +0.000 OA
ATOM     24  N   UNL     1      -4.271 -36.348  -9.220  0.00  0.00    +0.000 N 
ATOM     25  C   UNL     1      -5.381 -36.832  -8.486  0.00  0.00    +0.000 C 
ATOM     26  C   UNL     1      -2.999 -37.066  -9.367  0.00  0.00    +0.000 C 
BRANCH  24  27
ATOM     27  C   UNL     1      -4.326 -35.093  -9.851  0.00  0.00    +0.000 C 
ATOM     28  C   UNL     1      -3.662 -33.948  -9.290  0.00  0.00    +0.000 C 
ATOM     29  C   UNL     1      -3.065 -32.907  -8.788  0.00  0.00    +0.000 C 
ATOM     30  C   UNL     1      -1.892 -32.382  -9.587  0.00  0.00    +0.000 C 
BRANCH  27  31
ATOM     31  C   UNL     1      -5.033 -34.900 -11.109  0.00  0.00    +0.000 C 
ATOM     32  C   UNL     1      -5.040 -35.991 -12.162  0.00  0.00    +0.000 C 
ATOM     33  C   UNL     1      -6.223 -33.960 -11.160  0.00  0.00    +0.000 C 
ENDBRANCH  27  31
BRANCH  29  35
ATOM     34  O   UNL     1      -3.836 -32.947  -6.503  0.00  0.00    +0.000 OA
ATOM     35  C   UNL     1      -3.552 -32.317  -7.511  0.00  0.00    +0.000 C 
BRANCH  35  36
ATOM     36  O   UNL     1      -3.674 -30.973  -7.524  0.00  0.00    +0.000 OA
ATOM     37  H   UNL     1      -2.772 -30.634  -7.701  0.00  0.00    +0.000 HD
ENDBRANCH  35  36
ENDBRANCH  29  35
ENDBRANCH  24  27
ENDBRANCH   5  25
BRANCH   5  38
ATOM     38  C   UNL     1      -5.575 -39.356  -8.448  0.00  0.00    +0.000 C 
ATOM     39  C   UNL     1      -4.362 -40.338  -8.393  0.00  0.00    +0.000 C 
ATOM     40  C   UNL     1      -6.748 -39.982  -7.640  0.00  0.00    +0.000 C 
ATOM     41  C   UNL     1      -5.974 -39.128  -9.927  0.00  0.00    +0.000 C 
ENDBRANCH   5  38
TORSDOF 7
ENDMDL
MODEL 7
REMARK VINA RESULT:      -5.1     13.787     16.083
REMARK  Name = 10940649_MilnamideD.pdbqt.pdb
REMARK  7 active torsions:
REMARK  status: ('A' for Active; 'I' for Inactive)
REMARK    1  A    between atoms: C_3  and  C_8
REMARK    2  A    between atoms: C_22  and  C_25
REMARK    3  A    between atoms: C_22  and  C_38
REMARK    4  A    between atoms: N_24  and  C_27
REMARK    5  A    between atoms: C_27  and  C_28
REMARK    6  A    between atoms: C_32  and  C_35
REMARK    7  A    between atoms: C_35  and  O_36
REMARK                            x       y       z     vdW  Elec       q    Type
REMARK                         _______ _______ _______ _____ _____    ______ ____
ROOT
ATOM      1  O   UNL     1       5.505 -31.566   4.826  0.00  0.00    +0.000 OA
ATOM      2  N   UNL     1       4.630 -33.455   3.919  0.00  0.00    +0.000 N 
ATOM      3  C   UNL     1       5.181 -32.740   4.965  0.00  0.00    +0.000 C 
ATOM      4  H   UNL     1       4.469 -34.460   4.045  0.00  0.00    +0.000 HD
ATOM      5  C   UNL     1       4.333 -32.926   2.639  0.00  0.00    +0.000 C 
ENDROOT
BRANCH   3   9
ATOM      6  N   UNL     1       6.509 -34.373   6.447  0.00  0.00    +0.000 NA
ATOM      7  N   UNL     1       5.430 -35.483  10.051  0.00  0.00    +0.000 N 
ATOM      8  C   UNL     1       4.120 -33.453   7.207  0.00  0.00    +0.000 C 
ATOM      9  C   UNL     1       5.355 -33.478   6.258  0.00  0.00    +0.000 C 
ATOM     10  C   UNL     1       4.350 -34.192   8.563  0.00  0.00    +0.000 A 
ATOM     11  C   UNL     1       5.485 -34.936   8.817  0.00  0.00    +0.000 A 
ATOM     12  C   UNL     1       2.936 -34.225   6.552  0.00  0.00    +0.000 C 
ATOM     13  C   UNL     1       3.799 -31.985   7.609  0.00  0.00    +0.000 C 
ATOM     14  C   UNL     1       3.544 -34.322   9.750  0.00  0.00    +0.000 A 
ATOM     15  C   UNL     1       6.403 -34.948   7.762  0.00  0.00    +0.000 C 
ATOM     16  C   UNL     1       4.250 -35.132  10.663  0.00  0.00    +0.000 A 
ATOM     17  C   UNL     1       7.761 -33.634   6.395  0.00  0.00    +0.000 C 
ATOM     18  C   UNL     1       2.280 -33.830  10.129  0.00  0.00    +0.000 A 
ATOM     19  C   UNL     1       6.444 -36.312  10.610  0.00  0.00    +0.000 C 
ATOM     20  C   UNL     1       3.735 -35.454  11.928  0.00  0.00    +0.000 A 
ATOM     21  C   UNL     1       1.763 -34.147  11.385  0.00  0.00    +0.000 A 
ATOM     22  C   UNL     1       2.481 -34.944  12.267  0.00  0.00    +0.000 A 
ENDBRANCH   3   9
BRANCH   5  25
ATOM     23  O   UNL     1       3.502 -30.755   2.762  0.00  0.00    +0.000 OA
ATOM     24  N   UNL     1       5.651 -31.033   1.819  0.00  0.00    +0.000 N 
ATOM     25  C   UNL     1       4.432 -31.467   2.394  0.00  0.00    +0.000 C 
ATOM     26  C   UNL     1       6.714 -31.932   1.356  0.00  0.00    +0.000 C 
BRANCH  24  27
ATOM     27  C   UNL     1       5.923 -29.661   1.679  0.00  0.00    +0.000 C 
ATOM     28  C   UNL     1       6.092 -28.814   2.827  0.00  0.00    +0.000 C 
ATOM     29  C   UNL     1       6.245 -28.041   3.863  0.00  0.00    +0.000 C 
ATOM     30  C   UNL     1       7.643 -27.497   4.067  0.00  0.00    +0.000 C 
BRANCH  27  31
ATOM     31  C   UNL     1       6.072 -29.041   0.370  0.00  0.00    +0.000 C 
ATOM     32  C   UNL     1       4.970 -29.157  -0.665  0.00  0.00    +0.000 C 
ATOM     33  C   UNL     1       6.960 -27.819   0.218  0.00  0.00    +0.000 C 
ENDBRANCH  27  31
BRANCH  29  35
ATOM     34  O   UNL     1       4.755 -26.638   5.139  0.00  0.00    +0.000 OA
ATOM     35  C   UNL     1       5.084 -27.748   4.747  0.00  0.00    +0.000 C 
BRANCH  35  36
ATOM     36  O   UNL     1       4.374 -28.834   5.119  0.00  0.00    +0.000 OA
ATOM     37  H   UNL     1       4.656 -29.548   4.511  0.00  0.00    +0.000 HD
ENDBRANCH  35  36
ENDBRANCH  29  35
ENDBRANCH  24  27
ENDBRANCH   5  25
BRANCH   5  38
ATOM     38  C   UNL     1       3.655 -33.717   1.531  0.00  0.00    +0.000 C 
ATOM     39  C   UNL     1       4.622 -34.885   1.157  0.00  0.00    +0.000 C 
ATOM     40  C   UNL     1       2.351 -34.333   2.116  0.00  0.00    +0.000 C 
ATOM     41  C   UNL     1       3.358 -32.879   0.264  0.00  0.00    +0.000 C 
ENDBRANCH   5  38
TORSDOF 7
ENDMDL
MODEL 8
REMARK VINA RESULT:      -5.1     18.897     21.580
REMARK  Name = 10940649_MilnamideD.pdbqt.pdb
REMARK  7 active torsions:
REMARK  status: ('A' for Active; 'I' for Inactive)
REMARK    1  A    between atoms: C_3  and  C_8
REMARK    2  A    between atoms: C_22  and  C_25
REMARK    3  A    between atoms: C_22  and  C_38
REMARK    4  A    between atoms: N_24  and  C_27
REMARK    5  A    between atoms: C_27  and  C_28
REMARK    6  A    between atoms: C_32  and  C_35
REMARK    7  A    between atoms: C_35  and  O_36
REMARK                            x       y       z     vdW  Elec       q    Type
REMARK                         _______ _______ _______ _____ _____    ______ ____
ROOT
ATOM      1  O   UNL     1      -5.587 -16.948   5.062  0.00  0.00    +0.000 OA
ATOM      2  N   UNL     1      -7.760 -16.807   4.418  0.00  0.00    +0.000 N 
ATOM      3  C   UNL     1      -6.416 -16.522   4.267  0.00  0.00    +0.000 C 
ATOM      4  H   UNL     1      -8.431 -16.348   3.792  0.00  0.00    +0.000 HD
ATOM      5  C   UNL     1      -8.307 -17.635   5.429  0.00  0.00    +0.000 C 
ENDROOT
BRANCH   3   9
ATOM      6  N   UNL     1      -6.499 -14.275   3.014  0.00  0.00    +0.000 NA
ATOM      7  N   UNL     1      -4.857 -13.620  -0.488  0.00  0.00    +0.000 N 
ATOM      8  C   UNL     1      -5.431 -16.445   1.883  0.00  0.00    +0.000 C 
ATOM      9  C   UNL     1      -6.043 -15.674   3.089  0.00  0.00    +0.000 C 
ATOM     10  C   UNL     1      -5.013 -15.527   0.691  0.00  0.00    +0.000 A 
ATOM     11  C   UNL     1      -5.315 -14.181   0.653  0.00  0.00    +0.000 A 
ATOM     12  C   UNL     1      -6.499 -17.398   1.268  0.00  0.00    +0.000 C 
ATOM     13  C   UNL     1      -4.112 -17.142   2.324  0.00  0.00    +0.000 C 
ATOM     14  C   UNL     1      -4.325 -15.790  -0.547  0.00  0.00    +0.000 A 
ATOM     15  C   UNL     1      -6.008 -13.723   1.778  0.00  0.00    +0.000 C 
ATOM     16  C   UNL     1      -4.241 -14.577  -1.259  0.00  0.00    +0.000 A 
ATOM     17  C   UNL     1      -5.941 -13.482   4.097  0.00  0.00    +0.000 C 
ATOM     18  C   UNL     1      -3.771 -16.949  -1.127  0.00  0.00    +0.000 A 
ATOM     19  C   UNL     1      -5.017 -12.249  -0.831  0.00  0.00    +0.000 C 
ATOM     20  C   UNL     1      -3.623 -14.491  -2.516  0.00  0.00    +0.000 A 
ATOM     21  C   UNL     1      -3.156 -16.869  -2.377  0.00  0.00    +0.000 A 
ATOM     22  C   UNL     1      -3.083 -15.660  -3.056  0.00  0.00    +0.000 A 
ENDBRANCH   3   9
BRANCH   5  25
ATOM     23  O   UNL     1      -6.998 -19.502   5.897  0.00  0.00    +0.000 OA
ATOM     24  N   UNL     1      -7.066 -17.798   7.533  0.00  0.00    +0.000 N 
ATOM     25  C   UNL     1      -7.414 -18.424   6.311  0.00  0.00    +0.000 C 
ATOM     26  C   UNL     1      -7.627 -16.525   8.000  0.00  0.00    +0.000 C 
BRANCH  24  27
ATOM     27  C   UNL     1      -6.108 -18.379   8.383  0.00  0.00    +0.000 C 
ATOM     28  C   UNL     1      -4.707 -18.329   8.069  0.00  0.00    +0.000 C 
ATOM     29  C   UNL     1      -3.436 -18.289   7.791  0.00  0.00    +0.000 C 
ATOM     30  C   UNL     1      -2.595 -17.437   8.717  0.00  0.00    +0.000 C 
BRANCH  27  31
ATOM     31  C   UNL     1      -6.487 -19.032   9.627  0.00  0.00    +0.000 C 
ATOM     32  C   UNL     1      -7.824 -19.737   9.750  0.00  0.00    +0.000 C 
ATOM     33  C   UNL     1      -5.406 -19.555  10.556  0.00  0.00    +0.000 C 
ENDBRANCH  27  31
BRANCH  29  35
ATOM     34  O   UNL     1      -1.747 -19.412   6.486  0.00  0.00    +0.000 OA
ATOM     35  C   UNL     1      -2.907 -19.053   6.629  0.00  0.00    +0.000 C 
BRANCH  35  36
ATOM     36  O   UNL     1      -3.826 -19.344   5.683  0.00  0.00    +0.000 OA
ATOM     37  H   UNL     1      -4.345 -20.089   6.049  0.00  0.00    +0.000 HD
ENDBRANCH  35  36
ENDBRANCH  29  35
ENDBRANCH  24  27
ENDBRANCH   5  25
BRANCH   5  38
ATOM     38  C   UNL     1      -9.782 -17.994   5.524  0.00  0.00    +0.000 C 
ATOM     39  C   UNL     1     -10.558 -16.654   5.730  0.00  0.00    +0.000 C 
ATOM     40  C   UNL     1     -10.213 -18.602   4.159  0.00  0.00    +0.000 C 
ATOM     41  C   UNL     1     -10.111 -18.954   6.693  0.00  0.00    +0.000 C 
ENDBRANCH   5  38
TORSDOF 7
ENDMDL
MODEL 9
REMARK VINA RESULT:      -4.9     16.260     19.961
REMARK  Name = 10940649_MilnamideD.pdbqt.pdb
REMARK  7 active torsions:
REMARK  status: ('A' for Active; 'I' for Inactive)
REMARK    1  A    between atoms: C_3  and  C_8
REMARK    2  A    between atoms: C_22  and  C_25
REMARK    3  A    between atoms: C_22  and  C_38
REMARK    4  A    between atoms: N_24  and  C_27
REMARK    5  A    between atoms: C_27  and  C_28
REMARK    6  A    between atoms: C_32  and  C_35
REMARK    7  A    between atoms: C_35  and  O_36
REMARK                            x       y       z     vdW  Elec       q    Type
REMARK                         _______ _______ _______ _____ _____    ______ ____
ROOT
ATOM      1  O   UNL     1     -15.999 -18.471   0.624  0.00  0.00    +0.000 OA
ATOM      2  N   UNL     1     -16.052 -20.678   0.095  0.00  0.00    +0.000 N 
ATOM      3  C   UNL     1     -16.252 -19.343  -0.199  0.00  0.00    +0.000 C 
ATOM      4  H   UNL     1     -16.372 -21.381  -0.582  0.00  0.00    +0.000 HD
ATOM      5  C   UNL     1     -15.503 -21.173   1.303  0.00  0.00    +0.000 C 
ENDROOT
BRANCH   3   9
ATOM      6  N   UNL     1     -17.695 -19.980  -2.233  0.00  0.00    +0.000 NA
ATOM      7  N   UNL     1     -18.008 -17.830  -5.498  0.00  0.00    +0.000 N 
ATOM      8  C   UNL     1     -16.097 -17.842  -2.293  0.00  0.00    +0.000 C 
ATOM      9  C   UNL     1     -16.787 -19.033  -1.564  0.00  0.00    +0.000 C 
ATOM     10  C   UNL     1     -16.708 -17.518  -3.693  0.00  0.00    +0.000 A 
ATOM     11  C   UNL     1     -17.658 -18.322  -4.289  0.00  0.00    +0.000 A 
ATOM     12  C   UNL     1     -14.613 -18.202  -2.603  0.00  0.00    +0.000 C 
ATOM     13  C   UNL     1     -16.293 -16.539  -1.466  0.00  0.00    +0.000 C 
ATOM     14  C   UNL     1     -16.463 -16.462  -4.642  0.00  0.00    +0.000 A 
ATOM     15  C   UNL     1     -18.027 -19.430  -3.521  0.00  0.00    +0.000 C 
ATOM     16  C   UNL     1     -17.295 -16.684  -5.757  0.00  0.00    +0.000 A 
ATOM     17  C   UNL     1     -18.937 -20.130  -1.490  0.00  0.00    +0.000 C 
ATOM     18  C   UNL     1     -15.608 -15.342  -4.654  0.00  0.00    +0.000 A 
ATOM     19  C   UNL     1     -18.960 -18.434  -6.367  0.00  0.00    +0.000 C 
ATOM     20  C   UNL     1     -17.298 -15.826  -6.868  0.00  0.00    +0.000 A 
ATOM     21  C   UNL     1     -15.607 -14.486  -5.756  0.00  0.00    +0.000 A 
ATOM     22  C   UNL     1     -16.440 -14.726  -6.842  0.00  0.00    +0.000 A 
ENDBRANCH   3   9
BRANCH   5  25
ATOM     23  O   UNL     1     -15.543 -20.023   3.327  0.00  0.00    +0.000 OA
ATOM     24  N   UNL     1     -13.632 -19.741   1.966  0.00  0.00    +0.000 N 
ATOM     25  C   UNL     1     -14.917 -20.237   2.293  0.00  0.00    +0.000 C 
ATOM     26  C   UNL     1     -12.945 -19.994   0.695  0.00  0.00    +0.000 C 
BRANCH  24  27
ATOM     27  C   UNL     1     -12.910 -18.968   2.893  0.00  0.00    +0.000 C 
ATOM     28  C   UNL     1     -12.324 -19.563   4.062  0.00  0.00    +0.000 C 
ATOM     29  C   UNL     1     -11.791 -20.094   5.124  0.00  0.00    +0.000 C 
ATOM     30  C   UNL     1     -10.278 -20.118   5.150  0.00  0.00    +0.000 C 
BRANCH  27  31
ATOM     31  C   UNL     1     -12.701 -17.540   2.699  0.00  0.00    +0.000 C 
ATOM     32  C   UNL     1     -11.427 -17.029   2.057  0.00  0.00    +0.000 C 
ATOM     33  C   UNL     1     -13.902 -16.625   2.544  0.00  0.00    +0.000 C 
ENDBRANCH  27  31
BRANCH  29  35
ATOM     34  O   UNL     1     -12.342 -20.754   7.378  0.00  0.00    +0.000 OA
ATOM     35  C   UNL     1     -12.665 -20.625   6.206  0.00  0.00    +0.000 C 
BRANCH  35  36
ATOM     36  O   UNL     1     -13.904 -20.978   5.804  0.00  0.00    +0.000 OA
ATOM     37  H   UNL     1     -13.872 -20.962   4.825  0.00  0.00    +0.000 HD
ENDBRANCH  35  36
ENDBRANCH  29  35
ENDBRANCH  24  27
ENDBRANCH   5  25
BRANCH   5  38
ATOM     38  C   UNL     1     -15.223 -22.644   1.567  0.00  0.00    +0.000 C 
ATOM     39  C   UNL     1     -16.313 -23.134   2.573  0.00  0.00    +0.000 C 
ATOM     40  C   UNL     1     -15.414 -23.413   0.229  0.00  0.00    +0.000 C 
ATOM     41  C   UNL     1     -13.822 -22.909   2.170  0.00  0.00    +0.000 C 
ENDBRANCH   5  38
TORSDOF 7
ENDMDL
