MODEL 1
REMARK VINA RESULT:      -6.7      0.000      0.000
REMARK  Name = 11167602_Regorafenib.pdbqt.pdb
REMARK  6 active torsions:
REMARK  status: ('A' for Active; 'I' for Inactive)
REMARK    1  A    between atoms: C_2  and  N_10
REMARK    2  A    between atoms: C_3  and  O_25
REMARK    3  A    between atoms: N_9  and  C_15
REMARK    4  A    between atoms: C_16  and  C_24
REMARK    5  A    between atoms: O_25  and  C_27
REMARK    6  A    between atoms: C_29  and  C_34
REMARK                            x       y       z     vdW  Elec       q    Type
REMARK                         _______ _______ _______ _____ _____    ______ ____
ROOT
ATOM      1  F   UNL     1       0.838 -15.708  -4.633  0.00  0.00    +0.000 F 
ATOM      2  C   UNL     1      -0.720 -14.559  -5.995  0.00  0.00    +0.000 A 
ATOM      3  C   UNL     1       1.414 -13.626  -7.541  0.00  0.00    +0.000 A 
ATOM      4  C   UNL     1       0.598 -14.908  -5.684  0.00  0.00    +0.000 A 
ATOM      5  C   UNL     1      -0.952 -13.717  -7.081  0.00  0.00    +0.000 A 
ATOM      6  C   UNL     1       1.669 -14.439  -6.437  0.00  0.00    +0.000 A 
ATOM      7  C   UNL     1       0.111 -13.239  -7.847  0.00  0.00    +0.000 A 
ENDROOT
BRANCH   2  10
ATOM      8  O   UNL     1      -1.512 -13.750  -3.321  0.00  0.00    +0.000 OA
ATOM      9  N   UNL     1      -3.181 -15.347  -3.429  0.00  0.00    +0.000 N 
ATOM     10  N   UNL     1      -1.757 -15.079  -5.193  0.00  0.00    +0.000 N 
ATOM     11  C   UNL     1      -2.095 -14.641  -3.924  0.00  0.00    +0.000 C 
ATOM     12  H   UNL     1      -3.604 -16.042  -4.026  0.00  0.00    +0.000 HD
ATOM     13  H   UNL     1      -2.277 -15.847  -5.595  0.00  0.00    +0.000 HD
BRANCH   9  15
ATOM     14 CL   UNL     1      -5.725 -14.436   1.840  0.00  0.00    +0.000 Cl
ATOM     15  C   UNL     1      -3.770 -15.158  -2.165  0.00  0.00    +0.000 A 
ATOM     16  C   UNL     1      -5.219 -13.780  -0.769  0.00  0.00    +0.000 A 
ATOM     17  C   UNL     1      -4.592 -14.044  -1.992  0.00  0.00    +0.000 A 
ATOM     18  C   UNL     1      -3.572 -16.025  -1.096  0.00  0.00    +0.000 A 
ATOM     19  C   UNL     1      -5.006 -14.662   0.292  0.00  0.00    +0.000 A 
ATOM     20  C   UNL     1      -4.186 -15.778   0.128  0.00  0.00    +0.000 A 
BRANCH  16  24
ATOM     21  F   UNL     1      -6.285 -11.937  -1.845  0.00  0.00    +0.000 F 
ATOM     22  F   UNL     1      -7.335 -12.852  -0.184  0.00  0.00    +0.000 F 
ATOM     23  F   UNL     1      -5.572 -11.620   0.177  0.00  0.00    +0.000 F 
ATOM     24  C   UNL     1      -6.089 -12.568  -0.651  0.00  0.00    +0.000 C 
ENDBRANCH  16  24
ENDBRANCH   9  15
ENDBRANCH   2  10
BRANCH   3  25
ATOM     25  O   UNL     1       2.427 -13.066  -8.284  0.00  0.00    +0.000 OA
BRANCH  25  27
ATOM     26  N   UNL     1       4.732 -15.380 -10.880  0.00  0.00    +0.000 NA
ATOM     27  C   UNL     1       3.146 -13.893  -9.118  0.00  0.00    +0.000 A 
ATOM     28  C   UNL     1       2.568 -14.910  -9.871  0.00  0.00    +0.000 A 
ATOM     29  C   UNL     1       3.400 -15.622 -10.719  0.00  0.00    +0.000 A 
ATOM     30  C   UNL     1       4.496 -13.594  -9.264  0.00  0.00    +0.000 A 
ATOM     31  C   UNL     1       5.239 -14.364 -10.145  0.00  0.00    +0.000 A 
BRANCH  29  34
ATOM     32  O   UNL     1       3.553 -17.665 -11.886  0.00  0.00    +0.000 OA
ATOM     33  N   UNL     1       1.483 -16.584 -11.769  0.00  0.00    +0.000 N 
ATOM     34  C   UNL     1       2.836 -16.740 -11.519  0.00  0.00    +0.000 C 
ATOM     35  C   UNL     1       0.547 -17.401 -12.491  0.00  0.00    +0.000 C 
ATOM     36  H   UNL     1       1.079 -15.736 -11.373  0.00  0.00    +0.000 HD
ENDBRANCH  29  34
ENDBRANCH  25  27
ENDBRANCH   3  25
TORSDOF 6
ENDMDL
MODEL 2
REMARK VINA RESULT:      -6.5      2.000      2.463
REMARK  Name = 11167602_Regorafenib.pdbqt.pdb
REMARK  6 active torsions:
REMARK  status: ('A' for Active; 'I' for Inactive)
REMARK    1  A    between atoms: C_2  and  N_10
REMARK    2  A    between atoms: C_3  and  O_25
REMARK    3  A    between atoms: N_9  and  C_15
REMARK    4  A    between atoms: C_16  and  C_24
REMARK    5  A    between atoms: O_25  and  C_27
REMARK    6  A    between atoms: C_29  and  C_34
REMARK                            x       y       z     vdW  Elec       q    Type
REMARK                         _______ _______ _______ _____ _____    ______ ____
ROOT
ATOM      1  F   UNL     1       0.949 -15.746  -4.719  0.00  0.00    +0.000 F 
ATOM      2  C   UNL     1      -0.612 -14.595  -6.074  0.00  0.00    +0.000 A 
ATOM      3  C   UNL     1       1.526 -13.548  -7.540  0.00  0.00    +0.000 A 
ATOM      4  C   UNL     1       0.708 -14.917  -5.746  0.00  0.00    +0.000 A 
ATOM      5  C   UNL     1      -0.845 -13.722  -7.136  0.00  0.00    +0.000 A 
ATOM      6  C   UNL     1       1.781 -14.392  -6.459  0.00  0.00    +0.000 A 
ATOM      7  C   UNL     1       0.219 -13.187  -7.861  0.00  0.00    +0.000 A 
ENDROOT
BRANCH   2  10
ATOM      8  O   UNL     1      -1.466 -13.920  -3.381  0.00  0.00    +0.000 OA
ATOM      9  N   UNL     1      -3.097 -15.546  -3.588  0.00  0.00    +0.000 N 
ATOM     10  N   UNL     1      -1.651 -15.171  -5.314  0.00  0.00    +0.000 N 
ATOM     11  C   UNL     1      -2.020 -14.796  -4.033  0.00  0.00    +0.000 C 
ATOM     12  H   UNL     1      -3.494 -16.224  -4.222  0.00  0.00    +0.000 HD
ATOM     13  H   UNL     1      -2.147 -15.932  -5.757  0.00  0.00    +0.000 HD
BRANCH   9  15
ATOM     14 CL   UNL     1      -5.644 -15.173   1.744  0.00  0.00    +0.000 Cl
ATOM     15  C   UNL     1      -3.711 -15.426  -2.328  0.00  0.00    +0.000 A 
ATOM     16  C   UNL     1      -4.280 -16.508  -0.217  0.00  0.00    +0.000 A 
ATOM     17  C   UNL     1      -3.694 -16.539  -1.488  0.00  0.00    +0.000 A 
ATOM     18  C   UNL     1      -4.325 -14.257  -1.888  0.00  0.00    +0.000 A 
ATOM     19  C   UNL     1      -4.892 -15.326   0.204  0.00  0.00    +0.000 A 
ATOM     20  C   UNL     1      -4.914 -14.207  -0.629  0.00  0.00    +0.000 A 
BRANCH  16  24
ATOM     21  F   UNL     1      -3.395 -18.696   0.129  0.00  0.00    +0.000 F 
ATOM     22  F   UNL     1      -3.770 -17.494   1.892  0.00  0.00    +0.000 F 
ATOM     23  F   UNL     1      -5.436 -18.346   0.770  0.00  0.00    +0.000 F 
ATOM     24  C   UNL     1      -4.226 -17.738   0.633  0.00  0.00    +0.000 C 
ENDBRANCH  16  24
ENDBRANCH   9  15
ENDBRANCH   2  10
BRANCH   3  25
ATOM     25  O   UNL     1       2.537 -12.934  -8.241  0.00  0.00    +0.000 OA
BRANCH  25  27
ATOM     26  N   UNL     1       4.731 -15.011 -11.119  0.00  0.00    +0.000 NA
ATOM     27  C   UNL     1       3.230 -13.687  -9.163  0.00  0.00    +0.000 A 
ATOM     28  C   UNL     1       2.674 -14.767  -9.841  0.00  0.00    +0.000 A 
ATOM     29  C   UNL     1       3.464 -15.393 -10.791  0.00  0.00    +0.000 A 
ATOM     30  C   UNL     1       4.511 -13.246  -9.478  0.00  0.00    +0.000 A 
ATOM     31  C   UNL     1       5.214 -13.940 -10.449  0.00  0.00    +0.000 A 
BRANCH  29  34
ATOM     32  O   UNL     1       3.664 -17.505 -11.820  0.00  0.00    +0.000 OA
ATOM     33  N   UNL     1       1.572 -16.461 -11.783  0.00  0.00    +0.000 N 
ATOM     34  C   UNL     1       2.927 -16.572 -11.518  0.00  0.00    +0.000 C 
ATOM     35  C   UNL     1       0.657 -17.343 -12.454  0.00  0.00    +0.000 C 
ATOM     36  H   UNL     1       1.149 -15.597 -11.446  0.00  0.00    +0.000 HD
ENDBRANCH  29  34
ENDBRANCH  25  27
ENDBRANCH   3  25
TORSDOF 6
ENDMDL
MODEL 3
REMARK VINA RESULT:      -6.1      4.517      5.986
REMARK  Name = 11167602_Regorafenib.pdbqt.pdb
REMARK  6 active torsions:
REMARK  status: ('A' for Active; 'I' for Inactive)
REMARK    1  A    between atoms: C_2  and  N_10
REMARK    2  A    between atoms: C_3  and  O_25
REMARK    3  A    between atoms: N_9  and  C_15
REMARK    4  A    between atoms: C_16  and  C_24
REMARK    5  A    between atoms: O_25  and  C_27
REMARK    6  A    between atoms: C_29  and  C_34
REMARK                            x       y       z     vdW  Elec       q    Type
REMARK                         _______ _______ _______ _____ _____    ______ ____
ROOT
ATOM      1  F   UNL     1       1.519 -13.354  -4.092  0.00  0.00    +0.000 F 
ATOM      2  C   UNL     1      -0.132 -14.427  -5.404  0.00  0.00    +0.000 A 
ATOM      3  C   UNL     1       0.355 -12.564  -7.430  0.00  0.00    +0.000 A 
ATOM      4  C   UNL     1       0.823 -13.420  -5.238  0.00  0.00    +0.000 A 
ATOM      5  C   UNL     1      -0.857 -14.475  -6.594  0.00  0.00    +0.000 A 
ATOM      6  C   UNL     1       1.065 -12.479  -6.233  0.00  0.00    +0.000 A 
ATOM      7  C   UNL     1      -0.626 -13.539  -7.602  0.00  0.00    +0.000 A 
ENDROOT
BRANCH   2  10
ATOM      8  O   UNL     1      -2.383 -14.667  -3.585  0.00  0.00    +0.000 OA
ATOM      9  N   UNL     1      -1.299 -16.468  -2.623  0.00  0.00    +0.000 N 
ATOM     10  N   UNL     1      -0.318 -15.354  -4.356  0.00  0.00    +0.000 N 
ATOM     11  C   UNL     1      -1.425 -15.425  -3.527  0.00  0.00    +0.000 C 
ATOM     12  H   UNL     1      -0.477 -17.050  -2.685  0.00  0.00    +0.000 HD
ATOM     13  H   UNL     1       0.442 -16.003  -4.207  0.00  0.00    +0.000 HD
BRANCH   9  15
ATOM     14 CL   UNL     1      -5.179 -18.016   1.574  0.00  0.00    +0.000 Cl
ATOM     15  C   UNL     1      -2.241 -16.810  -1.635  0.00  0.00    +0.000 A 
ATOM     16  C   UNL     1      -2.862 -18.347   0.155  0.00  0.00    +0.000 A 
ATOM     17  C   UNL     1      -1.981 -17.934  -0.851  0.00  0.00    +0.000 A 
ATOM     18  C   UNL     1      -3.404 -16.082  -1.407  0.00  0.00    +0.000 A 
ATOM     19  C   UNL     1      -4.025 -17.603   0.366  0.00  0.00    +0.000 A 
ATOM     20  C   UNL     1      -4.293 -16.477  -0.412  0.00  0.00    +0.000 A 
BRANCH  16  24
ATOM     21  F   UNL     1      -2.335 -19.286   2.283  0.00  0.00    +0.000 F 
ATOM     22  F   UNL     1      -3.495 -20.512   0.923  0.00  0.00    +0.000 F 
ATOM     23  F   UNL     1      -1.373 -20.166   0.552  0.00  0.00    +0.000 F 
ATOM     24  C   UNL     1      -2.522 -19.561   0.960  0.00  0.00    +0.000 C 
ENDBRANCH  16  24
ENDBRANCH   9  15
ENDBRANCH   2  10
BRANCH   3  25
ATOM     25  O   UNL     1       0.487 -11.625  -8.426  0.00  0.00    +0.000 OA
BRANCH  25  27
ATOM     26  N   UNL     1      -2.344  -8.562  -8.518  0.00  0.00    +0.000 NA
ATOM     27  C   UNL     1      -0.478 -10.648  -8.521  0.00  0.00    +0.000 A 
ATOM     28  C   UNL     1      -1.806 -10.913  -8.840  0.00  0.00    +0.000 A 
ATOM     29  C   UNL     1      -2.685  -9.843  -8.834  0.00  0.00    +0.000 A 
ATOM     30  C   UNL     1      -0.086  -9.360  -8.169  0.00  0.00    +0.000 A 
ATOM     31  C   UNL     1      -1.047  -8.362  -8.190  0.00  0.00    +0.000 A 
BRANCH  29  34
ATOM     32  O   UNL     1      -4.997  -9.900  -8.375  0.00  0.00    +0.000 OA
ATOM     33  N   UNL     1      -4.257 -10.476 -10.517  0.00  0.00    +0.000 N 
ATOM     34  C   UNL     1      -4.107 -10.070  -9.202  0.00  0.00    +0.000 C 
ATOM     35  C   UNL     1      -5.426 -10.807 -11.285  0.00  0.00    +0.000 C 
ATOM     36  H   UNL     1      -3.382 -10.560 -11.032  0.00  0.00    +0.000 HD
ENDBRANCH  29  34
ENDBRANCH  25  27
ENDBRANCH   3  25
TORSDOF 6
ENDMDL
MODEL 4
REMARK VINA RESULT:      -6.1     21.367     25.155
REMARK  Name = 11167602_Regorafenib.pdbqt.pdb
REMARK  6 active torsions:
REMARK  status: ('A' for Active; 'I' for Inactive)
REMARK    1  A    between atoms: C_2  and  N_10
REMARK    2  A    between atoms: C_3  and  O_25
REMARK    3  A    between atoms: N_9  and  C_15
REMARK    4  A    between atoms: C_16  and  C_24
REMARK    5  A    between atoms: O_25  and  C_27
REMARK    6  A    between atoms: C_29  and  C_34
REMARK                            x       y       z     vdW  Elec       q    Type
REMARK                         _______ _______ _______ _____ _____    ______ ____
ROOT
ATOM      1  F   UNL     1      -5.824 -35.614   0.691  0.00  0.00    +0.000 F 
ATOM      2  C   UNL     1      -3.955 -36.899   1.369  0.00  0.00    +0.000 A 
ATOM      3  C   UNL     1      -5.441 -37.790   3.562  0.00  0.00    +0.000 A 
ATOM      4  C   UNL     1      -5.268 -36.465   1.569  0.00  0.00    +0.000 A 
ATOM      5  C   UNL     1      -3.388 -37.771   2.297  0.00  0.00    +0.000 A 
ATOM      6  C   UNL     1      -6.013 -36.890   2.664  0.00  0.00    +0.000 A 
ATOM      7  C   UNL     1      -4.122 -38.207   3.399  0.00  0.00    +0.000 A 
ENDROOT
BRANCH   2  10
ATOM      8  O   UNL     1      -4.301 -37.691  -1.404  0.00  0.00    +0.000 OA
ATOM      9  N   UNL     1      -2.650 -36.167  -1.951  0.00  0.00    +0.000 N 
ATOM     10  N   UNL     1      -3.262 -36.434   0.231  0.00  0.00    +0.000 N 
ATOM     11  C   UNL     1      -3.482 -36.843  -1.073  0.00  0.00    +0.000 C 
ATOM     12  H   UNL     1      -2.032 -35.466  -1.571  0.00  0.00    +0.000 HD
ATOM     13  H   UNL     1      -2.537 -35.753   0.409  0.00  0.00    +0.000 HD
BRANCH   9  15
ATOM     14 CL   UNL     1      -2.535 -36.817  -7.836  0.00  0.00    +0.000 Cl
ATOM     15  C   UNL     1      -2.610 -36.353  -3.346  0.00  0.00    +0.000 A 
ATOM     16  C   UNL     1      -3.053 -35.405  -5.550  0.00  0.00    +0.000 A 
ATOM     17  C   UNL     1      -3.057 -35.307  -4.153  0.00  0.00    +0.000 A 
ATOM     18  C   UNL     1      -2.149 -37.520  -3.946  0.00  0.00    +0.000 A 
ATOM     19  C   UNL     1      -2.587 -36.586  -6.131  0.00  0.00    +0.000 A 
ATOM     20  C   UNL     1      -2.138 -37.637  -5.332  0.00  0.00    +0.000 A 
BRANCH  16  24
ATOM     21  F   UNL     1      -4.639 -34.550  -7.112  0.00  0.00    +0.000 F 
ATOM     22  F   UNL     1      -3.921 -33.186  -5.589  0.00  0.00    +0.000 F 
ATOM     23  F   UNL     1      -2.618 -33.777  -7.236  0.00  0.00    +0.000 F 
ATOM     24  C   UNL     1      -3.545 -34.245  -6.356  0.00  0.00    +0.000 C 
ENDBRANCH  16  24
ENDBRANCH   9  15
ENDBRANCH   2  10
BRANCH   3  25
ATOM     25  O   UNL     1      -6.090 -38.193   4.705  0.00  0.00    +0.000 OA
BRANCH  25  27
ATOM     26  N   UNL     1      -7.288 -35.290   7.453  0.00  0.00    +0.000 NA
ATOM     27  C   UNL     1      -6.410 -37.230   5.637  0.00  0.00    +0.000 A 
ATOM     28  C   UNL     1      -5.616 -36.117   5.891  0.00  0.00    +0.000 A 
ATOM     29  C   UNL     1      -6.092 -35.193   6.806  0.00  0.00    +0.000 A 
ATOM     30  C   UNL     1      -7.650 -37.362   6.255  0.00  0.00    +0.000 A 
ATOM     31  C   UNL     1      -8.035 -36.377   7.151  0.00  0.00    +0.000 A 
BRANCH  29  34
ATOM     32  O   UNL     1      -5.702 -32.873   6.957  0.00  0.00    +0.000 OA
ATOM     33  N   UNL     1      -4.018 -34.348   7.631  0.00  0.00    +0.000 N 
ATOM     34  C   UNL     1      -5.264 -34.005   7.135  0.00  0.00    +0.000 C 
ATOM     35  C   UNL     1      -2.910 -33.541   8.067  0.00  0.00    +0.000 C 
ATOM     36  H   UNL     1      -3.853 -35.352   7.695  0.00  0.00    +0.000 HD
ENDBRANCH  29  34
ENDBRANCH  25  27
ENDBRANCH   3  25
TORSDOF 6
ENDMDL
MODEL 5
REMARK VINA RESULT:      -6.0     19.887     23.416
REMARK  Name = 11167602_Regorafenib.pdbqt.pdb
REMARK  6 active torsions:
REMARK  status: ('A' for Active; 'I' for Inactive)
REMARK    1  A    between atoms: C_2  and  N_10
REMARK    2  A    between atoms: C_3  and  O_25
REMARK    3  A    between atoms: N_9  and  C_15
REMARK    4  A    between atoms: C_16  and  C_24
REMARK    5  A    between atoms: O_25  and  C_27
REMARK    6  A    between atoms: C_29  and  C_34
REMARK                            x       y       z     vdW  Elec       q    Type
REMARK                         _______ _______ _______ _____ _____    ______ ____
ROOT
ATOM      1  F   UNL     1      -5.049 -36.939  -6.153  0.00  0.00    +0.000 F 
ATOM      2  C   UNL     1      -5.324 -34.594  -6.000  0.00  0.00    +0.000 A 
ATOM      3  C   UNL     1      -6.401 -34.948  -3.445  0.00  0.00    +0.000 A 
ATOM      4  C   UNL     1      -5.454 -35.871  -5.448  0.00  0.00    +0.000 A 
ATOM      5  C   UNL     1      -5.762 -33.496  -5.261  0.00  0.00    +0.000 A 
ATOM      6  C   UNL     1      -6.001 -36.062  -4.183  0.00  0.00    +0.000 A 
ATOM      7  C   UNL     1      -6.312 -33.670  -3.992  0.00  0.00    +0.000 A 
ENDROOT
BRANCH   2  10
ATOM      8  O   UNL     1      -2.575 -33.974  -6.700  0.00  0.00    +0.000 OA
ATOM      9  N   UNL     1      -3.190 -34.172  -8.920  0.00  0.00    +0.000 N 
ATOM     10  N   UNL     1      -4.752 -34.474  -7.284  0.00  0.00    +0.000 N 
ATOM     11  C   UNL     1      -3.424 -34.187  -7.554  0.00  0.00    +0.000 C 
ATOM     12  H   UNL     1      -3.960 -34.391  -9.534  0.00  0.00    +0.000 HD
ATOM     13  H   UNL     1      -5.388 -34.600  -8.059  0.00  0.00    +0.000 HD
BRANCH   9  15
ATOM     14 CL   UNL     1       2.057 -33.176 -11.479  0.00  0.00    +0.000 Cl
ATOM     15  C   UNL     1      -1.952 -33.903  -9.533  0.00  0.00    +0.000 A 
ATOM     16  C   UNL     1       0.214 -34.776 -10.240  0.00  0.00    +0.000 A 
ATOM     17  C   UNL     1      -1.040 -34.953  -9.644  0.00  0.00    +0.000 A 
ATOM     18  C   UNL     1      -1.603 -32.650 -10.027  0.00  0.00    +0.000 A 
ATOM     19  C   UNL     1       0.544 -33.510 -10.728  0.00  0.00    +0.000 A 
ATOM     20  C   UNL     1      -0.360 -32.454 -10.622  0.00  0.00    +0.000 A 
BRANCH  16  24
ATOM     21  F   UNL     1       0.768 -36.983  -9.525  0.00  0.00    +0.000 F 
ATOM     22  F   UNL     1       1.220 -36.469 -11.582  0.00  0.00    +0.000 F 
ATOM     23  F   UNL     1       2.416 -35.643  -9.955  0.00  0.00    +0.000 F 
ATOM     24  C   UNL     1       1.143 -35.945 -10.328  0.00  0.00    +0.000 C 
ENDBRANCH  16  24
ENDBRANCH   9  15
ENDBRANCH   2  10
BRANCH   3  25
ATOM     25  O   UNL     1      -7.018 -35.067  -2.222  0.00  0.00    +0.000 OA
BRANCH  25  27
ATOM     26  N   UNL     1     -11.174 -34.899  -1.897  0.00  0.00    +0.000 NA
ATOM     27  C   UNL     1      -8.391 -34.970  -2.182  0.00  0.00    +0.000 A 
ATOM     28  C   UNL     1      -9.201 -35.110  -3.304  0.00  0.00    +0.000 A 
ATOM     29  C   UNL     1     -10.571 -35.057  -3.109  0.00  0.00    +0.000 A 
ATOM     30  C   UNL     1      -8.961 -34.830  -0.921  0.00  0.00    +0.000 A 
ATOM     31  C   UNL     1     -10.343 -34.794  -0.834  0.00  0.00    +0.000 A 
BRANCH  29  34
ATOM     32  O   UNL     1     -12.693 -35.108  -4.135  0.00  0.00    +0.000 OA
ATOM     33  N   UNL     1     -10.787 -35.341  -5.469  0.00  0.00    +0.000 N 
ATOM     34  C   UNL     1     -11.476 -35.168  -4.281  0.00  0.00    +0.000 C 
ATOM     35  C   UNL     1     -11.245 -35.496  -6.823  0.00  0.00    +0.000 C 
ATOM     36  H   UNL     1      -9.773 -35.368  -5.366  0.00  0.00    +0.000 HD
ENDBRANCH  29  34
ENDBRANCH  25  27
ENDBRANCH   3  25
TORSDOF 6
ENDMDL
MODEL 6
REMARK VINA RESULT:      -5.9      9.973     14.408
REMARK  Name = 11167602_Regorafenib.pdbqt.pdb
REMARK  6 active torsions:
REMARK  status: ('A' for Active; 'I' for Inactive)
REMARK    1  A    between atoms: C_2  and  N_10
REMARK    2  A    between atoms: C_3  and  O_25
REMARK    3  A    between atoms: N_9  and  C_15
REMARK    4  A    between atoms: C_16  and  C_24
REMARK    5  A    between atoms: O_25  and  C_27
REMARK    6  A    between atoms: C_29  and  C_34
REMARK                            x       y       z     vdW  Elec       q    Type
REMARK                         _______ _______ _______ _____ _____    ______ ____
ROOT
ATOM      1  F   UNL     1      -4.859 -14.792 -15.643  0.00  0.00    +0.000 F 
ATOM      2  C   UNL     1      -4.952 -17.156 -15.730  0.00  0.00    +0.000 A 
ATOM      3  C   UNL     1      -7.741 -16.986 -15.674  0.00  0.00    +0.000 A 
ATOM      4  C   UNL     1      -5.594 -15.915 -15.669  0.00  0.00    +0.000 A 
ATOM      5  C   UNL     1      -5.728 -18.313 -15.741  0.00  0.00    +0.000 A 
ATOM      6  C   UNL     1      -6.981 -15.819 -15.626  0.00  0.00    +0.000 A 
ATOM      7  C   UNL     1      -7.120 -18.233 -15.700  0.00  0.00    +0.000 A 
ENDROOT
BRANCH   2  10
ATOM      8  O   UNL     1      -3.064 -16.896 -13.538  0.00  0.00    +0.000 OA
ATOM      9  N   UNL     1      -1.367 -17.153 -15.087  0.00  0.00    +0.000 N 
ATOM     10  N   UNL     1      -3.542 -17.178 -15.780  0.00  0.00    +0.000 N 
ATOM     11  C   UNL     1      -2.693 -17.061 -14.692  0.00  0.00    +0.000 C 
ATOM     12  H   UNL     1      -1.176 -17.319 -16.065  0.00  0.00    +0.000 HD
ATOM     13  H   UNL     1      -3.139 -17.275 -16.701  0.00  0.00    +0.000 HD
BRANCH   9  15
ATOM     14 CL   UNL     1       3.303 -16.914 -11.455  0.00  0.00    +0.000 Cl
ATOM     15  C   UNL     1      -0.252 -17.064 -14.233  0.00  0.00    +0.000 A 
ATOM     16  C   UNL     1       1.180 -18.194 -12.614  0.00  0.00    +0.000 A 
ATOM     17  C   UNL     1       0.087 -18.193 -13.488  0.00  0.00    +0.000 A 
ATOM     18  C   UNL     1       0.517 -15.912 -14.103  0.00  0.00    +0.000 A 
ATOM     19  C   UNL     1       1.938 -17.028 -12.498  0.00  0.00    +0.000 A 
ATOM     20  C   UNL     1       1.607 -15.893 -13.238  0.00  0.00    +0.000 A 
BRANCH  16  24
ATOM     21  F   UNL     1       2.665 -20.019 -12.224  0.00  0.00    +0.000 F 
ATOM     22  F   UNL     1       1.608 -19.223 -10.507  0.00  0.00    +0.000 F 
ATOM     23  F   UNL     1       0.545 -20.408 -11.999  0.00  0.00    +0.000 F 
ATOM     24  C   UNL     1       1.489 -19.440 -11.846  0.00  0.00    +0.000 C 
ENDBRANCH  16  24
ENDBRANCH   9  15
ENDBRANCH   2  10
BRANCH   3  25
ATOM     25  O   UNL     1      -9.112 -16.970 -15.560  0.00  0.00    +0.000 OA
BRANCH  25  27
ATOM     26  N   UNL     1     -11.487 -16.364 -18.936  0.00  0.00    +0.000 NA
ATOM     27  C   UNL     1      -9.851 -16.823 -16.712  0.00  0.00    +0.000 A 
ATOM     28  C   UNL     1     -10.222 -17.890 -17.524  0.00  0.00    +0.000 A 
ATOM     29  C   UNL     1     -11.024 -17.606 -18.617  0.00  0.00    +0.000 A 
ATOM     30  C   UNL     1     -10.318 -15.541 -16.983  0.00  0.00    +0.000 A 
ATOM     31  C   UNL     1     -11.119 -15.366 -18.100  0.00  0.00    +0.000 A 
BRANCH  29  34
ATOM     32  O   UNL     1     -10.675 -19.668 -19.707  0.00  0.00    +0.000 OA
ATOM     33  N   UNL     1     -12.655 -18.494 -20.117  0.00  0.00    +0.000 N 
ATOM     34  C   UNL     1     -11.418 -18.707 -19.533  0.00  0.00    +0.000 C 
ATOM     35  C   UNL     1     -13.416 -19.278 -21.052  0.00  0.00    +0.000 C 
ATOM     36  H   UNL     1     -13.107 -17.624 -19.837  0.00  0.00    +0.000 HD
ENDBRANCH  29  34
ENDBRANCH  25  27
ENDBRANCH   3  25
TORSDOF 6
ENDMDL
MODEL 7
REMARK VINA RESULT:      -5.9      9.269     11.803
REMARK  Name = 11167602_Regorafenib.pdbqt.pdb
REMARK  6 active torsions:
REMARK  status: ('A' for Active; 'I' for Inactive)
REMARK    1  A    between atoms: C_2  and  N_10
REMARK    2  A    between atoms: C_3  and  O_25
REMARK    3  A    between atoms: N_9  and  C_15
REMARK    4  A    between atoms: C_16  and  C_24
REMARK    5  A    between atoms: O_25  and  C_27
REMARK    6  A    between atoms: C_29  and  C_34
REMARK                            x       y       z     vdW  Elec       q    Type
REMARK                         _______ _______ _______ _____ _____    ______ ____
ROOT
ATOM      1  F   UNL     1      -9.244 -12.944 -12.553  0.00  0.00    +0.000 F 
ATOM      2  C   UNL     1      -8.023 -12.476 -14.525  0.00  0.00    +0.000 A 
ATOM      3  C   UNL     1      -9.288 -14.647 -15.749  0.00  0.00    +0.000 A 
ATOM      4  C   UNL     1      -8.952 -13.251 -13.826  0.00  0.00    +0.000 A 
ATOM      5  C   UNL     1      -7.720 -12.817 -15.843  0.00  0.00    +0.000 A 
ATOM      6  C   UNL     1      -9.578 -14.342 -14.420  0.00  0.00    +0.000 A 
ATOM      7  C   UNL     1      -8.339 -13.907 -16.452  0.00  0.00    +0.000 A 
ENDROOT
BRANCH   2  10
ATOM      8  O   UNL     1      -5.699 -12.454 -12.783  0.00  0.00    +0.000 OA
ATOM      9  N   UNL     1      -5.983 -10.168 -12.582  0.00  0.00    +0.000 N 
ATOM     10  N   UNL     1      -7.433 -11.378 -13.863  0.00  0.00    +0.000 N 
ATOM     11  C   UNL     1      -6.313 -11.430 -13.051  0.00  0.00    +0.000 C 
ATOM     12  H   UNL     1      -6.543  -9.388 -12.892  0.00  0.00    +0.000 HD
ATOM     13  H   UNL     1      -7.894 -10.488 -13.997  0.00  0.00    +0.000 HD
BRANCH   9  15
ATOM     14 CL   UNL     1      -1.544  -8.875  -8.882  0.00  0.00    +0.000 Cl
ATOM     15  C   UNL     1      -4.906  -9.871 -11.726  0.00  0.00    +0.000 A 
ATOM     16  C   UNL     1      -4.193  -9.017  -9.555  0.00  0.00    +0.000 A 
ATOM     17  C   UNL     1      -5.202  -9.341 -10.470  0.00  0.00    +0.000 A 
ATOM     18  C   UNL     1      -3.576 -10.082 -12.075  0.00  0.00    +0.000 A 
ATOM     19  C   UNL     1      -2.865  -9.236  -9.925  0.00  0.00    +0.000 A 
ATOM     20  C   UNL     1      -2.559  -9.765 -11.179  0.00  0.00    +0.000 A 
BRANCH  16  24
ATOM     21  F   UNL     1      -3.991  -7.250  -7.966  0.00  0.00    +0.000 F 
ATOM     22  F   UNL     1      -5.918  -8.233  -8.110  0.00  0.00    +0.000 F 
ATOM     23  F   UNL     1      -4.228  -9.257  -7.184  0.00  0.00    +0.000 F 
ATOM     24  C   UNL     1      -4.580  -8.454  -8.224  0.00  0.00    +0.000 C 
ENDBRANCH  16  24
ENDBRANCH   9  15
ENDBRANCH   2  10
BRANCH   3  25
ATOM     25  O   UNL     1      -9.811 -15.754 -16.375  0.00  0.00    +0.000 OA
BRANCH  25  27
ATOM     26  N   UNL     1      -7.330 -18.612 -18.132  0.00  0.00    +0.000 NA
ATOM     27  C   UNL     1      -8.930 -16.660 -16.923  0.00  0.00    +0.000 A 
ATOM     28  C   UNL     1      -7.830 -17.166 -16.240  0.00  0.00    +0.000 A 
ATOM     29  C   UNL     1      -7.066 -18.122 -16.887  0.00  0.00    +0.000 A 
ATOM     30  C   UNL     1      -9.254 -17.145 -18.186  0.00  0.00    +0.000 A 
ATOM     31  C   UNL     1      -8.426 -18.106 -18.743  0.00  0.00    +0.000 A 
BRANCH  29  34
ATOM     32  O   UNL     1      -5.665 -19.879 -16.172  0.00  0.00    +0.000 OA
ATOM     33  N   UNL     1      -5.059 -17.676 -15.672  0.00  0.00    +0.000 N 
ATOM     34  C   UNL     1      -5.861 -18.668 -16.211  0.00  0.00    +0.000 C 
ATOM     35  C   UNL     1      -3.823 -17.742 -14.941  0.00  0.00    +0.000 C 
ATOM     36  H   UNL     1      -5.410 -16.730 -15.815  0.00  0.00    +0.000 HD
ENDBRANCH  29  34
ENDBRANCH  25  27
ENDBRANCH   3  25
TORSDOF 6
ENDMDL
MODEL 8
REMARK VINA RESULT:      -5.7     17.598     20.591
REMARK  Name = 11167602_Regorafenib.pdbqt.pdb
REMARK  6 active torsions:
REMARK  status: ('A' for Active; 'I' for Inactive)
REMARK    1  A    between atoms: C_2  and  N_10
REMARK    2  A    between atoms: C_3  and  O_25
REMARK    3  A    between atoms: N_9  and  C_15
REMARK    4  A    between atoms: C_16  and  C_24
REMARK    5  A    between atoms: O_25  and  C_27
REMARK    6  A    between atoms: C_29  and  C_34
REMARK                            x       y       z     vdW  Elec       q    Type
REMARK                         _______ _______ _______ _____ _____    ______ ____
ROOT
ATOM      1  F   UNL     1       7.841 -30.214  -4.060  0.00  0.00    +0.000 F 
ATOM      2  C   UNL     1       5.546 -29.642  -4.006  0.00  0.00    +0.000 A 
ATOM      3  C   UNL     1       5.722 -29.451  -1.223  0.00  0.00    +0.000 A 
ATOM      4  C   UNL     1       6.753 -29.888  -3.346  0.00  0.00    +0.000 A 
ATOM      5  C   UNL     1       4.421 -29.318  -3.249  0.00  0.00    +0.000 A 
ATOM      6  C   UNL     1       6.850 -29.810  -1.960  0.00  0.00    +0.000 A 
ATOM      7  C   UNL     1       4.502 -29.235  -1.860  0.00  0.00    +0.000 A 
ENDROOT
BRANCH   2  10
ATOM      8  O   UNL     1       5.119 -31.991  -5.660  0.00  0.00    +0.000 OA
ATOM      9  N   UNL     1       5.315 -30.615  -7.508  0.00  0.00    +0.000 N 
ATOM     10  N   UNL     1       5.522 -29.730  -5.414  0.00  0.00    +0.000 N 
ATOM     11  C   UNL     1       5.301 -30.884  -6.148  0.00  0.00    +0.000 C 
ATOM     12  H   UNL     1       5.445 -29.657  -7.798  0.00  0.00    +0.000 HD
ATOM     13  H   UNL     1       5.699 -28.867  -5.909  0.00  0.00    +0.000 HD
BRANCH   9  15
ATOM     14 CL   UNL     1       4.411 -34.581 -11.811  0.00  0.00    +0.000 Cl
ATOM     15  C   UNL     1       5.133 -31.565  -8.530  0.00  0.00    +0.000 A 
ATOM     16  C   UNL     1       3.570 -32.670 -10.042  0.00  0.00    +0.000 A 
ATOM     17  C   UNL     1       3.842 -31.747  -9.026  0.00  0.00    +0.000 A 
ATOM     18  C   UNL     1       6.174 -32.321  -9.061  0.00  0.00    +0.000 A 
ATOM     19  C   UNL     1       4.628 -33.418 -10.560  0.00  0.00    +0.000 A 
ATOM     20  C   UNL     1       5.923 -33.244 -10.071  0.00  0.00    +0.000 A 
BRANCH  16  24
ATOM     21  F   UNL     1       1.294 -31.973  -9.896  0.00  0.00    +0.000 F 
ATOM     22  F   UNL     1       2.028 -32.538 -11.855  0.00  0.00    +0.000 F 
ATOM     23  F   UNL     1       1.658 -34.063 -10.339  0.00  0.00    +0.000 F 
ATOM     24  C   UNL     1       2.163 -32.813 -10.529  0.00  0.00    +0.000 C 
ENDBRANCH  16  24
ENDBRANCH   9  15
ENDBRANCH   2  10
BRANCH   3  25
ATOM     25  O   UNL     1       5.726 -29.427   0.152  0.00  0.00    +0.000 OA
BRANCH  25  27
ATOM     26  N   UNL     1       3.672 -32.309   2.363  0.00  0.00    +0.000 NA
ATOM     27  C   UNL     1       5.034 -30.418   0.814  0.00  0.00    +0.000 A 
ATOM     28  C   UNL     1       5.161 -31.770   0.515  0.00  0.00    +0.000 A 
ATOM     29  C   UNL     1       4.457 -32.663   1.306  0.00  0.00    +0.000 A 
ATOM     30  C   UNL     1       4.263 -30.009   1.897  0.00  0.00    +0.000 A 
ATOM     31  C   UNL     1       3.604 -30.984   2.628  0.00  0.00    +0.000 A 
BRANCH  29  34
ATOM     32  O   UNL     1       3.628 -34.870   1.346  0.00  0.00    +0.000 OA
ATOM     33  N   UNL     1       5.695 -34.458   0.334  0.00  0.00    +0.000 N 
ATOM     34  C   UNL     1       4.533 -34.116   1.004  0.00  0.00    +0.000 C 
ATOM     35  C   UNL     1       6.182 -35.724  -0.144  0.00  0.00    +0.000 C 
ATOM     36  H   UNL     1       6.320 -33.674   0.150  0.00  0.00    +0.000 HD
ENDBRANCH  29  34
ENDBRANCH  25  27
ENDBRANCH   3  25
TORSDOF 6
ENDMDL
MODEL 9
REMARK VINA RESULT:      -5.7     13.673     16.629
REMARK  Name = 11167602_Regorafenib.pdbqt.pdb
REMARK  6 active torsions:
REMARK  status: ('A' for Active; 'I' for Inactive)
REMARK    1  A    between atoms: C_2  and  N_10
REMARK    2  A    between atoms: C_3  and  O_25
REMARK    3  A    between atoms: N_9  and  C_15
REMARK    4  A    between atoms: C_16  and  C_24
REMARK    5  A    between atoms: O_25  and  C_27
REMARK    6  A    between atoms: C_29  and  C_34
REMARK                            x       y       z     vdW  Elec       q    Type
REMARK                         _______ _______ _______ _____ _____    ______ ____
ROOT
ATOM      1  F   UNL     1       1.199 -28.206 -17.006  0.00  0.00    +0.000 F 
ATOM      2  C   UNL     1       0.471 -28.841 -14.846  0.00  0.00    +0.000 A 
ATOM      3  C   UNL     1       3.012 -28.205 -13.871  0.00  0.00    +0.000 A 
ATOM      4  C   UNL     1       1.469 -28.365 -15.702  0.00  0.00    +0.000 A 
ATOM      5  C   UNL     1       0.771 -29.014 -13.496  0.00  0.00    +0.000 A 
ATOM      6  C   UNL     1       2.741 -28.058 -15.231  0.00  0.00    +0.000 A 
ATOM      7  C   UNL     1       2.042 -28.711 -13.008  0.00  0.00    +0.000 A 
ENDROOT
BRANCH   2  10
ATOM      8  O   UNL     1      -1.924 -27.199 -14.784  0.00  0.00    +0.000 OA
ATOM      9  N   UNL     1      -2.984 -28.858 -15.996  0.00  0.00    +0.000 N 
ATOM     10  N   UNL     1      -0.800 -29.123 -15.391  0.00  0.00    +0.000 N 
ATOM     11  C   UNL     1      -1.905 -28.290 -15.339  0.00  0.00    +0.000 C 
ATOM     12  H   UNL     1      -2.846 -29.752 -16.445  0.00  0.00    +0.000 HD
ATOM     13  H   UNL     1      -0.892 -30.022 -15.842  0.00  0.00    +0.000 HD
BRANCH   9  15
ATOM     14 CL   UNL     1      -8.400 -26.499 -16.406  0.00  0.00    +0.000 Cl
ATOM     15  C   UNL     1      -4.261 -28.280 -16.121  0.00  0.00    +0.000 A 
ATOM     16  C   UNL     1      -6.535 -28.134 -15.249  0.00  0.00    +0.000 A 
ATOM     17  C   UNL     1      -5.238 -28.659 -15.200  0.00  0.00    +0.000 A 
ATOM     18  C   UNL     1      -4.586 -27.357 -17.109  0.00  0.00    +0.000 A 
ATOM     19  C   UNL     1      -6.840 -27.210 -16.250  0.00  0.00    +0.000 A 
ATOM     20  C   UNL     1      -5.870 -26.824 -17.175  0.00  0.00    +0.000 A 
BRANCH  16  24
ATOM     21  F   UNL     1      -6.963 -29.239 -13.179  0.00  0.00    +0.000 F 
ATOM     22  F   UNL     1      -8.229 -27.552 -13.678  0.00  0.00    +0.000 F 
ATOM     23  F   UNL     1      -8.457 -29.447 -14.735  0.00  0.00    +0.000 F 
ATOM     24  C   UNL     1      -7.535 -28.583 -14.231  0.00  0.00    +0.000 C 
ENDBRANCH  16  24
ENDBRANCH   9  15
ENDBRANCH   2  10
BRANCH   3  25
ATOM     25  O   UNL     1       4.267 -27.993 -13.349  0.00  0.00    +0.000 OA
BRANCH  25  27
ATOM     26  N   UNL     1       5.149 -24.171 -11.929  0.00  0.00    +0.000 NA
ATOM     27  C   UNL     1       4.591 -26.716 -12.952  0.00  0.00    +0.000 A 
ATOM     28  C   UNL     1       4.445 -25.600 -13.769  0.00  0.00    +0.000 A 
ATOM     29  C   UNL     1       4.745 -24.365 -13.217  0.00  0.00    +0.000 A 
ATOM     30  C   UNL     1       4.978 -26.566 -11.624  0.00  0.00    +0.000 A 
ATOM     31  C   UNL     1       5.249 -25.285 -11.169  0.00  0.00    +0.000 A 
BRANCH  29  34
ATOM     32  O   UNL     1       4.459 -23.244 -15.271  0.00  0.00    +0.000 OA
ATOM     33  N   UNL     1       4.764 -21.981 -13.327  0.00  0.00    +0.000 N 
ATOM     34  C   UNL     1       4.637 -23.147 -14.061  0.00  0.00    +0.000 C 
ATOM     35  C   UNL     1       4.731 -20.598 -13.721  0.00  0.00    +0.000 C 
ATOM     36  H   UNL     1       4.912 -22.126 -12.329  0.00  0.00    +0.000 HD
ENDBRANCH  29  34
ENDBRANCH  25  27
ENDBRANCH   3  25
TORSDOF 6
ENDMDL
