MODEL 1
REMARK VINA RESULT:      -5.9      0.000      0.000
REMARK  Name = 114778_Kahweol.pdbqt.pdb
REMARK  3 active torsions:
REMARK  status: ('A' for Active; 'I' for Inactive)
REMARK    1  A    between atoms: C_8  and  O_21
REMARK    2  A    between atoms: C_8  and  C_23
REMARK    3  A    between atoms: C_23  and  O_24
REMARK                            x       y       z     vdW  Elec       q    Type
REMARK                         _______ _______ _______ _____ _____    ______ ____
ROOT
ATOM      1  O   UNL     1     -10.799 -36.716  -5.918  0.00  0.00    +0.000 OA
ATOM      2  C   UNL     1      -5.342 -33.653  -5.676  0.00  0.00    +0.000 C 
ATOM      3  C   UNL     1      -5.621 -35.173  -6.054  0.00  0.00    +0.000 C 
ATOM      4  C   UNL     1      -3.185 -33.602  -6.713  0.00  0.00    +0.000 C 
ATOM      5  C   UNL     1      -3.881 -33.541  -5.417  0.00  0.00    +0.000 C 
ATOM      6  C   UNL     1      -5.349 -32.854  -6.921  0.00  0.00    +0.000 C 
ATOM      7  C   UNL     1      -6.631 -36.030  -5.283  0.00  0.00    +0.000 C 
ATOM      8  C   UNL     1      -4.059 -32.622  -7.601  0.00  0.00    +0.000 C 
ATOM      9  C   UNL     1      -6.273 -33.239  -4.659  0.00  0.00    +0.000 C 
ATOM     10  C   UNL     1      -4.527 -35.746  -6.822  0.00  0.00    +0.000 C 
ATOM     11  C   UNL     1      -3.228 -34.994  -7.139  0.00  0.00    +0.000 C 
ATOM     12  C   UNL     1      -7.809 -35.214  -4.516  0.00  0.00    +0.000 C 
ATOM     13  C   UNL     1      -7.474 -33.913  -4.076  0.00  0.00    +0.000 C 
ATOM     14  C   UNL     1      -5.876 -36.846  -4.184  0.00  0.00    +0.000 C 
ATOM     15  C   UNL     1      -7.335 -36.931  -6.236  0.00  0.00    +0.000 C 
ATOM     16  C   UNL     1      -9.176 -35.579  -4.809  0.00  0.00    +0.000 A 
ATOM     17  C   UNL     1      -8.477 -37.202  -6.480  0.00  0.00    +0.000 C 
ATOM     18  C   UNL     1      -9.481 -36.537  -5.754  0.00  0.00    +0.000 A 
ATOM     19  C   UNL     1     -10.425 -35.119  -4.344  0.00  0.00    +0.000 A 
ATOM     20  C   UNL     1     -11.386 -35.844  -5.035  0.00  0.00    +0.000 A 
ENDROOT
BRANCH   8  21
ATOM     21  O   UNL     1      -3.654 -31.281  -7.393  0.00  0.00    +0.000 OA
ATOM     22  H   UNL     1      -4.385 -30.729  -7.716  0.00  0.00    +0.000 HD
ENDBRANCH   8  21
BRANCH   8  23
ATOM     23  C   UNL     1      -4.037 -32.929  -9.037  0.00  0.00    +0.000 C 
BRANCH  23  24
ATOM     24  O   UNL     1      -4.018 -33.225 -10.337  0.00  0.00    +0.000 OA
ATOM     25  H   UNL     1      -3.124 -33.489 -10.620  0.00  0.00    +0.000 HD
ENDBRANCH  23  24
ENDBRANCH   8  23
TORSDOF 3
ENDMDL
MODEL 2
REMARK VINA RESULT:      -4.6      8.745     10.860
REMARK  Name = 114778_Kahweol.pdbqt.pdb
REMARK  3 active torsions:
REMARK  status: ('A' for Active; 'I' for Inactive)
REMARK    1  A    between atoms: C_8  and  O_21
REMARK    2  A    between atoms: C_8  and  C_23
REMARK    3  A    between atoms: C_23  and  O_24
REMARK                            x       y       z     vdW  Elec       q    Type
REMARK                         _______ _______ _______ _____ _____    ______ ____
ROOT
ATOM      1  O   UNL     1       2.556 -36.912 -10.482  0.00  0.00    +0.000 OA
ATOM      2  C   UNL     1       0.513 -31.356 -12.524  0.00  0.00    +0.000 C 
ATOM      3  C   UNL     1       1.990 -31.795 -12.129  0.00  0.00    +0.000 C 
ATOM      4  C   UNL     1       1.226 -29.464 -13.806  0.00  0.00    +0.000 C 
ATOM      5  C   UNL     1       0.514 -29.869 -12.582  0.00  0.00    +0.000 C 
ATOM      6  C   UNL     1       0.333 -31.576 -13.976  0.00  0.00    +0.000 C 
ATOM      7  C   UNL     1       2.277 -32.670 -10.904  0.00  0.00    +0.000 C 
ATOM      8  C   UNL     1       0.606 -30.445 -14.886  0.00  0.00    +0.000 C 
ATOM      9  C   UNL     1      -0.427 -32.027 -11.665  0.00  0.00    +0.000 C 
ATOM     10  C   UNL     1       2.989 -30.922 -12.724  0.00  0.00    +0.000 C 
ATOM     11  C   UNL     1       2.643 -29.676 -13.549  0.00  0.00    +0.000 C 
ATOM     12  C   UNL     1       1.050 -33.612 -10.406  0.00  0.00    +0.000 C 
ATOM     13  C   UNL     1      -0.250 -33.117 -10.657  0.00  0.00    +0.000 C 
ATOM     14  C   UNL     1       2.644 -31.751  -9.694  0.00  0.00    +0.000 C 
ATOM     15  C   UNL     1       3.388 -33.609 -11.224  0.00  0.00    +0.000 C 
ATOM     16  C   UNL     1       1.303 -35.030 -10.279  0.00  0.00    +0.000 A 
ATOM     17  C   UNL     1       3.567 -34.791 -11.133  0.00  0.00    +0.000 C 
ATOM     18  C   UNL     1       2.517 -35.580 -10.630  0.00  0.00    +0.000 A 
ATOM     19  C   UNL     1       0.511 -36.124  -9.876  0.00  0.00    +0.000 A 
ATOM     20  C   UNL     1       1.315 -37.250 -10.002  0.00  0.00    +0.000 A 
ENDROOT
BRANCH   8  21
ATOM     21  O   UNL     1      -0.621 -29.927 -15.370  0.00  0.00    +0.000 OA
ATOM     22  H   UNL     1      -0.408 -29.064 -15.763  0.00  0.00    +0.000 HD
ENDBRANCH   8  21
BRANCH   8  23
ATOM     23  C   UNL     1       1.498 -30.742 -16.014  0.00  0.00    +0.000 C 
BRANCH  23  24
ATOM     24  O   UNL     1       2.308 -30.993 -17.043  0.00  0.00    +0.000 OA
ATOM     25  H   UNL     1       2.152 -30.364 -17.770  0.00  0.00    +0.000 HD
ENDBRANCH  23  24
ENDBRANCH   8  23
TORSDOF 3
ENDMDL
MODEL 3
REMARK VINA RESULT:      -4.6     11.575     13.699
REMARK  Name = 114778_Kahweol.pdbqt.pdb
REMARK  3 active torsions:
REMARK  status: ('A' for Active; 'I' for Inactive)
REMARK    1  A    between atoms: C_8  and  O_21
REMARK    2  A    between atoms: C_8  and  C_23
REMARK    3  A    between atoms: C_23  and  O_24
REMARK                            x       y       z     vdW  Elec       q    Type
REMARK                         _______ _______ _______ _____ _____    ______ ____
ROOT
ATOM      1  O   UNL     1      -1.711 -31.421 -17.729  0.00  0.00    +0.000 OA
ATOM      2  C   UNL     1      -6.326 -27.532 -16.058  0.00  0.00    +0.000 C 
ATOM      3  C   UNL     1      -6.007 -28.150 -17.489  0.00  0.00    +0.000 C 
ATOM      4  C   UNL     1      -8.594 -26.990 -16.598  0.00  0.00    +0.000 C 
ATOM      5  C   UNL     1      -7.277 -26.410 -16.283  0.00  0.00    +0.000 C 
ATOM      6  C   UNL     1      -7.283 -28.423 -15.367  0.00  0.00    +0.000 C 
ATOM      7  C   UNL     1      -4.575 -28.266 -18.023  0.00  0.00    +0.000 C 
ATOM      8  C   UNL     1      -8.724 -28.125 -15.500  0.00  0.00    +0.000 C 
ATOM      9  C   UNL     1      -5.090 -27.280 -15.364  0.00  0.00    +0.000 C 
ATOM     10  C   UNL     1      -7.172 -28.123 -18.358  0.00  0.00    +0.000 C 
ATOM     11  C   UNL     1      -8.510 -27.485 -17.964  0.00  0.00    +0.000 C 
ATOM     12  C   UNL     1      -3.403 -28.322 -16.897  0.00  0.00    +0.000 C 
ATOM     13  C   UNL     1      -3.675 -27.642 -15.689  0.00  0.00    +0.000 C 
ATOM     14  C   UNL     1      -4.262 -27.024 -18.920  0.00  0.00    +0.000 C 
ATOM     15  C   UNL     1      -4.442 -29.534 -18.792  0.00  0.00    +0.000 C 
ATOM     16  C   UNL     1      -2.485 -29.437 -16.942  0.00  0.00    +0.000 A 
ATOM     17  C   UNL     1      -3.682 -30.461 -18.796  0.00  0.00    +0.000 C 
ATOM     18  C   UNL     1      -2.631 -30.456 -17.861  0.00  0.00    +0.000 A 
ATOM     19  C   UNL     1      -1.369 -29.807 -16.165  0.00  0.00    +0.000 A 
ATOM     20  C   UNL     1      -0.920 -31.015 -16.683  0.00  0.00    +0.000 A 
ENDROOT
BRANCH   8  21
ATOM     21  O   UNL     1      -9.203 -27.577 -14.284  0.00  0.00    +0.000 OA
ATOM     22  H   UNL     1      -9.716 -26.790 -14.531  0.00  0.00    +0.000 HD
ENDBRANCH   8  21
BRANCH   8  23
ATOM     23  C   UNL     1      -9.570 -29.257 -15.900  0.00  0.00    +0.000 C 
BRANCH  23  24
ATOM     24  O   UNL     1     -10.336 -30.292 -16.247  0.00  0.00    +0.000 OA
ATOM     25  H   UNL     1     -10.901 -30.066 -17.007  0.00  0.00    +0.000 HD
ENDBRANCH  23  24
ENDBRANCH   8  23
TORSDOF 3
ENDMDL
MODEL 4
REMARK VINA RESULT:      -4.5     29.830     31.969
REMARK  Name = 114778_Kahweol.pdbqt.pdb
REMARK  3 active torsions:
REMARK  status: ('A' for Active; 'I' for Inactive)
REMARK    1  A    between atoms: C_8  and  O_21
REMARK    2  A    between atoms: C_8  and  C_23
REMARK    3  A    between atoms: C_23  and  O_24
REMARK                            x       y       z     vdW  Elec       q    Type
REMARK                         _______ _______ _______ _____ _____    ______ ____
ROOT
ATOM      1  O   UNL     1      -8.520   0.684  -6.038  0.00  0.00    +0.000 OA
ATOM      2  C   UNL     1     -10.807  -5.051  -4.992  0.00  0.00    +0.000 C 
ATOM      3  C   UNL     1     -11.584  -3.722  -5.394  0.00  0.00    +0.000 C 
ATOM      4  C   UNL     1     -12.575  -6.509  -5.687  0.00  0.00    +0.000 C 
ATOM      5  C   UNL     1     -11.835  -6.015  -4.514  0.00  0.00    +0.000 C 
ATOM      6  C   UNL     1     -10.462  -5.783  -6.231  0.00  0.00    +0.000 C 
ATOM      7  C   UNL     1     -11.238  -2.362  -4.779  0.00  0.00    +0.000 C 
ATOM      8  C   UNL     1     -11.402  -6.817  -6.708  0.00  0.00    +0.000 C 
ATOM      9  C   UNL     1      -9.702  -4.714  -4.133  0.00  0.00    +0.000 C 
ATOM     10  C   UNL     1     -12.882  -4.014  -5.980  0.00  0.00    +0.000 C 
ATOM     11  C   UNL     1     -13.460  -5.430  -6.101  0.00  0.00    +0.000 C 
ATOM     12  C   UNL     1      -9.723  -2.209  -4.209  0.00  0.00    +0.000 C 
ATOM     13  C   UNL     1      -9.119  -3.396  -3.735  0.00  0.00    +0.000 C 
ATOM     14  C   UNL     1     -12.191  -2.090  -3.570  0.00  0.00    +0.000 C 
ATOM     15  C   UNL     1     -11.373  -1.306  -5.820  0.00  0.00    +0.000 C 
ATOM     16  C   UNL     1      -8.929  -1.108  -4.705  0.00  0.00    +0.000 A 
ATOM     17  C   UNL     1     -10.688  -0.413  -6.234  0.00  0.00    +0.000 C 
ATOM     18  C   UNL     1      -9.407  -0.253  -5.676  0.00  0.00    +0.000 A 
ATOM     19  C   UNL     1      -7.619  -0.660  -4.441  0.00  0.00    +0.000 A 
ATOM     20  C   UNL     1      -7.413   0.439  -5.264  0.00  0.00    +0.000 A 
ENDROOT
BRANCH   8  21
ATOM     21  O   UNL     1     -10.856  -8.100  -6.453  0.00  0.00    +0.000 OA
ATOM     22  H   UNL     1     -10.760  -8.161  -5.488  0.00  0.00    +0.000 HD
ENDBRANCH   8  21
BRANCH   8  23
ATOM     23  C   UNL     1     -11.790  -6.717  -8.121  0.00  0.00    +0.000 C 
BRANCH  23  24
ATOM     24  O   UNL     1     -12.155  -6.613  -9.399  0.00  0.00    +0.000 OA
ATOM     25  H   UNL     1     -12.369  -7.487  -9.771  0.00  0.00    +0.000 HD
ENDBRANCH  23  24
ENDBRANCH   8  23
TORSDOF 3
ENDMDL
MODEL 5
REMARK VINA RESULT:      -4.4      3.688      5.891
REMARK  Name = 114778_Kahweol.pdbqt.pdb
REMARK  3 active torsions:
REMARK  status: ('A' for Active; 'I' for Inactive)
REMARK    1  A    between atoms: C_8  and  O_21
REMARK    2  A    between atoms: C_8  and  C_23
REMARK    3  A    between atoms: C_23  and  O_24
REMARK                            x       y       z     vdW  Elec       q    Type
REMARK                         _______ _______ _______ _____ _____    ______ ____
ROOT
ATOM      1  O   UNL     1      -3.989 -41.092  -8.668  0.00  0.00    +0.000 OA
ATOM      2  C   UNL     1      -3.006 -35.874  -5.347  0.00  0.00    +0.000 C 
ATOM      3  C   UNL     1      -3.373 -36.026  -6.888  0.00  0.00    +0.000 C 
ATOM      4  C   UNL     1      -3.698 -33.586  -5.223  0.00  0.00    +0.000 C 
ATOM      5  C   UNL     1      -2.528 -34.478  -5.161  0.00  0.00    +0.000 C 
ATOM      6  C   UNL     1      -4.262 -35.721  -4.582  0.00  0.00    +0.000 C 
ATOM      7  C   UNL     1      -2.740 -37.107  -7.771  0.00  0.00    +0.000 C 
ATOM      8  C   UNL     1      -4.742 -34.351  -4.307  0.00  0.00    +0.000 C 
ATOM      9  C   UNL     1      -2.159 -36.969  -4.951  0.00  0.00    +0.000 C 
ATOM     10  C   UNL     1      -3.944 -34.803  -7.428  0.00  0.00    +0.000 C 
ATOM     11  C   UNL     1      -4.079 -33.503  -6.625  0.00  0.00    +0.000 C 
ATOM     12  C   UNL     1      -2.191 -38.424  -6.992  0.00  0.00    +0.000 C 
ATOM     13  C   UNL     1      -1.747 -38.216  -5.667  0.00  0.00    +0.000 C 
ATOM     14  C   UNL     1      -1.512 -36.498  -8.523  0.00  0.00    +0.000 C 
ATOM     15  C   UNL     1      -3.761 -37.615  -8.729  0.00  0.00    +0.000 C 
ATOM     16  C   UNL     1      -2.680 -39.712  -7.428  0.00  0.00    +0.000 A 
ATOM     17  C   UNL     1      -4.169 -38.692  -9.058  0.00  0.00    +0.000 C 
ATOM     18  C   UNL     1      -3.629 -39.824  -8.423  0.00  0.00    +0.000 A 
ATOM     19  C   UNL     1      -2.429 -41.036  -7.015  0.00  0.00    +0.000 A 
ATOM     20  C   UNL     1      -3.237 -41.846  -7.802  0.00  0.00    +0.000 A 
ENDROOT
BRANCH   8  21
ATOM     21  O   UNL     1      -4.517 -34.040  -2.943  0.00  0.00    +0.000 OA
ATOM     22  H   UNL     1      -4.940 -33.178  -2.794  0.00  0.00    +0.000 HD
ENDBRANCH   8  21
BRANCH   8  23
ATOM     23  C   UNL     1      -6.146 -34.093  -4.649  0.00  0.00    +0.000 C 
BRANCH  23  24
ATOM     24  O   UNL     1      -7.427 -33.872  -4.949  0.00  0.00    +0.000 OA
ATOM     25  H   UNL     1      -7.679 -34.344  -5.762  0.00  0.00    +0.000 HD
ENDBRANCH  23  24
ENDBRANCH   8  23
TORSDOF 3
ENDMDL
MODEL 6
REMARK VINA RESULT:      -4.3     20.734     23.131
REMARK  Name = 114778_Kahweol.pdbqt.pdb
REMARK  3 active torsions:
REMARK  status: ('A' for Active; 'I' for Inactive)
REMARK    1  A    between atoms: C_8  and  O_21
REMARK    2  A    between atoms: C_8  and  C_23
REMARK    3  A    between atoms: C_23  and  O_24
REMARK                            x       y       z     vdW  Elec       q    Type
REMARK                         _______ _______ _______ _____ _____    ______ ____
ROOT
ATOM      1  O   UNL     1      -8.581 -17.726 -16.170  0.00  0.00    +0.000 OA
ATOM      2  C   UNL     1     -14.137 -14.868 -15.754  0.00  0.00    +0.000 C 
ATOM      3  C   UNL     1     -13.545 -15.736 -16.949  0.00  0.00    +0.000 C 
ATOM      4  C   UNL     1     -16.408 -15.094 -16.477  0.00  0.00    +0.000 C 
ATOM      5  C   UNL     1     -15.307 -14.131 -16.304  0.00  0.00    +0.000 C 
ATOM      6  C   UNL     1     -14.911 -15.764 -14.866  0.00  0.00    +0.000 C 
ATOM      7  C   UNL     1     -12.084 -15.612 -17.396  0.00  0.00    +0.000 C 
ATOM      8  C   UNL     1     -16.362 -15.895 -15.110  0.00  0.00    +0.000 C 
ATOM      9  C   UNL     1     -13.070 -14.132 -15.128  0.00  0.00    +0.000 C 
ATOM     10  C   UNL     1     -14.595 -16.241 -17.819  0.00  0.00    +0.000 C 
ATOM     11  C   UNL     1     -16.079 -15.891 -17.650  0.00  0.00    +0.000 C 
ATOM     12  C   UNL     1     -11.045 -15.066 -16.272  0.00  0.00    +0.000 C 
ATOM     13  C   UNL     1     -11.586 -14.187 -15.306  0.00  0.00    +0.000 C 
ATOM     14  C   UNL     1     -11.999 -14.613 -18.595  0.00  0.00    +0.000 C 
ATOM     15  C   UNL     1     -11.576 -16.958 -17.779  0.00  0.00    +0.000 C 
ATOM     16  C   UNL     1      -9.884 -15.876 -15.984  0.00  0.00    +0.000 A 
ATOM     17  C   UNL     1     -10.616 -17.624 -17.508  0.00  0.00    +0.000 C 
ATOM     18  C   UNL     1      -9.691 -17.101 -16.586  0.00  0.00    +0.000 A 
ATOM     19  C   UNL     1      -8.790 -15.727 -15.108  0.00  0.00    +0.000 A 
ATOM     20  C   UNL     1      -8.014 -16.869 -15.260  0.00  0.00    +0.000 A 
ENDROOT
BRANCH   8  21
ATOM     21  O   UNL     1     -17.071 -15.191 -14.106  0.00  0.00    +0.000 OA
ATOM     22  H   UNL     1     -16.611 -15.382 -13.272  0.00  0.00    +0.000 HD
ENDBRANCH   8  21
BRANCH   8  23
ATOM     23  C   UNL     1     -16.866 -17.271 -15.200  0.00  0.00    +0.000 C 
BRANCH  23  24
ATOM     24  O   UNL     1     -17.315 -18.525 -15.267  0.00  0.00    +0.000 OA
ATOM     25  H   UNL     1     -17.333 -18.935 -14.384  0.00  0.00    +0.000 HD
ENDBRANCH  23  24
ENDBRANCH   8  23
TORSDOF 3
ENDMDL
MODEL 7
REMARK VINA RESULT:      -4.2     18.218     21.214
REMARK  Name = 114778_Kahweol.pdbqt.pdb
REMARK  3 active torsions:
REMARK  status: ('A' for Active; 'I' for Inactive)
REMARK    1  A    between atoms: C_8  and  O_21
REMARK    2  A    between atoms: C_8  and  C_23
REMARK    3  A    between atoms: C_23  and  O_24
REMARK                            x       y       z     vdW  Elec       q    Type
REMARK                         _______ _______ _______ _____ _____    ______ ____
ROOT
ATOM      1  O   UNL     1      -3.908 -12.390 -15.376  0.00  0.00    +0.000 OA
ATOM      2  C   UNL     1      -2.708 -18.400 -16.663  0.00  0.00    +0.000 C 
ATOM      3  C   UNL     1      -3.831 -17.784 -15.719  0.00  0.00    +0.000 C 
ATOM      4  C   UNL     1      -3.810 -20.512 -16.896  0.00  0.00    +0.000 C 
ATOM      5  C   UNL     1      -2.624 -19.848 -16.331  0.00  0.00    +0.000 C 
ATOM      6  C   UNL     1      -3.279 -18.575 -18.016  0.00  0.00    +0.000 C 
ATOM      7  C   UNL     1      -3.547 -16.605 -14.782  0.00  0.00    +0.000 C 
ATOM      8  C   UNL     1      -3.875 -19.885 -18.351  0.00  0.00    +0.000 C 
ATOM      9  C   UNL     1      -1.522 -17.588 -16.582  0.00  0.00    +0.000 C 
ATOM     10  C   UNL     1      -4.923 -18.719 -15.500  0.00  0.00    +0.000 C 
ATOM     11  C   UNL     1      -4.931 -20.155 -16.039  0.00  0.00    +0.000 C 
ATOM     12  C   UNL     1      -2.310 -15.643 -15.211  0.00  0.00    +0.000 C 
ATOM     13  C   UNL     1      -1.266 -16.265 -15.933  0.00  0.00    +0.000 C 
ATOM     14  C   UNL     1      -3.203 -17.154 -13.360  0.00  0.00    +0.000 C 
ATOM     15  C   UNL     1      -4.741 -15.715 -14.742  0.00  0.00    +0.000 C 
ATOM     16  C   UNL     1      -2.576 -14.228 -15.343  0.00  0.00    +0.000 A 
ATOM     17  C   UNL     1      -4.943 -14.541 -14.879  0.00  0.00    +0.000 C 
ATOM     18  C   UNL     1      -3.845 -13.715 -15.179  0.00  0.00    +0.000 A 
ATOM     19  C   UNL     1      -1.775 -13.117 -15.676  0.00  0.00    +0.000 A 
ATOM     20  C   UNL     1      -2.621 -12.016 -15.674  0.00  0.00    +0.000 A 
ENDROOT
BRANCH   8  21
ATOM     21  O   UNL     1      -3.007 -20.584 -19.225  0.00  0.00    +0.000 OA
ATOM     22  H   UNL     1      -2.273 -19.977 -19.413  0.00  0.00    +0.000 HD
ENDBRANCH   8  21
BRANCH   8  23
ATOM     23  C   UNL     1      -5.225 -19.837 -18.927  0.00  0.00    +0.000 C 
BRANCH  23  24
ATOM     24  O   UNL     1      -6.445 -19.782 -19.463  0.00  0.00    +0.000 OA
ATOM     25  H   UNL     1      -7.095 -19.459 -18.814  0.00  0.00    +0.000 HD
ENDBRANCH  23  24
ENDBRANCH   8  23
TORSDOF 3
ENDMDL
MODEL 8
REMARK VINA RESULT:      -4.2     20.940     22.756
REMARK  Name = 114778_Kahweol.pdbqt.pdb
REMARK  3 active torsions:
REMARK  status: ('A' for Active; 'I' for Inactive)
REMARK    1  A    between atoms: C_8  and  O_21
REMARK    2  A    between atoms: C_8  and  C_23
REMARK    3  A    between atoms: C_23  and  O_24
REMARK                            x       y       z     vdW  Elec       q    Type
REMARK                         _______ _______ _______ _____ _____    ______ ____
ROOT
ATOM      1  O   UNL     1     -18.893 -13.306  -8.749  0.00  0.00    +0.000 OA
ATOM      2  C   UNL     1     -16.642 -16.386  -3.783  0.00  0.00    +0.000 C 
ATOM      3  C   UNL     1     -18.062 -15.692  -3.971  0.00  0.00    +0.000 C 
ATOM      4  C   UNL     1     -17.359 -17.770  -1.966  0.00  0.00    +0.000 C 
ATOM      5  C   UNL     1     -16.485 -16.641  -2.325  0.00  0.00    +0.000 C 
ATOM      6  C   UNL     1     -16.759 -17.805  -4.185  0.00  0.00    +0.000 C 
ATOM      7  C   UNL     1     -18.216 -14.331  -4.658  0.00  0.00    +0.000 C 
ATOM      8  C   UNL     1     -17.064 -18.798  -3.136  0.00  0.00    +0.000 C 
ATOM      9  C   UNL     1     -15.642 -15.617  -4.476  0.00  0.00    +0.000 C 
ATOM     10  C   UNL     1     -19.047 -16.221  -3.042  0.00  0.00    +0.000 C 
ATOM     11  C   UNL     1     -18.719 -17.252  -1.953  0.00  0.00    +0.000 C 
ATOM     12  C   UNL     1     -17.033 -13.926  -5.697  0.00  0.00    +0.000 C 
ATOM     13  C   UNL     1     -15.754 -14.456  -5.413  0.00  0.00    +0.000 C 
ATOM     14  C   UNL     1     -18.246 -13.210  -3.569  0.00  0.00    +0.000 C 
ATOM     15  C   UNL     1     -19.466 -14.331  -5.467  0.00  0.00    +0.000 C 
ATOM     16  C   UNL     1     -17.418 -13.571  -7.044  0.00  0.00    +0.000 A 
ATOM     17  C   UNL     1     -19.759 -14.054  -6.596  0.00  0.00    +0.000 C 
ATOM     18  C   UNL     1     -18.731 -13.635  -7.460  0.00  0.00    +0.000 A 
ATOM     19  C   UNL     1     -16.696 -13.164  -8.184  0.00  0.00    +0.000 A 
ATOM     20  C   UNL     1     -17.631 -13.002  -9.197  0.00  0.00    +0.000 A 
ENDROOT
BRANCH   8  21
ATOM     21  O   UNL     1     -15.897 -19.548  -2.846  0.00  0.00    +0.000 OA
ATOM     22  H   UNL     1     -16.180 -20.261  -2.250  0.00  0.00    +0.000 HD
ENDBRANCH   8  21
BRANCH   8  23
ATOM     23  C   UNL     1     -18.176 -19.710  -3.432  0.00  0.00    +0.000 C 
BRANCH  23  24
ATOM     24  O   UNL     1     -19.198 -20.524  -3.697  0.00  0.00    +0.000 OA
ATOM     25  H   UNL     1     -19.309 -21.185  -2.990  0.00  0.00    +0.000 HD
ENDBRANCH  23  24
ENDBRANCH   8  23
TORSDOF 3
ENDMDL
MODEL 9
REMARK VINA RESULT:      -4.2     18.425     20.319
REMARK  Name = 114778_Kahweol.pdbqt.pdb
REMARK  3 active torsions:
REMARK  status: ('A' for Active; 'I' for Inactive)
REMARK    1  A    between atoms: C_8  and  O_21
REMARK    2  A    between atoms: C_8  and  C_23
REMARK    3  A    between atoms: C_23  and  O_24
REMARK                            x       y       z     vdW  Elec       q    Type
REMARK                         _______ _______ _______ _____ _____    ______ ____
ROOT
ATOM      1  O   UNL     1      -4.764 -20.787 -20.519  0.00  0.00    +0.000 OA
ATOM      2  C   UNL     1      -3.976 -17.520 -15.235  0.00  0.00    +0.000 C 
ATOM      3  C   UNL     1      -2.902 -17.903 -16.344  0.00  0.00    +0.000 C 
ATOM      4  C   UNL     1      -2.664 -15.737 -14.324  0.00  0.00    +0.000 C 
ATOM      5  C   UNL     1      -3.210 -17.074 -14.039  0.00  0.00    +0.000 C 
ATOM      6  C   UNL     1      -4.541 -16.195 -15.571  0.00  0.00    +0.000 C 
ATOM      7  C   UNL     1      -2.867 -19.290 -16.997  0.00  0.00    +0.000 C 
ATOM      8  C   UNL     1      -3.914 -15.002 -14.966  0.00  0.00    +0.000 C 
ATOM      9  C   UNL     1      -4.927 -18.593 -15.104  0.00  0.00    +0.000 C 
ATOM     10  C   UNL     1      -1.743 -17.026 -16.297  0.00  0.00    +0.000 C 
ATOM     11  C   UNL     1      -1.550 -15.932 -15.239  0.00  0.00    +0.000 C 
ATOM     12  C   UNL     1      -4.271 -20.109 -16.990  0.00  0.00    +0.000 C 
ATOM     13  C   UNL     1      -5.140 -19.836 -15.908  0.00  0.00    +0.000 C 
ATOM     14  C   UNL     1      -1.833 -20.185 -16.241  0.00  0.00    +0.000 C 
ATOM     15  C   UNL     1      -2.506 -19.144 -18.434  0.00  0.00    +0.000 C 
ATOM     16  C   UNL     1      -4.776 -20.583 -18.258  0.00  0.00    +0.000 A 
ATOM     17  C   UNL     1      -2.955 -19.528 -19.477  0.00  0.00    +0.000 C 
ATOM     18  C   UNL     1      -4.132 -20.297 -19.443  0.00  0.00    +0.000 A 
ATOM     19  C   UNL     1      -5.918 -21.318 -18.634  0.00  0.00    +0.000 A 
ATOM     20  C   UNL     1      -5.868 -21.430 -20.017  0.00  0.00    +0.000 A 
ENDROOT
BRANCH   8  21
ATOM     21  O   UNL     1      -4.759 -14.493 -13.949  0.00  0.00    +0.000 OA
ATOM     22  H   UNL     1      -5.589 -14.994 -14.017  0.00  0.00    +0.000 HD
ENDBRANCH   8  21
BRANCH   8  23
ATOM     23  C   UNL     1      -3.565 -13.927 -15.903  0.00  0.00    +0.000 C 
BRANCH  23  24
ATOM     24  O   UNL     1      -3.249 -12.939 -16.741  0.00  0.00    +0.000 OA
ATOM     25  H   UNL     1      -3.920 -12.848 -17.441  0.00  0.00    +0.000 HD
ENDBRANCH  23  24
ENDBRANCH   8  23
TORSDOF 3
ENDMDL
