REMARK  Name = 114778_Kahweol.pdbqt.pdb
REMARK  3 active torsions:
REMARK  status: ('A' for Active; 'I' for Inactive)
REMARK    1  A    between atoms: C_8  and  O_21
REMARK    2  A    between atoms: C_8  and  C_23
REMARK    3  A    between atoms: C_23  and  O_24
REMARK                            x       y       z     vdW  Elec       q    Type
REMARK                         _______ _______ _______ _____ _____    ______ ____
ROOT
ATOM      1  O   UNL     1       4.240   0.735  -1.820  0.00  0.00    +0.000 OA
ATOM      2  C   UNL     1      -1.195  -0.958   0.790  0.00  0.00    +0.000 C 
ATOM      3  C   UNL     1      -0.456   0.450   0.841  0.00  0.00    +0.000 C 
ATOM      4  C   UNL     1      -3.330  -0.062   1.398  0.00  0.00    +0.000 C 
ATOM      5  C   UNL     1      -2.233  -0.931   1.856  0.00  0.00    +0.000 C 
ATOM      6  C   UNL     1      -2.134  -0.951  -0.353  0.00  0.00    +0.000 C 
ATOM      7  C   UNL     1       1.061   0.565   1.028  0.00  0.00    +0.000 C 
ATOM      8  C   UNL     1      -3.532  -0.549  -0.097  0.00  0.00    +0.000 C 
ATOM      9  C   UNL     1      -0.212  -2.010   0.789  0.00  0.00    +0.000 C 
ATOM     10  C   UNL     1      -1.374   1.528   1.172  0.00  0.00    +0.000 C 
ATOM     11  C   UNL     1      -2.851   1.307   1.522  0.00  0.00    +0.000 C 
ATOM     12  C   UNL     1       1.930  -0.728   0.564  0.00  0.00    +0.000 C 
ATOM     13  C   UNL     1       1.278  -1.978   0.664  0.00  0.00    +0.000 C 
ATOM     14  C   UNL     1       1.374   0.783   2.544  0.00  0.00    +0.000 C 
ATOM     15  C   UNL     1       1.570   1.696   0.204  0.00  0.00    +0.000 C 
ATOM     16  C   UNL     1       2.998  -0.511  -0.385  0.00  0.00    +0.000 A 
ATOM     17  C   UNL     1       2.447   1.848  -0.599  0.00  0.00    +0.000 C 
ATOM     18  C   UNL     1       3.235   0.732  -0.933  0.00  0.00    +0.000 A 
ATOM     19  C   UNL     1       3.945  -1.361  -0.991  0.00  0.00    +0.000 A 
ATOM     20  C   UNL     1       4.689  -0.562  -1.849  0.00  0.00    +0.000 A 
ENDROOT
BRANCH   8  21
ATOM     21  O   UNL     1      -4.363  -1.696  -0.130  0.00  0.00    +0.000 OA
ATOM     22  H   UNL     1      -5.238  -1.399   0.171  0.00  0.00    +0.000 HD
ENDBRANCH   8  21
BRANCH   8  23
ATOM     23  C   UNL     1      -4.070   0.478  -0.998  0.00  0.00    +0.000 C 
BRANCH  23  24
ATOM     24  O   UNL     1      -4.574   1.401  -1.818  0.00  0.00    +0.000 OA
ATOM     25  H   UNL     1      -4.511   1.113  -2.746  0.00  0.00    +0.000 HD
ENDBRANCH  23  24
ENDBRANCH   8  23
TORSDOF 3
