MODEL 1
REMARK VINA RESULT:      -3.4      0.000      0.000
REMARK  Name = 1174_Uracil.pdbqt.pdb
REMARK  0 active torsions:
REMARK  status: ('A' for Active; 'I' for Inactive)
REMARK                            x       y       z     vdW  Elec       q    Type
REMARK                         _______ _______ _______ _____ _____    ______ ____
ROOT
ATOM      1  O   UNL     1       3.351 -33.443   0.261  0.00  0.00    +0.000 OA
ATOM      2  O   UNL     1       2.182 -29.372   2.140  0.00  0.00    +0.000 OA
ATOM      3  N   UNL     1       2.745 -31.447   1.255  0.00  0.00    +0.000 N 
ATOM      4  N   UNL     1       3.718 -31.466  -0.876  0.00  0.00    +0.000 N 
ATOM      5  C   UNL     1       3.278 -32.222   0.215  0.00  0.00    +0.000 A 
ATOM      6  C   UNL     1       2.645 -30.057   1.241  0.00  0.00    +0.000 A 
ATOM      7  C   UNL     1       3.615 -30.127  -0.874  0.00  0.00    +0.000 A 
ATOM      8  C   UNL     1       3.158 -29.487   0.022  0.00  0.00    +0.000 A 
ATOM      9  H   UNL     1       2.410 -31.931   2.072  0.00  0.00    +0.000 HD
ATOM     10  H   UNL     1       4.117 -31.953  -1.669  0.00  0.00    +0.000 HD
ENDROOT
TORSDOF 0
ENDMDL
MODEL 2
REMARK VINA RESULT:      -3.3     17.745     18.498
REMARK  Name = 1174_Uracil.pdbqt.pdb
REMARK  0 active torsions:
REMARK  status: ('A' for Active; 'I' for Inactive)
REMARK                            x       y       z     vdW  Elec       q    Type
REMARK                         _______ _______ _______ _____ _____    ______ ____
ROOT
ATOM      1  O   UNL     1      -0.151 -20.069 -15.644  0.00  0.00    +0.000 OA
ATOM      2  O   UNL     1       0.249 -16.862 -12.323  0.00  0.00    +0.000 OA
ATOM      3  N   UNL     1       0.019 -18.423 -14.031  0.00  0.00    +0.000 N 
ATOM      4  N   UNL     1       0.780 -20.596 -13.596  0.00  0.00    +0.000 N 
ATOM      5  C   UNL     1       0.188 -19.727 -14.519  0.00  0.00    +0.000 A 
ATOM      6  C   UNL     1       0.391 -17.995 -12.758  0.00  0.00    +0.000 A 
ATOM      7  C   UNL     1       1.133 -20.168 -12.373  0.00  0.00    +0.000 A 
ATOM      8  C   UNL     1       0.980 -19.053 -11.979  0.00  0.00    +0.000 A 
ATOM      9  H   UNL     1      -0.403 -17.747 -14.647  0.00  0.00    +0.000 HD
ATOM     10  H   UNL     1       0.937 -21.557 -13.873  0.00  0.00    +0.000 HD
ENDROOT
TORSDOF 0
ENDMDL
MODEL 3
REMARK VINA RESULT:      -3.1      9.461      9.950
REMARK  Name = 1174_Uracil.pdbqt.pdb
REMARK  0 active torsions:
REMARK  status: ('A' for Active; 'I' for Inactive)
REMARK                            x       y       z     vdW  Elec       q    Type
REMARK                         _______ _______ _______ _____ _____    ______ ____
ROOT
ATOM      1  O   UNL     1      -3.570 -33.186  -8.007  0.00  0.00    +0.000 OA
ATOM      2  O   UNL     1      -2.412 -34.003  -3.595  0.00  0.00    +0.000 OA
ATOM      3  N   UNL     1      -2.925 -33.586  -5.824  0.00  0.00    +0.000 N 
ATOM      4  N   UNL     1      -5.192 -33.600  -6.415  0.00  0.00    +0.000 N 
ATOM      5  C   UNL     1      -3.872 -33.436  -6.847  0.00  0.00    +0.000 A 
ATOM      6  C   UNL     1      -3.229 -33.870  -4.494  0.00  0.00    +0.000 A 
ATOM      7  C   UNL     1      -5.468 -33.873  -5.129  0.00  0.00    +0.000 A 
ATOM      8  C   UNL     1      -4.646 -33.996  -4.275  0.00  0.00    +0.000 A 
ATOM      9  H   UNL     1      -1.954 -33.480  -6.069  0.00  0.00    +0.000 HD
ATOM     10  H   UNL     1      -5.936 -33.507  -7.095  0.00  0.00    +0.000 HD
ENDROOT
TORSDOF 0
ENDMDL
MODEL 4
REMARK VINA RESULT:      -3.0      2.687      3.803
REMARK  Name = 1174_Uracil.pdbqt.pdb
REMARK  0 active torsions:
REMARK  status: ('A' for Active; 'I' for Inactive)
REMARK                            x       y       z     vdW  Elec       q    Type
REMARK                         _______ _______ _______ _____ _____    ______ ____
ROOT
ATOM      1  O   UNL     1       4.619 -31.504   3.528  0.00  0.00    +0.000 OA
ATOM      2  O   UNL     1       1.917 -35.166   2.656  0.00  0.00    +0.000 OA
ATOM      3  N   UNL     1       3.275 -33.348   3.161  0.00  0.00    +0.000 N 
ATOM      4  N   UNL     1       3.832 -31.912   1.395  0.00  0.00    +0.000 N 
ATOM      5  C   UNL     1       3.965 -32.194   2.758  0.00  0.00    +0.000 A 
ATOM      6  C   UNL     1       2.521 -34.159   2.317  0.00  0.00    +0.000 A 
ATOM      7  C   UNL     1       3.100 -32.704   0.594  0.00  0.00    +0.000 A 
ATOM      8  C   UNL     1       2.522 -33.681   0.959  0.00  0.00    +0.000 A 
ATOM      9  H   UNL     1       3.331 -33.607   4.133  0.00  0.00    +0.000 HD
ATOM     10  H   UNL     1       4.300 -31.094   1.025  0.00  0.00    +0.000 HD
ENDROOT
TORSDOF 0
ENDMDL
MODEL 5
REMARK VINA RESULT:      -2.8     17.249     18.149
REMARK  Name = 1174_Uracil.pdbqt.pdb
REMARK  0 active torsions:
REMARK  status: ('A' for Active; 'I' for Inactive)
REMARK                            x       y       z     vdW  Elec       q    Type
REMARK                         _______ _______ _______ _____ _____    ______ ____
ROOT
ATOM      1  O   UNL     1      -0.588 -16.829 -12.968  0.00  0.00    +0.000 OA
ATOM      2  O   UNL     1       2.799 -19.013 -10.681  0.00  0.00    +0.000 OA
ATOM      3  N   UNL     1       1.102 -17.866 -11.781  0.00  0.00    +0.000 N 
ATOM      4  N   UNL     1       0.236 -18.851 -13.722  0.00  0.00    +0.000 N 
ATOM      5  C   UNL     1       0.184 -17.770 -12.837  0.00  0.00    +0.000 A 
ATOM      6  C   UNL     1       1.995 -18.919 -11.596  0.00  0.00    +0.000 A 
ATOM      7  C   UNL     1       1.103 -19.859 -13.531  0.00  0.00    +0.000 A 
ATOM      8  C   UNL     1       1.876 -19.920 -12.625  0.00  0.00    +0.000 A 
ATOM      9  H   UNL     1       1.115 -17.118 -11.106  0.00  0.00    +0.000 HD
ATOM     10  H   UNL     1      -0.397 -18.856 -14.513  0.00  0.00    +0.000 HD
ENDROOT
TORSDOF 0
ENDMDL
MODEL 6
REMARK VINA RESULT:      -2.7     16.441     16.738
REMARK  Name = 1174_Uracil.pdbqt.pdb
REMARK  0 active torsions:
REMARK  status: ('A' for Active; 'I' for Inactive)
REMARK                            x       y       z     vdW  Elec       q    Type
REMARK                         _______ _______ _______ _____ _____    ______ ____
ROOT
ATOM      1  O   UNL     1       3.027 -22.251 -13.361  0.00  0.00    +0.000 OA
ATOM      2  O   UNL     1       3.556 -18.057 -11.462  0.00  0.00    +0.000 OA
ATOM      3  N   UNL     1       3.359 -20.162 -12.431  0.00  0.00    +0.000 N 
ATOM      4  N   UNL     1       1.228 -21.137 -12.432  0.00  0.00    +0.000 N 
ATOM      5  C   UNL     1       2.574 -21.267 -12.790  0.00  0.00    +0.000 A 
ATOM      6  C   UNL     1       2.882 -19.025 -11.780  0.00  0.00    +0.000 A 
ATOM      7  C   UNL     1       0.784 -20.035 -11.806  0.00  0.00    +0.000 A 
ATOM      8  C   UNL     1       1.470 -19.106 -11.510  0.00  0.00    +0.000 A 
ATOM      9  H   UNL     1       4.339 -20.193 -12.660  0.00  0.00    +0.000 HD
ATOM     10  H   UNL     1       0.595 -21.895 -12.657  0.00  0.00    +0.000 HD
ENDROOT
TORSDOF 0
ENDMDL
MODEL 7
REMARK VINA RESULT:      -2.7     16.665     17.276
REMARK  Name = 1174_Uracil.pdbqt.pdb
REMARK  0 active torsions:
REMARK  status: ('A' for Active; 'I' for Inactive)
REMARK                            x       y       z     vdW  Elec       q    Type
REMARK                         _______ _______ _______ _____ _____    ______ ____
ROOT
ATOM      1  O   UNL     1       3.747 -18.305 -10.377  0.00  0.00    +0.000 OA
ATOM      2  O   UNL     1       1.789 -21.504 -13.098  0.00  0.00    +0.000 OA
ATOM      3  N   UNL     1       2.823 -19.944 -11.718  0.00  0.00    +0.000 N 
ATOM      4  N   UNL     1       1.776 -17.859 -11.498  0.00  0.00    +0.000 N 
ATOM      5  C   UNL     1       2.856 -18.670 -11.134  0.00  0.00    +0.000 A 
ATOM      6  C   UNL     1       1.828 -20.397 -12.583  0.00  0.00    +0.000 A 
ATOM      7  C   UNL     1       0.826 -18.311 -12.333  0.00  0.00    +0.000 A 
ATOM      8  C   UNL     1       0.817 -19.399 -12.819  0.00  0.00    +0.000 A 
ATOM      9  H   UNL     1       3.573 -20.578 -11.496  0.00  0.00    +0.000 HD
ATOM     10  H   UNL     1       1.728 -16.922 -11.117  0.00  0.00    +0.000 HD
ENDROOT
TORSDOF 0
ENDMDL
MODEL 8
REMARK VINA RESULT:      -2.7     10.252     10.836
REMARK  Name = 1174_Uracil.pdbqt.pdb
REMARK  0 active torsions:
REMARK  status: ('A' for Active; 'I' for Inactive)
REMARK                            x       y       z     vdW  Elec       q    Type
REMARK                         _______ _______ _______ _____ _____    ______ ____
ROOT
ATOM      1  O   UNL     1      -5.826 -35.510   6.511  0.00  0.00    +0.000 OA
ATOM      2  O   UNL     1      -2.220 -33.182   8.258  0.00  0.00    +0.000 OA
ATOM      3  N   UNL     1      -3.990 -34.408   7.381  0.00  0.00    +0.000 N 
ATOM      4  N   UNL     1      -5.985 -33.250   6.966  0.00  0.00    +0.000 N 
ATOM      5  C   UNL     1      -5.312 -34.476   6.918  0.00  0.00    +0.000 A 
ATOM      6  C   UNL     1      -3.370 -33.252   7.852  0.00  0.00    +0.000 A 
ATOM      7  C   UNL     1      -5.373 -32.145   7.423  0.00  0.00    +0.000 A 
ATOM      8  C   UNL     1      -4.246 -32.111   7.812  0.00  0.00    +0.000 A 
ATOM      9  H   UNL     1      -3.450 -35.258   7.373  0.00  0.00    +0.000 HD
ATOM     10  H   UNL     1      -6.945 -33.216   6.649  0.00  0.00    +0.000 HD
ENDROOT
TORSDOF 0
ENDMDL
MODEL 9
REMARK VINA RESULT:      -2.6     18.745     19.157
REMARK  Name = 1174_Uracil.pdbqt.pdb
REMARK  0 active torsions:
REMARK  status: ('A' for Active; 'I' for Inactive)
REMARK                            x       y       z     vdW  Elec       q    Type
REMARK                         _______ _______ _______ _____ _____    ______ ____
ROOT
ATOM      1  O   UNL     1      -8.692 -31.161 -16.398  0.00  0.00    +0.000 OA
ATOM      2  O   UNL     1      -8.971 -26.867 -14.676  0.00  0.00    +0.000 OA
ATOM      3  N   UNL     1      -8.883 -29.005 -15.585  0.00  0.00    +0.000 N 
ATOM      4  N   UNL     1      -7.320 -30.490 -14.665  0.00  0.00    +0.000 N 
ATOM      5  C   UNL     1      -8.328 -30.293 -15.615  0.00  0.00    +0.000 A 
ATOM      6  C   UNL     1      -8.496 -27.992 -14.710  0.00  0.00    +0.000 A 
ATOM      7  C   UNL     1      -6.959 -29.502 -13.828  0.00  0.00    +0.000 A 
ATOM      8  C   UNL     1      -7.445 -28.414 -13.821  0.00  0.00    +0.000 A 
ATOM      9  H   UNL     1      -9.615 -28.799 -16.245  0.00  0.00    +0.000 HD
ATOM     10  H   UNL     1      -6.869 -31.395 -14.622  0.00  0.00    +0.000 HD
ENDROOT
TORSDOF 0
ENDMDL
