MODEL 1
REMARK VINA RESULT:      -5.8      0.000      0.000
REMARK  Name = 122178712_SalternamideA.pdbqt.pdb
REMARK  8 active torsions:
REMARK  status: ('A' for Active; 'I' for Inactive)
REMARK    1  A    between atoms: C_3  and  O_24
REMARK    2  A    between atoms: C_3  and  C_26
REMARK    3  A    between atoms: C_6  and  N_10
REMARK    4  A    between atoms: C_11  and  C_14
REMARK    5  A    between atoms: C_13  and  C_15
REMARK    6  A    between atoms: C_27  and  C_28
REMARK    7  A    between atoms: C_29  and  C_31
REMARK    8  A    between atoms: C_31  and  O_32
REMARK                            x       y       z     vdW  Elec       q    Type
REMARK                         _______ _______ _______ _____ _____    ______ ____
ROOT
ATOM      1 CL   UNL     1       8.488 -23.732  -1.285  0.00  0.00    +0.000 Cl
ATOM      2  O   UNL     1       6.125 -21.873  -0.335  0.00  0.00    +0.000 OA
ATOM      3  C   UNL     1       4.992 -25.389  -2.553  0.00  0.00    +0.000 C 
ATOM      4  C   UNL     1       4.183 -24.337  -1.914  0.00  0.00    +0.000 C 
ATOM      5  C   UNL     1       6.327 -24.875  -2.201  0.00  0.00    +0.000 C 
ATOM      6  C   UNL     1       4.363 -23.239  -1.238  0.00  0.00    +0.000 C 
ATOM      7  C   UNL     1       6.823 -23.852  -1.570  0.00  0.00    +0.000 C 
ATOM      8  C   UNL     1       5.829 -22.872  -0.978  0.00  0.00    +0.000 C 
ENDROOT
BRANCH   6  10
ATOM      9  O   UNL     1       3.627 -20.542  -2.092  0.00  0.00    +0.000 OA
ATOM     10  N   UNL     1       3.381 -22.418  -0.748  0.00  0.00    +0.000 N 
ATOM     11  C   UNL     1       3.076 -21.155  -1.189  0.00  0.00    +0.000 C 
ATOM     12  H   UNL     1       2.837 -22.805   0.021  0.00  0.00    +0.000 HD
BRANCH  11  14
ATOM     13  C   UNL     1       1.068 -19.996   0.085  0.00  0.00    +0.000 C 
ATOM     14  C   UNL     1       1.985 -20.518  -0.490  0.00  0.00    +0.000 C 
BRANCH  13  15
ATOM     15  C   UNL     1      -0.017 -19.388   0.764  0.00  0.00    +0.000 C 
ATOM     16  C   UNL     1      -0.151 -19.628   2.241  0.00  0.00    +0.000 C 
ATOM     17  C   UNL     1      -1.017 -18.612   0.146  0.00  0.00    +0.000 C 
ATOM     18  C   UNL     1      -2.023 -17.831  -0.457  0.00  0.00    +0.000 C 
ATOM     19  C   UNL     1      -1.732 -17.253  -1.811  0.00  0.00    +0.000 C 
ATOM     20  C   UNL     1      -3.283 -17.576   0.108  0.00  0.00    +0.000 C 
ATOM     21  C   UNL     1      -4.443 -17.346   0.622  0.00  0.00    +0.000 C 
ATOM     22  C   UNL     1      -4.624 -16.173   1.535  0.00  0.00    +0.000 C 
ATOM     23  C   UNL     1      -5.485 -18.420   0.581  0.00  0.00    +0.000 C 
ENDBRANCH  13  15
ENDBRANCH  11  14
ENDBRANCH   6  10
BRANCH   3  24
ATOM     24  O   UNL     1       4.824 -25.323  -3.954  0.00  0.00    +0.000 OA
ATOM     25  H   UNL     1       4.996 -24.398  -4.200  0.00  0.00    +0.000 HD
ENDBRANCH   3  24
BRANCH   3  26
ATOM     26  C   UNL     1       4.721 -26.736  -2.068  0.00  0.00    +0.000 C 
ATOM     27  C   UNL     1       4.442 -28.153  -1.560  0.00  0.00    +0.000 C 
BRANCH  27  28
ATOM     28  C   UNL     1       4.166 -29.572  -1.052  0.00  0.00    +0.000 C 
ATOM     29  C   UNL     1       3.888 -30.990  -0.546  0.00  0.00    +0.000 C 
BRANCH  29  31
ATOM     30  O   UNL     1       4.384 -33.255  -0.255  0.00  0.00    +0.000 OA
ATOM     31  C   UNL     1       3.629 -32.316  -0.073  0.00  0.00    +0.000 C 
BRANCH  31  32
ATOM     32  O   UNL     1       2.468 -32.441   0.595  0.00  0.00    +0.000 OA
ATOM     33  H   UNL     1       2.750 -32.645   1.510  0.00  0.00    +0.000 HD
ENDBRANCH  31  32
ENDBRANCH  29  31
ENDBRANCH  27  28
ENDBRANCH   3  26
TORSDOF 8
ENDMDL
MODEL 2
REMARK VINA RESULT:      -5.4     17.119     21.917
REMARK  Name = 122178712_SalternamideA.pdbqt.pdb
REMARK  8 active torsions:
REMARK  status: ('A' for Active; 'I' for Inactive)
REMARK    1  A    between atoms: C_3  and  O_24
REMARK    2  A    between atoms: C_3  and  C_26
REMARK    3  A    between atoms: C_6  and  N_10
REMARK    4  A    between atoms: C_11  and  C_14
REMARK    5  A    between atoms: C_13  and  C_15
REMARK    6  A    between atoms: C_27  and  C_28
REMARK    7  A    between atoms: C_29  and  C_31
REMARK    8  A    between atoms: C_31  and  O_32
REMARK                            x       y       z     vdW  Elec       q    Type
REMARK                         _______ _______ _______ _____ _____    ______ ____
ROOT
ATOM      1 CL   UNL     1     -19.337 -12.097  -6.748  0.00  0.00    +0.000 Cl
ATOM      2  O   UNL     1     -17.383 -13.349  -4.614  0.00  0.00    +0.000 OA
ATOM      3  C   UNL     1     -18.425 -15.882  -7.939  0.00  0.00    +0.000 C 
ATOM      4  C   UNL     1     -17.518 -16.095  -6.799  0.00  0.00    +0.000 C 
ATOM      5  C   UNL     1     -18.877 -14.522  -7.602  0.00  0.00    +0.000 C 
ATOM      6  C   UNL     1     -17.113 -15.458  -5.739  0.00  0.00    +0.000 C 
ATOM      7  C   UNL     1     -18.676 -13.654  -6.654  0.00  0.00    +0.000 C 
ATOM      8  C   UNL     1     -17.703 -14.054  -5.562  0.00  0.00    +0.000 C 
ENDROOT
BRANCH   6  10
ATOM      9  O   UNL     1     -17.648 -16.836  -3.217  0.00  0.00    +0.000 OA
ATOM     10  N   UNL     1     -16.223 -15.921  -4.805  0.00  0.00    +0.000 N 
ATOM     11  C   UNL     1     -16.530 -16.566  -3.632  0.00  0.00    +0.000 C 
ATOM     12  H   UNL     1     -15.242 -15.758  -5.023  0.00  0.00    +0.000 HD
BRANCH  11  14
ATOM     13  C   UNL     1     -14.446 -17.273  -2.165  0.00  0.00    +0.000 C 
ATOM     14  C   UNL     1     -15.388 -16.948  -2.836  0.00  0.00    +0.000 C 
BRANCH  13  15
ATOM     15  C   UNL     1     -13.339 -17.662  -1.371  0.00  0.00    +0.000 C 
ATOM     16  C   UNL     1     -12.741 -19.020  -1.607  0.00  0.00    +0.000 C 
ATOM     17  C   UNL     1     -12.783 -16.888  -0.333  0.00  0.00    +0.000 C 
ATOM     18  C   UNL     1     -12.215 -16.124   0.706  0.00  0.00    +0.000 C 
ATOM     19  C   UNL     1     -12.508 -14.653   0.724  0.00  0.00    +0.000 C 
ATOM     20  C   UNL     1     -11.416 -16.646   1.737  0.00  0.00    +0.000 C 
ATOM     21  C   UNL     1     -10.688 -17.125   2.687  0.00  0.00    +0.000 C 
ATOM     22  C   UNL     1      -9.208 -17.243   2.491  0.00  0.00    +0.000 C 
ATOM     23  C   UNL     1     -11.347 -17.859   3.813  0.00  0.00    +0.000 C 
ENDBRANCH  13  15
ENDBRANCH  11  14
ENDBRANCH   6  10
BRANCH   3  24
ATOM     24  O   UNL     1     -19.517 -16.773  -7.841  0.00  0.00    +0.000 OA
ATOM     25  H   UNL     1     -19.886 -16.645  -6.950  0.00  0.00    +0.000 HD
ENDBRANCH   3  24
BRANCH   3  26
ATOM     26  C   UNL     1     -17.789 -15.995  -9.246  0.00  0.00    +0.000 C 
ATOM     27  C   UNL     1     -17.122 -16.120 -10.619  0.00  0.00    +0.000 C 
BRANCH  27  28
ATOM     28  C   UNL     1     -16.457 -16.249 -11.992  0.00  0.00    +0.000 C 
ATOM     29  C   UNL     1     -15.790 -16.375 -13.365  0.00  0.00    +0.000 C 
BRANCH  29  31
ATOM     30  O   UNL     1     -13.966 -16.389 -14.825  0.00  0.00    +0.000 OA
ATOM     31  C   UNL     1     -15.167 -16.493 -14.648  0.00  0.00    +0.000 C 
BRANCH  31  32
ATOM     32  O   UNL     1     -16.027 -16.731 -15.654  0.00  0.00    +0.000 OA
ATOM     33  H   UNL     1     -15.611 -17.470 -16.144  0.00  0.00    +0.000 HD
ENDBRANCH  31  32
ENDBRANCH  29  31
ENDBRANCH  27  28
ENDBRANCH   3  26
TORSDOF 8
ENDMDL
MODEL 3
REMARK VINA RESULT:      -5.4      4.570     11.862
REMARK  Name = 122178712_SalternamideA.pdbqt.pdb
REMARK  8 active torsions:
REMARK  status: ('A' for Active; 'I' for Inactive)
REMARK    1  A    between atoms: C_3  and  O_24
REMARK    2  A    between atoms: C_3  and  C_26
REMARK    3  A    between atoms: C_6  and  N_10
REMARK    4  A    between atoms: C_11  and  C_14
REMARK    5  A    between atoms: C_13  and  C_15
REMARK    6  A    between atoms: C_27  and  C_28
REMARK    7  A    between atoms: C_29  and  C_31
REMARK    8  A    between atoms: C_31  and  O_32
REMARK                            x       y       z     vdW  Elec       q    Type
REMARK                         _______ _______ _______ _____ _____    ______ ____
ROOT
ATOM      1 CL   UNL     1       4.423 -18.533   2.471  0.00  0.00    +0.000 Cl
ATOM      2  O   UNL     1       5.381 -20.948   0.685  0.00  0.00    +0.000 OA
ATOM      3  C   UNL     1       1.485 -19.351  -0.226  0.00  0.00    +0.000 C 
ATOM      4  C   UNL     1       2.273 -20.419  -0.864  0.00  0.00    +0.000 C 
ATOM      5  C   UNL     1       2.440 -18.983   0.832  0.00  0.00    +0.000 C 
ATOM      6  C   UNL     1       3.423 -21.011  -0.710  0.00  0.00    +0.000 C 
ATOM      7  C   UNL     1       3.614 -19.367   1.239  0.00  0.00    +0.000 C 
ATOM      8  C   UNL     1       4.272 -20.485   0.453  0.00  0.00    +0.000 C 
ENDROOT
BRANCH   6  10
ATOM      9  O   UNL     1       4.279 -20.938  -3.505  0.00  0.00    +0.000 OA
ATOM     10  N   UNL     1       3.923 -22.025  -1.485  0.00  0.00    +0.000 N 
ATOM     11  C   UNL     1       4.312 -21.935  -2.798  0.00  0.00    +0.000 C 
ATOM     12  H   UNL     1       4.002 -22.927  -1.019  0.00  0.00    +0.000 HD
BRANCH  11  14
ATOM     13  C   UNL     1       5.206 -24.197  -3.839  0.00  0.00    +0.000 C 
ATOM     14  C   UNL     1       4.807 -23.167  -3.367  0.00  0.00    +0.000 C 
BRANCH  13  15
ATOM     15  C   UNL     1       5.670 -25.413  -4.397  0.00  0.00    +0.000 C 
ATOM     16  C   UNL     1       6.499 -25.347  -5.649  0.00  0.00    +0.000 C 
ATOM     17  C   UNL     1       5.368 -26.695  -3.896  0.00  0.00    +0.000 C 
ATOM     18  C   UNL     1       5.076 -27.983  -3.403  0.00  0.00    +0.000 C 
ATOM     19  C   UNL     1       4.599 -28.091  -1.985  0.00  0.00    +0.000 C 
ATOM     20  C   UNL     1       5.178 -29.166  -4.153  0.00  0.00    +0.000 C 
ATOM     21  C   UNL     1       5.264 -30.253  -4.841  0.00  0.00    +0.000 C 
ATOM     22  C   UNL     1       6.566 -30.991  -4.890  0.00  0.00    +0.000 C 
ATOM     23  C   UNL     1       4.193 -30.573  -5.837  0.00  0.00    +0.000 C 
ENDBRANCH  13  15
ENDBRANCH  11  14
ENDBRANCH   6  10
BRANCH   3  24
ATOM     24  O   UNL     1       0.331 -19.911   0.364  0.00  0.00    +0.000 OA
ATOM     25  H   UNL     1       0.223 -19.461   1.219  0.00  0.00    +0.000 HD
ENDBRANCH   3  24
BRANCH   3  26
ATOM     26  C   UNL     1       1.124 -18.255  -1.117  0.00  0.00    +0.000 C 
ATOM     27  C   UNL     1       0.740 -17.102  -2.048  0.00  0.00    +0.000 C 
BRANCH  27  28
ATOM     28  C   UNL     1       0.354 -15.947  -2.976  0.00  0.00    +0.000 C 
ATOM     29  C   UNL     1      -0.034 -14.793  -3.907  0.00  0.00    +0.000 C 
BRANCH  29  31
ATOM     30  O   UNL     1      -1.236 -13.812  -5.653  0.00  0.00    +0.000 OA
ATOM     31  C   UNL     1      -0.397 -13.715  -4.775  0.00  0.00    +0.000 C 
BRANCH  31  32
ATOM     32  O   UNL     1       0.273 -12.573  -4.538  0.00  0.00    +0.000 OA
ATOM     33  H   UNL     1      -0.434 -11.931  -4.321  0.00  0.00    +0.000 HD
ENDBRANCH  31  32
ENDBRANCH  29  31
ENDBRANCH  27  28
ENDBRANCH   3  26
TORSDOF 8
ENDMDL
MODEL 4
REMARK VINA RESULT:      -5.3     18.178     22.506
REMARK  Name = 122178712_SalternamideA.pdbqt.pdb
REMARK  8 active torsions:
REMARK  status: ('A' for Active; 'I' for Inactive)
REMARK    1  A    between atoms: C_3  and  O_24
REMARK    2  A    between atoms: C_3  and  C_26
REMARK    3  A    between atoms: C_6  and  N_10
REMARK    4  A    between atoms: C_11  and  C_14
REMARK    5  A    between atoms: C_13  and  C_15
REMARK    6  A    between atoms: C_27  and  C_28
REMARK    7  A    between atoms: C_29  and  C_31
REMARK    8  A    between atoms: C_31  and  O_32
REMARK                            x       y       z     vdW  Elec       q    Type
REMARK                         _______ _______ _______ _____ _____    ______ ____
ROOT
ATOM      1 CL   UNL     1     -13.309 -16.823 -19.932  0.00  0.00    +0.000 Cl
ATOM      2  O   UNL     1     -10.340 -16.495 -18.923  0.00  0.00    +0.000 OA
ATOM      3  C   UNL     1     -13.407 -14.996 -16.295  0.00  0.00    +0.000 C 
ATOM      4  C   UNL     1     -11.944 -15.067 -16.144  0.00  0.00    +0.000 C 
ATOM      5  C   UNL     1     -13.514 -15.602 -17.632  0.00  0.00    +0.000 C 
ATOM      6  C   UNL     1     -10.908 -15.466 -16.824  0.00  0.00    +0.000 C 
ATOM      7  C   UNL     1     -12.707 -16.076 -18.536  0.00  0.00    +0.000 C 
ATOM      8  C   UNL     1     -11.229 -16.066 -18.199  0.00  0.00    +0.000 C 
ENDROOT
BRANCH   6  10
ATOM      9  O   UNL     1      -9.195 -17.609 -15.815  0.00  0.00    +0.000 OA
ATOM     10  N   UNL     1      -9.600 -15.406 -16.421  0.00  0.00    +0.000 N 
ATOM     11  C   UNL     1      -8.839 -16.448 -15.954  0.00  0.00    +0.000 C 
ATOM     12  H   UNL     1      -9.171 -14.484 -16.480  0.00  0.00    +0.000 HD
BRANCH  11  14
ATOM     13  C   UNL     1      -6.359 -15.790 -15.309  0.00  0.00    +0.000 C 
ATOM     14  C   UNL     1      -7.483 -16.096 -15.602  0.00  0.00    +0.000 C 
BRANCH  13  15
ATOM     15  C   UNL     1      -5.036 -15.424 -14.959  0.00  0.00    +0.000 C 
ATOM     16  C   UNL     1      -4.812 -14.057 -14.375  0.00  0.00    +0.000 C 
ATOM     17  C   UNL     1      -3.898 -16.228 -15.164  0.00  0.00    +0.000 C 
ATOM     18  C   UNL     1      -2.751 -17.024 -15.361  0.00  0.00    +0.000 C 
ATOM     19  C   UNL     1      -2.956 -18.495 -15.568  0.00  0.00    +0.000 C 
ATOM     20  C   UNL     1      -1.436 -16.532 -15.401  0.00  0.00    +0.000 C 
ATOM     21  C   UNL     1      -0.229 -16.082 -15.445  0.00  0.00    +0.000 C 
ATOM     22  C   UNL     1       0.555 -15.955 -14.176  0.00  0.00    +0.000 C 
ATOM     23  C   UNL     1       0.246 -15.385 -16.683  0.00  0.00    +0.000 C 
ENDBRANCH  13  15
ENDBRANCH  11  14
ENDBRANCH   6  10
BRANCH   3  24
ATOM     24  O   UNL     1     -13.805 -13.643 -16.364  0.00  0.00    +0.000 OA
ATOM     25  H   UNL     1     -14.772 -13.644 -16.266  0.00  0.00    +0.000 HD
ENDBRANCH   3  24
BRANCH   3  26
ATOM     26  C   UNL     1     -14.154 -15.696 -15.258  0.00  0.00    +0.000 C 
ATOM     27  C   UNL     1     -14.935 -16.435 -14.167  0.00  0.00    +0.000 C 
BRANCH  27  28
ATOM     28  C   UNL     1     -15.712 -17.175 -13.074  0.00  0.00    +0.000 C 
ATOM     29  C   UNL     1     -16.490 -17.918 -11.984  0.00  0.00    +0.000 C 
BRANCH  29  31
ATOM     30  O   UNL     1     -18.399 -18.893 -11.054  0.00  0.00    +0.000 OA
ATOM     31  C   UNL     1     -17.216 -18.613 -10.965  0.00  0.00    +0.000 C 
BRANCH  31  32
ATOM     32  O   UNL     1     -16.476 -18.935  -9.889  0.00  0.00    +0.000 OA
ATOM     33  H   UNL     1     -16.800 -18.324  -9.195  0.00  0.00    +0.000 HD
ENDBRANCH  31  32
ENDBRANCH  29  31
ENDBRANCH  27  28
ENDBRANCH   3  26
TORSDOF 8
ENDMDL
MODEL 5
REMARK VINA RESULT:      -5.2      2.179      2.553
REMARK  Name = 122178712_SalternamideA.pdbqt.pdb
REMARK  8 active torsions:
REMARK  status: ('A' for Active; 'I' for Inactive)
REMARK    1  A    between atoms: C_3  and  O_24
REMARK    2  A    between atoms: C_3  and  C_26
REMARK    3  A    between atoms: C_6  and  N_10
REMARK    4  A    between atoms: C_11  and  C_14
REMARK    5  A    between atoms: C_13  and  C_15
REMARK    6  A    between atoms: C_27  and  C_28
REMARK    7  A    between atoms: C_29  and  C_31
REMARK    8  A    between atoms: C_31  and  O_32
REMARK                            x       y       z     vdW  Elec       q    Type
REMARK                         _______ _______ _______ _____ _____    ______ ____
ROOT
ATOM      1 CL   UNL     1       9.568 -24.122  -1.916  0.00  0.00    +0.000 Cl
ATOM      2  O   UNL     1       7.418 -21.848  -1.531  0.00  0.00    +0.000 OA
ATOM      3  C   UNL     1       6.012 -25.493  -3.347  0.00  0.00    +0.000 C 
ATOM      4  C   UNL     1       5.305 -24.259  -2.966  0.00  0.00    +0.000 C 
ATOM      5  C   UNL     1       7.365 -25.107  -2.914  0.00  0.00    +0.000 C 
ATOM      6  C   UNL     1       5.575 -23.101  -2.435  0.00  0.00    +0.000 C 
ATOM      7  C   UNL     1       7.940 -24.069  -2.380  0.00  0.00    +0.000 C 
ATOM      8  C   UNL     1       7.045 -22.889  -2.056  0.00  0.00    +0.000 C 
ENDROOT
BRANCH   6  10
ATOM      9  O   UNL     1       5.342 -20.490  -3.729  0.00  0.00    +0.000 OA
ATOM     10  N   UNL     1       4.679 -22.093  -2.188  0.00  0.00    +0.000 N 
ATOM     11  C   UNL     1       4.613 -20.881  -2.830  0.00  0.00    +0.000 C 
ATOM     12  H   UNL     1       4.005 -22.285  -1.449  0.00  0.00    +0.000 HD
BRANCH  11  14
ATOM     13  C   UNL     1       2.691 -19.282  -1.968  0.00  0.00    +0.000 C 
ATOM     14  C   UNL     1       3.561 -20.009  -2.366  0.00  0.00    +0.000 C 
BRANCH  13  15
ATOM     15  C   UNL     1       1.671 -18.420  -1.494  0.00  0.00    +0.000 C 
ATOM     16  C   UNL     1       1.104 -18.680  -0.127  0.00  0.00    +0.000 C 
ATOM     17  C   UNL     1       1.107 -17.362  -2.232  0.00  0.00    +0.000 C 
ATOM     18  C   UNL     1       0.534 -16.297  -2.958  0.00  0.00    +0.000 C 
ATOM     19  C   UNL     1       1.305 -15.765  -4.130  0.00  0.00    +0.000 C 
ATOM     20  C   UNL     1      -0.714 -15.718  -2.675  0.00  0.00    +0.000 C 
ATOM     21  C   UNL     1      -1.862 -15.190  -2.422  0.00  0.00    +0.000 C 
ATOM     22  C   UNL     1      -1.952 -14.058  -1.446  0.00  0.00    +0.000 C 
ATOM     23  C   UNL     1      -3.106 -15.917  -2.830  0.00  0.00    +0.000 C 
ENDBRANCH  13  15
ENDBRANCH  11  14
ENDBRANCH   6  10
BRANCH   3  24
ATOM     24  O   UNL     1       5.994 -25.627  -4.753  0.00  0.00    +0.000 OA
ATOM     25  H   UNL     1       6.358 -26.509  -4.941  0.00  0.00    +0.000 HD
ENDBRANCH   3  24
BRANCH   3  26
ATOM     26  C   UNL     1       5.500 -26.701  -2.712  0.00  0.00    +0.000 C 
ATOM     27  C   UNL     1       4.962 -27.973  -2.050  0.00  0.00    +0.000 C 
BRANCH  27  28
ATOM     28  C   UNL     1       4.424 -29.246  -1.391  0.00  0.00    +0.000 C 
ATOM     29  C   UNL     1       3.887 -30.522  -0.736  0.00  0.00    +0.000 C 
BRANCH  29  31
ATOM     30  O   UNL     1       3.738 -32.836  -0.443  0.00  0.00    +0.000 OA
ATOM     31  C   UNL     1       3.385 -31.714  -0.122  0.00  0.00    +0.000 C 
BRANCH  31  32
ATOM     32  O   UNL     1       2.482 -31.491   0.849  0.00  0.00    +0.000 OA
ATOM     33  H   UNL     1       1.959 -30.737   0.508  0.00  0.00    +0.000 HD
ENDBRANCH  31  32
ENDBRANCH  29  31
ENDBRANCH  27  28
ENDBRANCH   3  26
TORSDOF 8
ENDMDL
MODEL 6
REMARK VINA RESULT:      -5.0     17.218     21.267
REMARK  Name = 122178712_SalternamideA.pdbqt.pdb
REMARK  8 active torsions:
REMARK  status: ('A' for Active; 'I' for Inactive)
REMARK    1  A    between atoms: C_3  and  O_24
REMARK    2  A    between atoms: C_3  and  C_26
REMARK    3  A    between atoms: C_6  and  N_10
REMARK    4  A    between atoms: C_11  and  C_14
REMARK    5  A    between atoms: C_13  and  C_15
REMARK    6  A    between atoms: C_27  and  C_28
REMARK    7  A    between atoms: C_29  and  C_31
REMARK    8  A    between atoms: C_31  and  O_32
REMARK                            x       y       z     vdW  Elec       q    Type
REMARK                         _______ _______ _______ _____ _____    ______ ____
ROOT
ATOM      1 CL   UNL     1      -0.804  -7.679  -9.038  0.00  0.00    +0.000 Cl
ATOM      2  O   UNL     1      -1.645  -9.886 -11.127  0.00  0.00    +0.000 OA
ATOM      3  C   UNL     1      -4.655  -8.748  -8.262  0.00  0.00    +0.000 C 
ATOM      4  C   UNL     1      -4.696  -9.685  -9.397  0.00  0.00    +0.000 C 
ATOM      5  C   UNL     1      -3.257  -8.306  -8.399  0.00  0.00    +0.000 C 
ATOM      6  C   UNL     1      -3.899 -10.136 -10.323  0.00  0.00    +0.000 C 
ATOM      7  C   UNL     1      -2.245  -8.559  -9.176  0.00  0.00    +0.000 C 
ATOM      8  C   UNL     1      -2.480  -9.555 -10.295  0.00  0.00    +0.000 C 
ENDROOT
BRANCH   6  10
ATOM      9  O   UNL     1      -5.612  -9.803 -12.668  0.00  0.00    +0.000 OA
ATOM     10  N   UNL     1      -4.218 -11.049 -11.293  0.00  0.00    +0.000 N 
ATOM     11  C   UNL     1      -5.030 -10.839 -12.379  0.00  0.00    +0.000 C 
ATOM     12  H   UNL     1      -3.800 -11.970 -11.175  0.00  0.00    +0.000 HD
BRANCH  11  14
ATOM     13  C   UNL     1      -5.328 -12.941 -13.958  0.00  0.00    +0.000 C 
ATOM     14  C   UNL     1      -5.189 -11.983 -13.246  0.00  0.00    +0.000 C 
BRANCH  13  15
ATOM     15  C   UNL     1      -5.500 -14.071 -14.794  0.00  0.00    +0.000 C 
ATOM     16  C   UNL     1      -6.854 -14.302 -15.403  0.00  0.00    +0.000 C 
ATOM     17  C   UNL     1      -4.504 -15.033 -15.059  0.00  0.00    +0.000 C 
ATOM     18  C   UNL     1      -3.518 -16.000 -15.337  0.00  0.00    +0.000 C 
ATOM     19  C   UNL     1      -2.088 -15.624 -15.084  0.00  0.00    +0.000 C 
ATOM     20  C   UNL     1      -3.781 -17.297 -15.809  0.00  0.00    +0.000 C 
ATOM     21  C   UNL     1      -4.021 -18.489 -16.236  0.00  0.00    +0.000 C 
ATOM     22  C   UNL     1      -4.122 -18.737 -17.709  0.00  0.00    +0.000 C 
ATOM     23  C   UNL     1      -4.526 -19.521 -15.275  0.00  0.00    +0.000 C 
ENDBRANCH  13  15
ENDBRANCH  11  14
ENDBRANCH   6  10
BRANCH   3  24
ATOM     24  O   UNL     1      -4.798  -9.469  -7.056  0.00  0.00    +0.000 OA
ATOM     25  H   UNL     1      -4.902 -10.401  -7.313  0.00  0.00    +0.000 HD
ENDBRANCH   3  24
BRANCH   3  26
ATOM     26  C   UNL     1      -5.635  -7.672  -8.333  0.00  0.00    +0.000 C 
ATOM     27  C   UNL     1      -6.663  -6.540  -8.414  0.00  0.00    +0.000 C 
BRANCH  27  28
ATOM     28  C   UNL     1      -7.693  -5.409  -8.499  0.00  0.00    +0.000 C 
ATOM     29  C   UNL     1      -8.721  -4.278  -8.588  0.00  0.00    +0.000 C 
BRANCH  29  31
ATOM     30  O   UNL     1     -10.792  -3.358  -9.158  0.00  0.00    +0.000 OA
ATOM     31  C   UNL     1      -9.684  -3.222  -8.670  0.00  0.00    +0.000 C 
BRANCH  31  32
ATOM     32  O   UNL     1      -9.258  -2.053  -8.159  0.00  0.00    +0.000 OA
ATOM     33  H   UNL     1     -10.077  -1.523  -8.081  0.00  0.00    +0.000 HD
ENDBRANCH  31  32
ENDBRANCH  29  31
ENDBRANCH  27  28
ENDBRANCH   3  26
TORSDOF 8
ENDMDL
MODEL 7
REMARK VINA RESULT:      -5.0     10.638     11.942
REMARK  Name = 122178712_SalternamideA.pdbqt.pdb
REMARK  8 active torsions:
REMARK  status: ('A' for Active; 'I' for Inactive)
REMARK    1  A    between atoms: C_3  and  O_24
REMARK    2  A    between atoms: C_3  and  C_26
REMARK    3  A    between atoms: C_6  and  N_10
REMARK    4  A    between atoms: C_11  and  C_14
REMARK    5  A    between atoms: C_13  and  C_15
REMARK    6  A    between atoms: C_27  and  C_28
REMARK    7  A    between atoms: C_29  and  C_31
REMARK    8  A    between atoms: C_31  and  O_32
REMARK                            x       y       z     vdW  Elec       q    Type
REMARK                         _______ _______ _______ _____ _____    ______ ____
ROOT
ATOM      1 CL   UNL     1       9.785 -24.992 -12.000  0.00  0.00    +0.000 Cl
ATOM      2  O   UNL     1       7.461 -22.898 -12.399  0.00  0.00    +0.000 OA
ATOM      3  C   UNL     1       6.258 -27.023 -12.096  0.00  0.00    +0.000 C 
ATOM      4  C   UNL     1       5.471 -25.787 -12.230  0.00  0.00    +0.000 C 
ATOM      5  C   UNL     1       7.602 -26.422 -12.094  0.00  0.00    +0.000 C 
ATOM      6  C   UNL     1       5.673 -24.505 -12.341  0.00  0.00    +0.000 C 
ATOM      7  C   UNL     1       8.119 -25.232 -12.191  0.00  0.00    +0.000 C 
ATOM      8  C   UNL     1       7.145 -24.078 -12.322  0.00  0.00    +0.000 C 
ENDROOT
BRANCH   6  10
ATOM      9  O   UNL     1       4.202 -23.659 -14.721  0.00  0.00    +0.000 OA
ATOM     10  N   UNL     1       4.708 -23.539 -12.459  0.00  0.00    +0.000 N 
ATOM     11  C   UNL     1       4.045 -23.181 -13.607  0.00  0.00    +0.000 C 
ATOM     12  H   UNL     1       4.477 -23.050 -11.597  0.00  0.00    +0.000 HD
BRANCH  11  14
ATOM     13  C   UNL     1       2.250 -21.262 -13.306  0.00  0.00    +0.000 C 
ATOM     14  C   UNL     1       3.070 -22.129 -13.439  0.00  0.00    +0.000 C 
BRANCH  13  15
ATOM     15  C   UNL     1       1.277 -20.245 -13.148  0.00  0.00    +0.000 C 
ATOM     16  C   UNL     1       0.826 -19.906 -11.755  0.00  0.00    +0.000 C 
ATOM     17  C   UNL     1       0.656 -19.556 -14.209  0.00  0.00    +0.000 C 
ATOM     18  C   UNL     1       0.028 -18.856 -15.259  0.00  0.00    +0.000 C 
ATOM     19  C   UNL     1       0.699 -18.874 -16.601  0.00  0.00    +0.000 C 
ATOM     20  C   UNL     1      -1.190 -18.166 -15.144  0.00  0.00    +0.000 C 
ATOM     21  C   UNL     1      -2.311 -17.537 -15.041  0.00  0.00    +0.000 C 
ATOM     22  C   UNL     1      -2.313 -16.104 -14.606  0.00  0.00    +0.000 C 
ATOM     23  C   UNL     1      -3.587 -18.319 -15.022  0.00  0.00    +0.000 C 
ENDBRANCH  13  15
ENDBRANCH  11  14
ENDBRANCH   6  10
BRANCH   3  24
ATOM     24  O   UNL     1       6.101 -27.806 -13.261  0.00  0.00    +0.000 OA
ATOM     25  H   UNL     1       5.158 -27.750 -13.495  0.00  0.00    +0.000 HD
ENDBRANCH   3  24
BRANCH   3  26
ATOM     26  C   UNL     1       5.950 -27.808 -10.907  0.00  0.00    +0.000 C 
ATOM     27  C   UNL     1       5.625 -28.637  -9.661  0.00  0.00    +0.000 C 
BRANCH  27  28
ATOM     28  C   UNL     1       5.300 -29.470  -8.417  0.00  0.00    +0.000 C 
ATOM     29  C   UNL     1       4.977 -30.305  -7.175  0.00  0.00    +0.000 C 
BRANCH  29  31
ATOM     30  O   UNL     1       5.211 -32.149  -5.758  0.00  0.00    +0.000 OA
ATOM     31  C   UNL     1       4.675 -31.084  -6.012  0.00  0.00    +0.000 C 
BRANCH  31  32
ATOM     32  O   UNL     1       3.741 -30.537  -5.215  0.00  0.00    +0.000 OA
ATOM     33  H   UNL     1       3.532 -29.686  -5.653  0.00  0.00    +0.000 HD
ENDBRANCH  31  32
ENDBRANCH  29  31
ENDBRANCH  27  28
ENDBRANCH   3  26
TORSDOF 8
ENDMDL
MODEL 8
REMARK VINA RESULT:      -4.9     14.615     18.560
REMARK  Name = 122178712_SalternamideA.pdbqt.pdb
REMARK  8 active torsions:
REMARK  status: ('A' for Active; 'I' for Inactive)
REMARK    1  A    between atoms: C_3  and  O_24
REMARK    2  A    between atoms: C_3  and  C_26
REMARK    3  A    between atoms: C_6  and  N_10
REMARK    4  A    between atoms: C_11  and  C_14
REMARK    5  A    between atoms: C_13  and  C_15
REMARK    6  A    between atoms: C_27  and  C_28
REMARK    7  A    between atoms: C_29  and  C_31
REMARK    8  A    between atoms: C_31  and  O_32
REMARK                            x       y       z     vdW  Elec       q    Type
REMARK                         _______ _______ _______ _____ _____    ______ ____
ROOT
ATOM      1 CL   UNL     1     -12.568 -35.804   0.810  0.00  0.00    +0.000 Cl
ATOM      2  O   UNL     1      -9.923 -36.799  -0.588  0.00  0.00    +0.000 OA
ATOM      3  C   UNL     1     -10.001 -32.652   0.578  0.00  0.00    +0.000 C 
ATOM      4  C   UNL     1      -8.943 -33.471  -0.037  0.00  0.00    +0.000 C 
ATOM      5  C   UNL     1     -11.042 -33.689   0.681  0.00  0.00    +0.000 C 
ATOM      6  C   UNL     1      -8.767 -34.694  -0.449  0.00  0.00    +0.000 C 
ATOM      7  C   UNL     1     -11.177 -34.944   0.368  0.00  0.00    +0.000 C 
ATOM      8  C   UNL     1      -9.973 -35.621  -0.258  0.00  0.00    +0.000 C 
ENDROOT
BRANCH   6  10
ATOM      9  O   UNL     1      -7.357 -33.824  -2.857  0.00  0.00    +0.000 OA
ATOM     10  N   UNL     1      -7.626 -35.204  -1.011  0.00  0.00    +0.000 N 
ATOM     11  C   UNL     1      -7.003 -34.754  -2.148  0.00  0.00    +0.000 C 
ATOM     12  H   UNL     1      -7.218 -35.997  -0.519  0.00  0.00    +0.000 HD
BRANCH  11  14
ATOM     13  C   UNL     1      -4.809 -36.073  -2.815  0.00  0.00    +0.000 C 
ATOM     14  C   UNL     1      -5.808 -35.480  -2.510  0.00  0.00    +0.000 C 
BRANCH  13  15
ATOM     15  C   UNL     1      -3.626 -36.765  -3.174  0.00  0.00    +0.000 C 
ATOM     16  C   UNL     1      -3.411 -37.095  -4.624  0.00  0.00    +0.000 C 
ATOM     17  C   UNL     1      -2.651 -37.217  -2.262  0.00  0.00    +0.000 C 
ATOM     18  C   UNL     1      -1.667 -37.672  -1.362  0.00  0.00    +0.000 C 
ATOM     19  C   UNL     1      -1.635 -37.049   0.003  0.00  0.00    +0.000 C 
ATOM     20  C   UNL     1      -0.732 -38.681  -1.644  0.00  0.00    +0.000 C 
ATOM     21  C   UNL     1       0.122 -39.613  -1.899  0.00  0.00    +0.000 C 
ATOM     22  C   UNL     1       1.428 -39.258  -2.539  0.00  0.00    +0.000 C 
ATOM     23  C   UNL     1      -0.326 -41.041  -1.872  0.00  0.00    +0.000 C 
ENDBRANCH  13  15
ENDBRANCH  11  14
ENDBRANCH   6  10
BRANCH   3  24
ATOM     24  O   UNL     1     -10.419 -31.663  -0.339  0.00  0.00    +0.000 OA
ATOM     25  H   UNL     1     -10.123 -31.968  -1.214  0.00  0.00    +0.000 HD
ENDBRANCH   3  24
BRANCH   3  26
ATOM     26  C   UNL     1      -9.631 -32.046   1.851  0.00  0.00    +0.000 C 
ATOM     27  C   UNL     1      -9.246 -31.406   3.188  0.00  0.00    +0.000 C 
BRANCH  27  28
ATOM     28  C   UNL     1      -8.865 -30.763   4.524  0.00  0.00    +0.000 C 
ATOM     29  C   UNL     1      -8.487 -30.121   5.863  0.00  0.00    +0.000 C 
BRANCH  29  31
ATOM     30  O   UNL     1      -7.828 -30.164   8.104  0.00  0.00    +0.000 OA
ATOM     31  C   UNL     1      -8.132 -29.523   7.114  0.00  0.00    +0.000 C 
BRANCH  31  32
ATOM     32  O   UNL     1      -8.162 -28.178   7.104  0.00  0.00    +0.000 OA
ATOM     33  H   UNL     1      -7.471 -27.927   7.751  0.00  0.00    +0.000 HD
ENDBRANCH  31  32
ENDBRANCH  29  31
ENDBRANCH  27  28
ENDBRANCH   3  26
TORSDOF 8
ENDMDL
MODEL 9
REMARK VINA RESULT:      -4.9     19.378     22.660
REMARK  Name = 122178712_SalternamideA.pdbqt.pdb
REMARK  8 active torsions:
REMARK  status: ('A' for Active; 'I' for Inactive)
REMARK    1  A    between atoms: C_3  and  O_24
REMARK    2  A    between atoms: C_3  and  C_26
REMARK    3  A    between atoms: C_6  and  N_10
REMARK    4  A    between atoms: C_11  and  C_14
REMARK    5  A    between atoms: C_13  and  C_15
REMARK    6  A    between atoms: C_27  and  C_28
REMARK    7  A    between atoms: C_29  and  C_31
REMARK    8  A    between atoms: C_31  and  O_32
REMARK                            x       y       z     vdW  Elec       q    Type
REMARK                         _______ _______ _______ _____ _____    ______ ____
ROOT
ATOM      1 CL   UNL     1     -14.014 -17.035 -19.538  0.00  0.00    +0.000 Cl
ATOM      2  O   UNL     1     -11.050 -16.337 -18.722  0.00  0.00    +0.000 OA
ATOM      3  C   UNL     1     -14.110 -15.147 -15.933  0.00  0.00    +0.000 C 
ATOM      4  C   UNL     1     -12.643 -15.042 -15.872  0.00  0.00    +0.000 C 
ATOM      5  C   UNL     1     -14.224 -15.792 -17.251  0.00  0.00    +0.000 C 
ATOM      6  C   UNL     1     -11.609 -15.333 -16.609  0.00  0.00    +0.000 C 
ATOM      7  C   UNL     1     -13.422 -16.190 -18.195  0.00  0.00    +0.000 C 
ATOM      8  C   UNL     1     -11.938 -15.998 -17.951  0.00  0.00    +0.000 C 
ENDROOT
BRANCH   6  10
ATOM      9  O   UNL     1      -9.544 -17.264 -15.867  0.00  0.00    +0.000 OA
ATOM     10  N   UNL     1     -10.296 -15.109 -16.289  0.00  0.00    +0.000 N 
ATOM     11  C   UNL     1      -9.364 -16.057 -15.947  0.00  0.00    +0.000 C 
ATOM     12  H   UNL     1     -10.005 -14.133 -16.311  0.00  0.00    +0.000 HD
BRANCH  11  14
ATOM     13  C   UNL     1      -6.959 -15.090 -15.421  0.00  0.00    +0.000 C 
ATOM     14  C   UNL     1      -8.048 -15.536 -15.661  0.00  0.00    +0.000 C 
BRANCH  13  15
ATOM     15  C   UNL     1      -5.678 -14.560 -15.132  0.00  0.00    +0.000 C 
ATOM     16  C   UNL     1      -4.621 -15.499 -14.623  0.00  0.00    +0.000 C 
ATOM     17  C   UNL     1      -5.329 -13.199 -15.236  0.00  0.00    +0.000 C 
ATOM     18  C   UNL     1      -4.966 -11.841 -15.339  0.00  0.00    +0.000 C 
ATOM     19  C   UNL     1      -5.830 -10.954 -16.186  0.00  0.00    +0.000 C 
ATOM     20  C   UNL     1      -3.868 -11.256 -14.687  0.00  0.00    +0.000 C 
ATOM     21  C   UNL     1      -2.864 -10.717 -14.083  0.00  0.00    +0.000 C 
ATOM     22  C   UNL     1      -1.519 -10.724 -14.742  0.00  0.00    +0.000 C 
ATOM     23  C   UNL     1      -2.972 -10.405 -12.623  0.00  0.00    +0.000 C 
ENDBRANCH  13  15
ENDBRANCH  11  14
ENDBRANCH   6  10
BRANCH   3  24
ATOM     24  O   UNL     1     -14.669 -13.852 -16.000  0.00  0.00    +0.000 OA
ATOM     25  H   UNL     1     -14.236 -13.412 -16.752  0.00  0.00    +0.000 HD
ENDBRANCH   3  24
BRANCH   3  26
ATOM     26  C   UNL     1     -14.706 -15.905 -14.840  0.00  0.00    +0.000 C 
ATOM     27  C   UNL     1     -15.328 -16.699 -13.688  0.00  0.00    +0.000 C 
BRANCH  27  28
ATOM     28  C   UNL     1     -15.948 -17.491 -12.533  0.00  0.00    +0.000 C 
ATOM     29  C   UNL     1     -16.570 -18.280 -11.377  0.00  0.00    +0.000 C 
BRANCH  29  31
ATOM     30  O   UNL     1     -18.290 -19.454 -10.317  0.00  0.00    +0.000 OA
ATOM     31  C   UNL     1     -17.152 -19.019 -10.298  0.00  0.00    +0.000 C 
BRANCH  31  32
ATOM     32  O   UNL     1     -16.329 -19.194  -9.249  0.00  0.00    +0.000 OA
ATOM     33  H   UNL     1     -16.940 -19.357  -8.501  0.00  0.00    +0.000 HD
ENDBRANCH  31  32
ENDBRANCH  29  31
ENDBRANCH  27  28
ENDBRANCH   3  26
TORSDOF 8
ENDMDL
