MODEL 1
REMARK VINA RESULT:      -4.7      0.000      0.000
REMARK  Name = 122180587_TripolinolateA.pdbqt.pdb
REMARK  9 active torsions:
REMARK  status: ('A' for Active; 'I' for Inactive)
REMARK    1  A    between atoms: C_1  and  O_16
REMARK    2  A    between atoms: C_2  and  O_7
REMARK    3  A    between atoms: C_3  and  C_9
REMARK    4  A    between atoms: C_10  and  C_11
REMARK    5  A    between atoms: C_11  and  O_12
REMARK    6  A    between atoms: O_12  and  C_14
REMARK    7  A    between atoms: O_16  and  C_18
REMARK    8  A    between atoms: C_18  and  C_19
REMARK    9  A    between atoms: C_19  and  C_21
REMARK                            x       y       z     vdW  Elec       q    Type
REMARK                         _______ _______ _______ _____ _____    ______ ____
ROOT
ATOM      1  C   UNL     1      -4.600 -34.537  -5.815  0.00  0.00    +0.000 A 
ATOM      2  C   UNL     1      -5.348 -34.717  -4.647  0.00  0.00    +0.000 A 
ATOM      3  C   UNL     1      -3.372 -35.649  -3.592  0.00  0.00    +0.000 A 
ATOM      4  C   UNL     1      -3.263 -34.934  -5.893  0.00  0.00    +0.000 A 
ATOM      5  C   UNL     1      -4.714 -35.274  -3.533  0.00  0.00    +0.000 A 
ATOM      6  C   UNL     1      -2.648 -35.483  -4.772  0.00  0.00    +0.000 A 
ENDROOT
BRANCH   2   7
ATOM      7  O   UNL     1      -6.669 -34.348  -4.683  0.00  0.00    +0.000 OA
ATOM      8  C   UNL     1      -6.982 -33.146  -4.036  0.00  0.00    +0.000 C 
ENDBRANCH   2   7
BRANCH   3   9
ATOM      9  C   UNL     1      -2.741 -36.211  -2.444  0.00  0.00    +0.000 C 
ATOM     10  C   UNL     1      -2.209 -36.683  -1.476  0.00  0.00    +0.000 C 
BRANCH  10  11
ATOM     11  C   UNL     1      -1.527 -37.282  -0.242  0.00  0.00    +0.000 C 
BRANCH  11  12
ATOM     12  O   UNL     1      -0.936 -37.804   0.830  0.00  0.00    +0.000 OA
BRANCH  12  14
ATOM     13  O   UNL     1      -2.030 -39.391   2.154  0.00  0.00    +0.000 OA
ATOM     14  C   UNL     1      -1.381 -39.023   1.192  0.00  0.00    +0.000 C 
ATOM     15  C   UNL     1      -1.017 -40.119   0.247  0.00  0.00    +0.000 C 
ENDBRANCH  12  14
ENDBRANCH  11  12
ENDBRANCH  10  11
ENDBRANCH   3   9
BRANCH   1  16
ATOM     16  O   UNL     1      -5.216 -34.030  -6.967  0.00  0.00    +0.000 OA
BRANCH  16  18
ATOM     17  O   UNL     1      -4.382 -31.863  -6.830  0.00  0.00    +0.000 OA
ATOM     18  C   UNL     1      -4.601 -32.888  -7.464  0.00  0.00    +0.000 C 
BRANCH  18  19
ATOM     19  C   UNL     1      -4.249 -33.064  -8.895  0.00  0.00    +0.000 C 
ATOM     20  C   UNL     1      -5.206 -33.642  -9.929  0.00  0.00    +0.000 C 
BRANCH  19  21
ATOM     21  C   UNL     1      -2.959 -32.672  -9.341  0.00  0.00    +0.000 C 
ATOM     22  C   UNL     1      -1.559 -32.242  -9.819  0.00  0.00    +0.000 C 
ENDBRANCH  19  21
ENDBRANCH  18  19
ENDBRANCH  16  18
ENDBRANCH   1  16
TORSDOF 9
ENDMDL
MODEL 2
REMARK VINA RESULT:      -4.6      1.917      2.288
REMARK  Name = 122180587_TripolinolateA.pdbqt.pdb
REMARK  9 active torsions:
REMARK  status: ('A' for Active; 'I' for Inactive)
REMARK    1  A    between atoms: C_1  and  O_16
REMARK    2  A    between atoms: C_2  and  O_7
REMARK    3  A    between atoms: C_3  and  C_9
REMARK    4  A    between atoms: C_10  and  C_11
REMARK    5  A    between atoms: C_11  and  O_12
REMARK    6  A    between atoms: O_12  and  C_14
REMARK    7  A    between atoms: O_16  and  C_18
REMARK    8  A    between atoms: C_18  and  C_19
REMARK    9  A    between atoms: C_19  and  C_21
REMARK                            x       y       z     vdW  Elec       q    Type
REMARK                         _______ _______ _______ _____ _____    ______ ____
ROOT
ATOM      1  C   UNL     1      -4.436 -34.034  -6.397  0.00  0.00    +0.000 A 
ATOM      2  C   UNL     1      -4.785 -35.387  -6.452  0.00  0.00    +0.000 A 
ATOM      3  C   UNL     1      -2.893 -35.874  -5.014  0.00  0.00    +0.000 A 
ATOM      4  C   UNL     1      -3.313 -33.598  -5.690  0.00  0.00    +0.000 A 
ATOM      5  C   UNL     1      -4.001 -36.302  -5.745  0.00  0.00    +0.000 A 
ATOM      6  C   UNL     1      -2.547 -34.524  -4.989  0.00  0.00    +0.000 A 
ENDROOT
BRANCH   2   7
ATOM      7  O   UNL     1      -5.872 -35.726  -7.218  0.00  0.00    +0.000 OA
ATOM      8  C   UNL     1      -5.713 -36.855  -8.030  0.00  0.00    +0.000 C 
ENDBRANCH   2   7
BRANCH   3   9
ATOM      9  C   UNL     1      -2.107 -36.823  -4.296  0.00  0.00    +0.000 C 
ATOM     10  C   UNL     1      -1.444 -37.621  -3.691  0.00  0.00    +0.000 C 
BRANCH  10  11
ATOM     11  C   UNL     1      -0.596 -38.640  -2.923  0.00  0.00    +0.000 C 
BRANCH  11  12
ATOM     12  O   UNL     1       0.143 -39.523  -2.256  0.00  0.00    +0.000 OA
BRANCH  12  14
ATOM     13  O   UNL     1      -0.172 -40.830  -0.342  0.00  0.00    +0.000 OA
ATOM     14  C   UNL     1      -0.308 -39.830  -1.023  0.00  0.00    +0.000 C 
ATOM     15  C   UNL     1      -1.117 -38.757  -0.378  0.00  0.00    +0.000 C 
ENDBRANCH  12  14
ENDBRANCH  11  12
ENDBRANCH  10  11
ENDBRANCH   3   9
BRANCH   1  16
ATOM     16  O   UNL     1      -5.168 -33.094  -7.135  0.00  0.00    +0.000 OA
BRANCH  16  18
ATOM     17  O   UNL     1      -4.015 -31.136  -7.631  0.00  0.00    +0.000 OA
ATOM     18  C   UNL     1      -4.374 -32.270  -7.923  0.00  0.00    +0.000 C 
BRANCH  18  19
ATOM     19  C   UNL     1      -4.021 -32.945  -9.196  0.00  0.00    +0.000 C 
ATOM     20  C   UNL     1      -5.024 -33.723 -10.039  0.00  0.00    +0.000 C 
BRANCH  19  21
ATOM     21  C   UNL     1      -2.685 -32.868  -9.671  0.00  0.00    +0.000 C 
ATOM     22  C   UNL     1      -1.236 -32.775 -10.184  0.00  0.00    +0.000 C 
ENDBRANCH  19  21
ENDBRANCH  18  19
ENDBRANCH  16  18
ENDBRANCH   1  16
TORSDOF 9
ENDMDL
MODEL 3
REMARK VINA RESULT:      -4.6      2.099      9.337
REMARK  Name = 122180587_TripolinolateA.pdbqt.pdb
REMARK  9 active torsions:
REMARK  status: ('A' for Active; 'I' for Inactive)
REMARK    1  A    between atoms: C_1  and  O_16
REMARK    2  A    between atoms: C_2  and  O_7
REMARK    3  A    between atoms: C_3  and  C_9
REMARK    4  A    between atoms: C_10  and  C_11
REMARK    5  A    between atoms: C_11  and  O_12
REMARK    6  A    between atoms: O_12  and  C_14
REMARK    7  A    between atoms: O_16  and  C_18
REMARK    8  A    between atoms: C_18  and  C_19
REMARK    9  A    between atoms: C_19  and  C_21
REMARK                            x       y       z     vdW  Elec       q    Type
REMARK                         _______ _______ _______ _____ _____    ______ ____
ROOT
ATOM      1  C   UNL     1      -1.671 -37.998  -1.684  0.00  0.00    +0.000 A 
ATOM      2  C   UNL     1      -0.999 -38.218  -2.891  0.00  0.00    +0.000 A 
ATOM      3  C   UNL     1      -2.402 -36.525  -3.915  0.00  0.00    +0.000 A 
ATOM      4  C   UNL     1      -2.718 -37.078  -1.590  0.00  0.00    +0.000 A 
ATOM      5  C   UNL     1      -1.375 -37.464  -4.006  0.00  0.00    +0.000 A 
ATOM      6  C   UNL     1      -3.075 -36.334  -2.710  0.00  0.00    +0.000 A 
ENDROOT
BRANCH   2   7
ATOM      7  O   UNL     1      -0.022 -39.181  -2.900  0.00  0.00    +0.000 OA
ATOM      8  C   UNL     1      -0.302 -40.322  -3.663  0.00  0.00    +0.000 C 
ENDBRANCH   2   7
BRANCH   3   9
ATOM      9  C   UNL     1      -2.768 -35.761  -5.063  0.00  0.00    +0.000 C 
ATOM     10  C   UNL     1      -3.076 -35.116  -6.028  0.00  0.00    +0.000 C 
BRANCH  10  11
ATOM     11  C   UNL     1      -3.472 -34.292  -7.257  0.00  0.00    +0.000 C 
BRANCH  11  12
ATOM     12  O   UNL     1      -3.815 -33.576  -8.326  0.00  0.00    +0.000 OA
BRANCH  12  14
ATOM     13  O   UNL     1      -3.784 -31.312  -7.743  0.00  0.00    +0.000 OA
ATOM     14  C   UNL     1      -3.378 -32.301  -8.324  0.00  0.00    +0.000 C 
ATOM     15  C   UNL     1      -2.186 -32.057  -9.187  0.00  0.00    +0.000 C 
ENDBRANCH  12  14
ENDBRANCH  11  12
ENDBRANCH  10  11
ENDBRANCH   3   9
BRANCH   1  16
ATOM     16  O   UNL     1      -1.356 -38.772  -0.559  0.00  0.00    +0.000 OA
BRANCH  16  18
ATOM     17  O   UNL     1      -0.512 -37.076   0.790  0.00  0.00    +0.000 OA
ATOM     18  C   UNL     1      -1.259 -38.029   0.611  0.00  0.00    +0.000 C 
BRANCH  18  19
ATOM     19  C   UNL     1      -2.183 -38.559   1.645  0.00  0.00    +0.000 C 
ATOM     20  C   UNL     1      -2.146 -39.997   2.145  0.00  0.00    +0.000 C 
BRANCH  19  21
ATOM     21  C   UNL     1      -3.154 -37.692   2.211  0.00  0.00    +0.000 C 
ATOM     22  C   UNL     1      -4.213 -36.754   2.821  0.00  0.00    +0.000 C 
ENDBRANCH  19  21
ENDBRANCH  18  19
ENDBRANCH  16  18
ENDBRANCH   1  16
TORSDOF 9
ENDMDL
MODEL 4
REMARK VINA RESULT:      -4.5     18.858     21.417
REMARK  Name = 122180587_TripolinolateA.pdbqt.pdb
REMARK  9 active torsions:
REMARK  status: ('A' for Active; 'I' for Inactive)
REMARK    1  A    between atoms: C_1  and  O_16
REMARK    2  A    between atoms: C_2  and  O_7
REMARK    3  A    between atoms: C_3  and  C_9
REMARK    4  A    between atoms: C_10  and  C_11
REMARK    5  A    between atoms: C_11  and  O_12
REMARK    6  A    between atoms: O_12  and  C_14
REMARK    7  A    between atoms: O_16  and  C_18
REMARK    8  A    between atoms: C_18  and  C_19
REMARK    9  A    between atoms: C_19  and  C_21
REMARK                            x       y       z     vdW  Elec       q    Type
REMARK                         _______ _______ _______ _____ _____    ______ ____
ROOT
ATOM      1  C   UNL     1      -5.865 -16.362 -15.706  0.00  0.00    +0.000 A 
ATOM      2  C   UNL     1      -5.200 -17.559 -15.993  0.00  0.00    +0.000 A 
ATOM      3  C   UNL     1      -3.367 -16.810 -14.592  0.00  0.00    +0.000 A 
ATOM      4  C   UNL     1      -5.285 -15.381 -14.899  0.00  0.00    +0.000 A 
ATOM      5  C   UNL     1      -3.944 -17.773 -15.420  0.00  0.00    +0.000 A 
ATOM      6  C   UNL     1      -4.035 -15.614 -14.334  0.00  0.00    +0.000 A 
ENDROOT
BRANCH   2   7
ATOM      7  O   UNL     1      -5.825 -18.439 -16.840  0.00  0.00    +0.000 OA
ATOM      8  C   UNL     1      -5.376 -19.764 -16.779  0.00  0.00    +0.000 C 
ENDBRANCH   2   7
BRANCH   3   9
ATOM      9  C   UNL     1      -2.086 -17.048 -14.013  0.00  0.00    +0.000 C 
ATOM     10  C   UNL     1      -1.007 -17.250 -13.526  0.00  0.00    +0.000 C 
BRANCH  10  11
ATOM     11  C   UNL     1       0.369 -17.511 -12.904  0.00  0.00    +0.000 C 
BRANCH  11  12
ATOM     12  O   UNL     1       1.564 -17.740 -12.366  0.00  0.00    +0.000 OA
BRANCH  12  14
ATOM     13  O   UNL     1       0.916 -19.612 -11.125  0.00  0.00    +0.000 OA
ATOM     14  C   UNL     1       1.701 -18.939 -11.766  0.00  0.00    +0.000 C 
ATOM     15  C   UNL     1       3.053 -19.551 -11.912  0.00  0.00    +0.000 C 
ENDBRANCH  12  14
ENDBRANCH  11  12
ENDBRANCH  10  11
ENDBRANCH   3   9
BRANCH   1  16
ATOM     16  O   UNL     1      -7.104 -16.092 -16.304  0.00  0.00    +0.000 OA
BRANCH  16  18
ATOM     17  O   UNL     1      -8.397 -17.378 -14.861  0.00  0.00    +0.000 OA
ATOM     18  C   UNL     1      -8.185 -16.335 -15.467  0.00  0.00    +0.000 C 
BRANCH  18  19
ATOM     19  C   UNL     1      -9.080 -15.152 -15.410  0.00  0.00    +0.000 C 
ATOM     20  C   UNL     1     -10.512 -15.158 -15.927  0.00  0.00    +0.000 C 
BRANCH  19  21
ATOM     21  C   UNL     1      -8.592 -13.946 -14.842  0.00  0.00    +0.000 C 
ATOM     22  C   UNL     1      -8.070 -12.637 -14.221  0.00  0.00    +0.000 C 
ENDBRANCH  19  21
ENDBRANCH  18  19
ENDBRANCH  16  18
ENDBRANCH   1  16
TORSDOF 9
ENDMDL
MODEL 5
REMARK VINA RESULT:      -4.5      3.392      8.308
REMARK  Name = 122180587_TripolinolateA.pdbqt.pdb
REMARK  9 active torsions:
REMARK  status: ('A' for Active; 'I' for Inactive)
REMARK    1  A    between atoms: C_1  and  O_16
REMARK    2  A    between atoms: C_2  and  O_7
REMARK    3  A    between atoms: C_3  and  C_9
REMARK    4  A    between atoms: C_10  and  C_11
REMARK    5  A    between atoms: C_11  and  O_12
REMARK    6  A    between atoms: O_12  and  C_14
REMARK    7  A    between atoms: O_16  and  C_18
REMARK    8  A    between atoms: C_18  and  C_19
REMARK    9  A    between atoms: C_19  and  C_21
REMARK                            x       y       z     vdW  Elec       q    Type
REMARK                         _______ _______ _______ _____ _____    ______ ____
ROOT
ATOM      1  C   UNL     1      -5.131 -33.878  -4.964  0.00  0.00    +0.000 A 
ATOM      2  C   UNL     1      -3.776 -34.225  -4.966  0.00  0.00    +0.000 A 
ATOM      3  C   UNL     1      -3.578 -33.210  -7.160  0.00  0.00    +0.000 A 
ATOM      4  C   UNL     1      -5.721 -33.235  -6.054  0.00  0.00    +0.000 A 
ATOM      5  C   UNL     1      -3.004 -33.876  -6.078  0.00  0.00    +0.000 A 
ATOM      6  C   UNL     1      -4.935 -32.892  -7.151  0.00  0.00    +0.000 A 
ENDROOT
BRANCH   2   7
ATOM      7  O   UNL     1      -3.299 -34.905  -3.874  0.00  0.00    +0.000 OA
ATOM      8  C   UNL     1      -2.409 -35.951  -4.152  0.00  0.00    +0.000 C 
ENDBRANCH   2   7
BRANCH   3   9
ATOM      9  C   UNL     1      -2.774 -32.858  -8.284  0.00  0.00    +0.000 C 
ATOM     10  C   UNL     1      -2.095 -32.561  -9.230  0.00  0.00    +0.000 C 
BRANCH  10  11
ATOM     11  C   UNL     1      -1.227 -32.181 -10.433  0.00  0.00    +0.000 C 
BRANCH  11  12
ATOM     12  O   UNL     1      -0.471 -31.849 -11.478  0.00  0.00    +0.000 OA
BRANCH  12  14
ATOM     13  O   UNL     1       1.130 -33.256 -12.439  0.00  0.00    +0.000 OA
ATOM     14  C   UNL     1       0.695 -32.518 -11.574  0.00  0.00    +0.000 C 
ATOM     15  C   UNL     1       1.616 -32.321 -10.418  0.00  0.00    +0.000 C 
ENDBRANCH  12  14
ENDBRANCH  11  12
ENDBRANCH  10  11
ENDBRANCH   3   9
BRANCH   1  16
ATOM     16  O   UNL     1      -5.946 -34.258  -3.889  0.00  0.00    +0.000 OA
BRANCH  16  18
ATOM     17  O   UNL     1      -6.709 -36.286  -4.734  0.00  0.00    +0.000 OA
ATOM     18  C   UNL     1      -6.919 -35.187  -4.236  0.00  0.00    +0.000 C 
BRANCH  18  19
ATOM     19  C   UNL     1      -8.274 -34.663  -3.935  0.00  0.00    +0.000 C 
ATOM     20  C   UNL     1      -9.557 -35.418  -4.259  0.00  0.00    +0.000 C 
BRANCH  19  21
ATOM     21  C   UNL     1      -8.400 -33.396  -3.307  0.00  0.00    +0.000 C 
ATOM     22  C   UNL     1      -8.529 -32.022  -2.622  0.00  0.00    +0.000 C 
ENDBRANCH  19  21
ENDBRANCH  18  19
ENDBRANCH  16  18
ENDBRANCH   1  16
TORSDOF 9
ENDMDL
MODEL 6
REMARK VINA RESULT:      -4.4      9.720     13.875
REMARK  Name = 122180587_TripolinolateA.pdbqt.pdb
REMARK  9 active torsions:
REMARK  status: ('A' for Active; 'I' for Inactive)
REMARK    1  A    between atoms: C_1  and  O_16
REMARK    2  A    between atoms: C_2  and  O_7
REMARK    3  A    between atoms: C_3  and  C_9
REMARK    4  A    between atoms: C_10  and  C_11
REMARK    5  A    between atoms: C_11  and  O_12
REMARK    6  A    between atoms: O_12  and  C_14
REMARK    7  A    between atoms: O_16  and  C_18
REMARK    8  A    between atoms: C_18  and  C_19
REMARK    9  A    between atoms: C_19  and  C_21
REMARK                            x       y       z     vdW  Elec       q    Type
REMARK                         _______ _______ _______ _____ _____    ______ ____
ROOT
ATOM      1  C   UNL     1      -7.578 -31.663   7.161  0.00  0.00    +0.000 A 
ATOM      2  C   UNL     1      -7.643 -32.862   6.444  0.00  0.00    +0.000 A 
ATOM      3  C   UNL     1      -8.418 -31.603   4.521  0.00  0.00    +0.000 A 
ATOM      4  C   UNL     1      -7.956 -30.448   6.586  0.00  0.00    +0.000 A 
ATOM      5  C   UNL     1      -8.063 -32.815   5.112  0.00  0.00    +0.000 A 
ATOM      6  C   UNL     1      -8.368 -30.421   5.257  0.00  0.00    +0.000 A 
ENDROOT
BRANCH   2   7
ATOM      7  O   UNL     1      -7.305 -34.012   7.111  0.00  0.00    +0.000 OA
ATOM      8  C   UNL     1      -6.173 -34.682   6.629  0.00  0.00    +0.000 C 
ENDBRANCH   2   7
BRANCH   3   9
ATOM      9  C   UNL     1      -8.840 -31.575   3.159  0.00  0.00    +0.000 C 
ATOM     10  C   UNL     1      -9.194 -31.550   2.012  0.00  0.00    +0.000 C 
BRANCH  10  11
ATOM     11  C   UNL     1      -9.644 -31.514   0.548  0.00  0.00    +0.000 C 
BRANCH  11  12
ATOM     12  O   UNL     1     -10.037 -31.481  -0.724  0.00  0.00    +0.000 OA
BRANCH  12  14
ATOM     13  O   UNL     1      -9.660 -33.136  -2.332  0.00  0.00    +0.000 OA
ATOM     14  C   UNL     1      -9.321 -32.256  -1.563  0.00  0.00    +0.000 C 
ATOM     15  C   UNL     1      -7.853 -31.989  -1.547  0.00  0.00    +0.000 C 
ENDBRANCH  12  14
ENDBRANCH  11  12
ENDBRANCH  10  11
ENDBRANCH   3   9
BRANCH   1  16
ATOM     16  O   UNL     1      -7.211 -31.677   8.514  0.00  0.00    +0.000 OA
BRANCH  16  18
ATOM     17  O   UNL     1      -4.904 -31.592   8.231  0.00  0.00    +0.000 OA
ATOM     18  C   UNL     1      -5.935 -31.177   8.745  0.00  0.00    +0.000 C 
BRANCH  18  19
ATOM     19  C   UNL     1      -5.980 -30.064   9.725  0.00  0.00    +0.000 C 
ATOM     20  C   UNL     1      -7.257 -29.603  10.414  0.00  0.00    +0.000 C 
BRANCH  19  21
ATOM     21  C   UNL     1      -4.776 -29.386  10.053  0.00  0.00    +0.000 C 
ATOM     22  C   UNL     1      -3.466 -28.658  10.410  0.00  0.00    +0.000 C 
ENDBRANCH  19  21
ENDBRANCH  18  19
ENDBRANCH  16  18
ENDBRANCH   1  16
TORSDOF 9
ENDMDL
MODEL 7
REMARK VINA RESULT:      -4.1     19.309     20.509
REMARK  Name = 122180587_TripolinolateA.pdbqt.pdb
REMARK  9 active torsions:
REMARK  status: ('A' for Active; 'I' for Inactive)
REMARK    1  A    between atoms: C_1  and  O_16
REMARK    2  A    between atoms: C_2  and  O_7
REMARK    3  A    between atoms: C_3  and  C_9
REMARK    4  A    between atoms: C_10  and  C_11
REMARK    5  A    between atoms: C_11  and  O_12
REMARK    6  A    between atoms: O_12  and  C_14
REMARK    7  A    between atoms: O_16  and  C_18
REMARK    8  A    between atoms: C_18  and  C_19
REMARK    9  A    between atoms: C_19  and  C_21
REMARK                            x       y       z     vdW  Elec       q    Type
REMARK                         _______ _______ _______ _____ _____    ______ ____
ROOT
ATOM      1  C   UNL     1     -14.943 -18.443  -0.891  0.00  0.00    +0.000 A 
ATOM      2  C   UNL     1     -14.347 -19.327   0.014  0.00  0.00    +0.000 A 
ATOM      3  C   UNL     1     -12.590 -17.692   0.366  0.00  0.00    +0.000 A 
ATOM      4  C   UNL     1     -14.363 -17.210  -1.195  0.00  0.00    +0.000 A 
ATOM      5  C   UNL     1     -13.164 -18.932   0.644  0.00  0.00    +0.000 A 
ATOM      6  C   UNL     1     -13.187 -16.832  -0.554  0.00  0.00    +0.000 A 
ENDROOT
BRANCH   2   7
ATOM      7  O   UNL     1     -14.961 -20.539   0.207  0.00  0.00    +0.000 OA
ATOM      8  C   UNL     1     -15.443 -20.776   1.500  0.00  0.00    +0.000 C 
ENDBRANCH   2   7
BRANCH   3   9
ATOM      9  C   UNL     1     -11.385 -17.304   1.023  0.00  0.00    +0.000 C 
ATOM     10  C   UNL     1     -10.370 -16.980   1.577  0.00  0.00    +0.000 C 
BRANCH  10  11
ATOM     11  C   UNL     1      -9.076 -16.568   2.286  0.00  0.00    +0.000 C 
BRANCH  11  12
ATOM     12  O   UNL     1      -7.953 -16.208   2.903  0.00  0.00    +0.000 OA
BRANCH  12  14
ATOM     13  O   UNL     1      -6.182 -17.566   3.601  0.00  0.00    +0.000 OA
ATOM     14  C   UNL     1      -6.928 -17.074   2.775  0.00  0.00    +0.000 C 
ATOM     15  C   UNL     1      -6.658 -17.506   1.373  0.00  0.00    +0.000 C 
ENDBRANCH  12  14
ENDBRANCH  11  12
ENDBRANCH  10  11
ENDBRANCH   3   9
BRANCH   1  16
ATOM     16  O   UNL     1     -16.102 -18.826  -1.580  0.00  0.00    +0.000 OA
BRANCH  16  18
ATOM     17  O   UNL     1     -15.057 -19.779  -3.426  0.00  0.00    +0.000 OA
ATOM     18  C   UNL     1     -15.894 -19.030  -2.938  0.00  0.00    +0.000 C 
BRANCH  18  19
ATOM     19  C   UNL     1     -16.823 -18.196  -3.741  0.00  0.00    +0.000 C 
ATOM     20  C   UNL     1     -18.222 -18.647  -4.141  0.00  0.00    +0.000 C 
BRANCH  19  21
ATOM     21  C   UNL     1     -16.404 -16.906  -4.161  0.00  0.00    +0.000 C 
ATOM     22  C   UNL     1     -15.955 -15.507  -4.621  0.00  0.00    +0.000 C 
ENDBRANCH  19  21
ENDBRANCH  18  19
ENDBRANCH  16  18
ENDBRANCH   1  16
TORSDOF 9
ENDMDL
MODEL 8
REMARK VINA RESULT:      -4.1     19.069     22.737
REMARK  Name = 122180587_TripolinolateA.pdbqt.pdb
REMARK  9 active torsions:
REMARK  status: ('A' for Active; 'I' for Inactive)
REMARK    1  A    between atoms: C_1  and  O_16
REMARK    2  A    between atoms: C_2  and  O_7
REMARK    3  A    between atoms: C_3  and  C_9
REMARK    4  A    between atoms: C_10  and  C_11
REMARK    5  A    between atoms: C_11  and  O_12
REMARK    6  A    between atoms: O_12  and  C_14
REMARK    7  A    between atoms: O_16  and  C_18
REMARK    8  A    between atoms: C_18  and  C_19
REMARK    9  A    between atoms: C_19  and  C_21
REMARK                            x       y       z     vdW  Elec       q    Type
REMARK                         _______ _______ _______ _____ _____    ______ ____
ROOT
ATOM      1  C   UNL     1      -2.260 -17.644 -14.920  0.00  0.00    +0.000 A 
ATOM      2  C   UNL     1      -3.117 -18.148 -15.903  0.00  0.00    +0.000 A 
ATOM      3  C   UNL     1      -4.776 -16.520 -15.209  0.00  0.00    +0.000 A 
ATOM      4  C   UNL     1      -2.656 -16.613 -14.065  0.00  0.00    +0.000 A 
ATOM      5  C   UNL     1      -4.381 -17.567 -16.041  0.00  0.00    +0.000 A 
ATOM      6  C   UNL     1      -3.916 -16.045 -14.220  0.00  0.00    +0.000 A 
ENDROOT
BRANCH   2   7
ATOM      7  O   UNL     1      -2.661 -19.199 -16.658  0.00  0.00    +0.000 OA
ATOM      8  C   UNL     1      -3.391 -20.388 -16.546  0.00  0.00    +0.000 C 
ENDBRANCH   2   7
BRANCH   3   9
ATOM      9  C   UNL     1      -6.068 -15.936 -15.368  0.00  0.00    +0.000 C 
ATOM     10  C   UNL     1      -7.156 -15.446 -15.500  0.00  0.00    +0.000 C 
BRANCH  10  11
ATOM     11  C   UNL     1      -8.546 -14.823 -15.666  0.00  0.00    +0.000 C 
BRANCH  11  12
ATOM     12  O   UNL     1      -9.754 -14.284 -15.812  0.00  0.00    +0.000 OA
BRANCH  12  14
ATOM     13  O   UNL     1     -11.358 -13.418 -14.347  0.00  0.00    +0.000 OA
ATOM     14  C   UNL     1     -10.222 -13.630 -14.730  0.00  0.00    +0.000 C 
ATOM     15  C   UNL     1      -9.163 -13.067 -13.844  0.00  0.00    +0.000 C 
ENDBRANCH  12  14
ENDBRANCH  11  12
ENDBRANCH  10  11
ENDBRANCH   3   9
BRANCH   1  16
ATOM     16  O   UNL     1      -1.005 -18.236 -14.719  0.00  0.00    +0.000 OA
BRANCH  16  18
ATOM     17  O   UNL     1       0.289 -16.811 -16.024  0.00  0.00    +0.000 OA
ATOM     18  C   UNL     1       0.057 -17.373 -14.962  0.00  0.00    +0.000 C 
BRANCH  18  19
ATOM     19  C   UNL     1       0.902 -17.230 -13.750  0.00  0.00    +0.000 C 
ATOM     20  C   UNL     1       1.747 -15.997 -13.458  0.00  0.00    +0.000 C 
BRANCH  19  21
ATOM     21  C   UNL     1       0.932 -18.286 -12.801  0.00  0.00    +0.000 C 
ATOM     22  C   UNL     1       0.965 -19.436 -11.778  0.00  0.00    +0.000 C 
ENDBRANCH  19  21
ENDBRANCH  18  19
ENDBRANCH  16  18
ENDBRANCH   1  16
TORSDOF 9
ENDMDL
MODEL 9
REMARK VINA RESULT:      -4.1      4.204      9.839
REMARK  Name = 122180587_TripolinolateA.pdbqt.pdb
REMARK  9 active torsions:
REMARK  status: ('A' for Active; 'I' for Inactive)
REMARK    1  A    between atoms: C_1  and  O_16
REMARK    2  A    between atoms: C_2  and  O_7
REMARK    3  A    between atoms: C_3  and  C_9
REMARK    4  A    between atoms: C_10  and  C_11
REMARK    5  A    between atoms: C_11  and  O_12
REMARK    6  A    between atoms: O_12  and  C_14
REMARK    7  A    between atoms: O_16  and  C_18
REMARK    8  A    between atoms: C_18  and  C_19
REMARK    9  A    between atoms: C_19  and  C_21
REMARK                            x       y       z     vdW  Elec       q    Type
REMARK                         _______ _______ _______ _____ _____    ______ ____
ROOT
ATOM      1  C   UNL     1      -3.323 -34.173  -8.094  0.00  0.00    +0.000 A 
ATOM      2  C   UNL     1      -2.684 -34.923  -9.086  0.00  0.00    +0.000 A 
ATOM      3  C   UNL     1      -1.700 -32.871  -9.925  0.00  0.00    +0.000 A 
ATOM      4  C   UNL     1      -3.185 -32.785  -8.027  0.00  0.00    +0.000 A 
ATOM      5  C   UNL     1      -1.865 -34.254  -9.999  0.00  0.00    +0.000 A 
ATOM      6  C   UNL     1      -2.361 -32.136  -8.942  0.00  0.00    +0.000 A 
ENDROOT
BRANCH   2   7
ATOM      7  O   UNL     1      -2.925 -36.274  -9.106  0.00  0.00    +0.000 OA
ATOM      8  C   UNL     1      -1.848 -37.087  -8.729  0.00  0.00    +0.000 C 
ENDBRANCH   2   7
BRANCH   3   9
ATOM      9  C   UNL     1      -0.856 -32.206 -10.862  0.00  0.00    +0.000 C 
ATOM     10  C   UNL     1      -0.147 -31.645 -11.653  0.00  0.00    +0.000 C 
BRANCH  10  11
ATOM     11  C   UNL     1       0.755 -30.932 -12.665  0.00  0.00    +0.000 C 
BRANCH  11  12
ATOM     12  O   UNL     1       1.540 -30.310 -13.542  0.00  0.00    +0.000 OA
BRANCH  12  14
ATOM     13  O   UNL     1       1.916 -28.308 -12.395  0.00  0.00    +0.000 OA
ATOM     14  C   UNL     1       1.641 -28.977 -13.374  0.00  0.00    +0.000 C 
ATOM     15  C   UNL     1       1.369 -28.178 -14.604  0.00  0.00    +0.000 C 
ENDBRANCH  12  14
ENDBRANCH  11  12
ENDBRANCH  10  11
ENDBRANCH   3   9
BRANCH   1  16
ATOM     16  O   UNL     1      -4.192 -34.803  -7.193  0.00  0.00    +0.000 OA
BRANCH  16  18
ATOM     17  O   UNL     1      -6.169 -33.695  -7.715  0.00  0.00    +0.000 OA
ATOM     18  C   UNL     1      -5.325 -34.053  -6.903  0.00  0.00    +0.000 C 
BRANCH  18  19
ATOM     19  C   UNL     1      -5.376 -33.720  -5.458  0.00  0.00    +0.000 C 
ATOM     20  C   UNL     1      -6.598 -33.115  -4.779  0.00  0.00    +0.000 C 
BRANCH  19  21
ATOM     21  C   UNL     1      -4.238 -33.979  -4.650  0.00  0.00    +0.000 C 
ATOM     22  C   UNL     1      -3.006 -34.267  -3.771  0.00  0.00    +0.000 C 
ENDBRANCH  19  21
ENDBRANCH  18  19
ENDBRANCH  16  18
ENDBRANCH   1  16
TORSDOF 9
ENDMDL
