MODEL 1
REMARK VINA RESULT:      -6.2      0.000      0.000
REMARK  Name = 135403648_CalciumFolinate.pdbqt.pdb
REMARK  10 active torsions:
REMARK  status: ('A' for Active; 'I' for Inactive)
REMARK    1  A    between atoms: N_1  and  C_3
REMARK    2  A    between atoms: N_1  and  C_24
REMARK    3  A    between atoms: C_6  and  C_11
REMARK    4  A    between atoms: CA_13  and  C_15
REMARK    5  A    between atoms: CA_13  and  CB_18
REMARK    6  A    between atoms: C_15  and  O_16
REMARK    7  A    between atoms: CG_19  and  CD_21
REMARK    8  A    between atoms: CD_21  and  OE1_22
REMARK    9  A    between atoms: C_24  and  C_32
REMARK   10  A    between atoms: N_27  and  C_37
REMARK                            x       y       z     vdW  Elec       q    Type
REMARK                         _______ _______ _______ _____ _____    ______ ____
ROOT
ATOM      1  N   UNL     1      -8.180 -29.354  10.020  0.00  0.00    +0.000 N 
ATOM      2  H   UNL     1      -8.357 -28.927  10.929  0.00  0.00    +0.000 HD
ENDROOT
BRANCH   1   3
ATOM      3  C   UNL     1      -8.845 -28.677   8.976  0.00  0.00    +0.000 A 
ATOM      4  C   UNL     1      -9.925 -27.844   9.283  0.00  0.00    +0.000 A 
ATOM      5  C   UNL     1      -8.583 -28.947   7.627  0.00  0.00    +0.000 A 
ATOM      6  C   UNL     1     -10.373 -27.479   6.939  0.00  0.00    +0.000 A 
ATOM      7  C   UNL     1     -10.673 -27.236   8.276  0.00  0.00    +0.000 A 
ATOM      8  C   UNL     1      -9.326 -28.343   6.616  0.00  0.00    +0.000 A 
BRANCH   6  11
ATOM      9  O   UNL     1     -11.065 -25.638   5.681  0.00  0.00    +0.000 OA
ATOM     10  N   UNL     1     -11.891 -27.709   5.050  0.00  0.00    +0.000 N 
ATOM     11  C   ACE A   0     -11.139 -26.852   5.832  0.00  0.00    +0.000 C 
ATOM     12  H   UNL     1     -11.892 -28.704   5.258  0.00  0.00    +0.000 HD
ATOM     13  CA  UNL     1     -12.686 -27.370   3.969  0.00  0.00    +0.000 C 
BRANCH  13  15
ATOM     14  OXT UNL     1     -14.600 -28.537   3.140  0.00  0.00    +0.000 OA
ATOM     15  C   UNL     1     -13.390 -28.496   3.309  0.00  0.00    +0.000 C 
BRANCH  15  16
ATOM     16  O   UNL     1     -12.582 -29.486   2.900  0.00  0.00    +0.000 OA
ATOM     17  H   UNL     1     -12.601 -30.143   3.627  0.00  0.00    +0.000 HD
ENDBRANCH  15  16
ENDBRANCH  13  15
BRANCH  13  18
ATOM     18  CB  UNL     1     -12.821 -26.031   3.518  0.00  0.00    +0.000 C 
ATOM     19  CG  UNL     1     -12.972 -24.589   3.020  0.00  0.00    +0.000 C 
BRANCH  19  21
ATOM     20  OE2 UNL     1     -13.950 -22.918   1.710  0.00  0.00    +0.000 OA
ATOM     21  CD  UNL     1     -13.121 -23.249   2.539  0.00  0.00    +0.000 C 
BRANCH  21  22
ATOM     22  OE1 UNL     1     -12.244 -22.376   3.068  0.00  0.00    +0.000 OA
ATOM     23  HE1 UNL     1     -12.577 -21.508   2.762  0.00  0.00    +0.000 HD
ENDBRANCH  21  22
ENDBRANCH  19  21
ENDBRANCH  13  18
ENDBRANCH   6  11
ENDBRANCH   1   3
BRANCH   1  24
ATOM     24  C   UNL     1      -6.819 -29.824   9.793  0.00  0.00    +0.000 C 
BRANCH  24  31
ATOM     25  O   UNL     1      -4.222 -33.763   7.464  0.00  0.00    +0.000 OA
ATOM     26  N   UNL     1      -5.157 -31.352   8.793  0.00  0.00    +0.000 N 
ATOM     27  N   UNL     1      -2.939 -29.767   9.829  0.00  0.00    +0.000 N 
ATOM     28  N   UNL     1      -1.419 -31.406   9.079  0.00  0.00    +0.000 NA
ATOM     29  N   UNL     1      -2.080 -33.234   7.824  0.00  0.00    +0.000 N 
ATOM     30  N   UNL     1       0.146 -32.900   8.307  0.00  0.00    +0.000 N 
ATOM     31  C   UNL     1      -5.480 -30.235   9.555  0.00  0.00    +0.000 C 
ATOM     32  C   UNL     1      -4.340 -29.567  10.029  0.00  0.00    +0.000 C 
ATOM     33  C   UNL     1      -3.787 -31.709   8.651  0.00  0.00    +0.000 A 
ATOM     34  C   UNL     1      -2.730 -30.988   9.162  0.00  0.00    +0.000 A 
ATOM     35  C   UNL     1      -3.410 -32.971   7.932  0.00  0.00    +0.000 A 
ATOM     36  C   UNL     1      -1.135 -32.479   8.425  0.00  0.00    +0.000 A 
ATOM     37  H   UNL     1      -2.254 -29.641  10.569  0.00  0.00    +0.000 HD
ATOM     38  H   UNL     1      -1.836 -34.106   7.382  0.00  0.00    +0.000 HD
ATOM     39  H   UNL     1       0.812 -32.187   8.596  0.00  0.00    +0.000 HD
ATOM     40  H   UNL     1       0.405 -33.342   7.435  0.00  0.00    +0.000 HD
BRANCH  26  42
ATOM     41  O   UNL     1      -7.073 -32.651   7.783  0.00  0.00    +0.000 OA
ATOM     42  C   UNL     1      -6.159 -32.077   8.249  0.00  0.00    +0.000 C 
ENDBRANCH  26  42
ENDBRANCH  24  31
ENDBRANCH   1  24
TORSDOF 10
ENDMDL
MODEL 2
REMARK VINA RESULT:      -5.7     14.692     18.373
REMARK  Name = 135403648_CalciumFolinate.pdbqt.pdb
REMARK  10 active torsions:
REMARK  status: ('A' for Active; 'I' for Inactive)
REMARK    1  A    between atoms: N_1  and  C_3
REMARK    2  A    between atoms: N_1  and  C_24
REMARK    3  A    between atoms: C_6  and  C_11
REMARK    4  A    between atoms: CA_13  and  C_15
REMARK    5  A    between atoms: CA_13  and  CB_18
REMARK    6  A    between atoms: C_15  and  O_16
REMARK    7  A    between atoms: CG_19  and  CD_21
REMARK    8  A    between atoms: CD_21  and  OE1_22
REMARK    9  A    between atoms: C_24  and  C_32
REMARK   10  A    between atoms: N_27  and  C_37
REMARK                            x       y       z     vdW  Elec       q    Type
REMARK                         _______ _______ _______ _____ _____    ______ ____
ROOT
ATOM      1  N   UNL     1     -11.638 -17.205   1.995  0.00  0.00    +0.000 N 
ATOM      2  H   UNL     1     -11.339 -17.963   2.608  0.00  0.00    +0.000 HD
ENDROOT
BRANCH   1   3
ATOM      3  C   UNL     1     -10.633 -16.228   1.828  0.00  0.00    +0.000 A 
ATOM      4  C   UNL     1     -10.986 -14.964   1.344  0.00  0.00    +0.000 A 
ATOM      5  C   UNL     1      -9.272 -16.529   1.956  0.00  0.00    +0.000 A 
ATOM      6  C   UNL     1      -8.666 -14.303   1.242  0.00  0.00    +0.000 A 
ATOM      7  C   UNL     1     -10.014 -14.003   1.068  0.00  0.00    +0.000 A 
ATOM      8  C   UNL     1      -8.296 -15.574   1.684  0.00  0.00    +0.000 A 
BRANCH   6  11
ATOM      9  O   UNL     1      -7.908 -12.232   0.476  0.00  0.00    +0.000 OA
ATOM     10  N   UNL     1      -6.309 -13.697   1.290  0.00  0.00    +0.000 N 
ATOM     11  C   ACE A   0      -7.596 -13.311   0.966  0.00  0.00    +0.000 C 
ATOM     12  H   UNL     1      -6.150 -14.619   1.690  0.00  0.00    +0.000 HD
ATOM     13  CA  UNL     1      -5.151 -12.958   1.128  0.00  0.00    +0.000 C 
BRANCH  13  15
ATOM     14  OXT UNL     1      -3.800 -14.822   1.773  0.00  0.00    +0.000 OA
ATOM     15  C   UNL     1      -3.896 -13.622   1.559  0.00  0.00    +0.000 C 
BRANCH  15  16
ATOM     16  O   UNL     1      -2.853 -12.790   1.699  0.00  0.00    +0.000 OA
ATOM     17  H   UNL     1      -2.746 -12.371   0.819  0.00  0.00    +0.000 HD
ENDBRANCH  15  16
ENDBRANCH  13  15
BRANCH  13  18
ATOM     18  CB  UNL     1      -5.158 -11.647   0.584  0.00  0.00    +0.000 C 
ATOM     19  CG  UNL     1      -5.164 -10.235  -0.014  0.00  0.00    +0.000 C 
BRANCH  19  21
ATOM     20  OE2 UNL     1      -5.908  -8.029  -0.221  0.00  0.00    +0.000 OA
ATOM     21  CD  UNL     1      -5.169  -8.924  -0.589  0.00  0.00    +0.000 C 
BRANCH  21  22
ATOM     22  OE1 UNL     1      -4.292  -8.765  -1.597  0.00  0.00    +0.000 OA
ATOM     23  HE1 UNL     1      -4.041  -7.822  -1.531  0.00  0.00    +0.000 HD
ENDBRANCH  21  22
ENDBRANCH  19  21
ENDBRANCH  13  18
ENDBRANCH   6  11
ENDBRANCH   1   3
BRANCH   1  24
ATOM     24  C   UNL     1     -12.430 -17.598   0.836  0.00  0.00    +0.000 C 
BRANCH  24  31
ATOM     25  O   UNL     1     -17.191 -16.523  -1.128  0.00  0.00    +0.000 OA
ATOM     26  N   UNL     1     -14.483 -17.387  -0.520  0.00  0.00    +0.000 N 
ATOM     27  N   UNL     1     -13.531 -19.368  -2.437  0.00  0.00    +0.000 N 
ATOM     28  N   UNL     1     -15.620 -19.313  -3.529  0.00  0.00    +0.000 NA
ATOM     29  N   UNL     1     -17.290 -17.824  -2.944  0.00  0.00    +0.000 N 
ATOM     30  N   UNL     1     -17.586 -19.265  -4.715  0.00  0.00    +0.000 N 
ATOM     31  C   UNL     1     -13.245 -17.968  -0.267  0.00  0.00    +0.000 C 
ATOM     32  C   UNL     1     -12.901 -18.928  -1.232  0.00  0.00    +0.000 C 
ATOM     33  C   UNL     1     -15.246 -17.859  -1.624  0.00  0.00    +0.000 A 
ATOM     34  C   UNL     1     -14.823 -18.817  -2.519  0.00  0.00    +0.000 A 
ATOM     35  C   UNL     1     -16.632 -17.336  -1.858  0.00  0.00    +0.000 A 
ATOM     36  C   UNL     1     -16.792 -18.813  -3.716  0.00  0.00    +0.000 A 
ATOM     37  H   UNL     1     -13.536 -20.340  -2.731  0.00  0.00    +0.000 HD
ATOM     38  H   UNL     1     -18.238 -17.503  -3.067  0.00  0.00    +0.000 HD
ATOM     39  H   UNL     1     -17.078 -19.848  -5.374  0.00  0.00    +0.000 HD
ATOM     40  H   UNL     1     -18.176 -18.584  -5.174  0.00  0.00    +0.000 HD
BRANCH  26  42
ATOM     41  O   UNL     1     -15.263 -15.546   1.023  0.00  0.00    +0.000 OA
ATOM     42  C   UNL     1     -14.930 -16.424   0.316  0.00  0.00    +0.000 C 
ENDBRANCH  26  42
ENDBRANCH  24  31
ENDBRANCH   1  24
TORSDOF 10
ENDMDL
MODEL 3
REMARK VINA RESULT:      -5.7     12.409     20.664
REMARK  Name = 135403648_CalciumFolinate.pdbqt.pdb
REMARK  10 active torsions:
REMARK  status: ('A' for Active; 'I' for Inactive)
REMARK    1  A    between atoms: N_1  and  C_3
REMARK    2  A    between atoms: N_1  and  C_24
REMARK    3  A    between atoms: C_6  and  C_11
REMARK    4  A    between atoms: CA_13  and  C_15
REMARK    5  A    between atoms: CA_13  and  CB_18
REMARK    6  A    between atoms: C_15  and  O_16
REMARK    7  A    between atoms: CG_19  and  CD_21
REMARK    8  A    between atoms: CD_21  and  OE1_22
REMARK    9  A    between atoms: C_24  and  C_32
REMARK   10  A    between atoms: N_27  and  C_37
REMARK                            x       y       z     vdW  Elec       q    Type
REMARK                         _______ _______ _______ _____ _____    ______ ____
ROOT
ATOM      1  N   UNL     1     -18.172 -16.918  -5.155  0.00  0.00    +0.000 N 
ATOM      2  H   UNL     1     -19.142 -17.091  -4.891  0.00  0.00    +0.000 HD
ENDROOT
BRANCH   1   3
ATOM      3  C   UNL     1     -17.265 -17.352  -4.165  0.00  0.00    +0.000 A 
ATOM      4  C   UNL     1     -17.163 -18.718  -3.887  0.00  0.00    +0.000 A 
ATOM      5  C   UNL     1     -16.595 -16.455  -3.325  0.00  0.00    +0.000 A 
ATOM      6  C   UNL     1     -15.660 -18.280  -2.048  0.00  0.00    +0.000 A 
ATOM      7  C   UNL     1     -16.355 -19.182  -2.849  0.00  0.00    +0.000 A 
ATOM      8  C   UNL     1     -15.786 -16.911  -2.286  0.00  0.00    +0.000 A 
BRANCH   6  11
ATOM      9  O   UNL     1     -14.917 -19.867  -0.505  0.00  0.00    +0.000 OA
ATOM     10  N   UNL     1     -13.876 -17.798  -0.464  0.00  0.00    +0.000 N 
ATOM     11  C   ACE A   0     -14.785 -18.727  -0.935  0.00  0.00    +0.000 C 
ATOM     12  H   UNL     1     -13.846 -16.872  -0.884  0.00  0.00    +0.000 HD
ATOM     13  CA  UNL     1     -12.961 -17.971   0.559  0.00  0.00    +0.000 C 
BRANCH  13  15
ATOM     14  OXT UNL     1     -12.459 -15.639   0.711  0.00  0.00    +0.000 OA
ATOM     15  C   UNL     1     -12.105 -16.799   0.863  0.00  0.00    +0.000 C 
BRANCH  15  16
ATOM     16  O   UNL     1     -10.886 -17.113   1.327  0.00  0.00    +0.000 OA
ATOM     17  H   UNL     1     -10.263 -16.626   0.749  0.00  0.00    +0.000 HD
ENDBRANCH  15  16
ENDBRANCH  13  15
BRANCH  13  18
ATOM     18  CB  UNL     1     -12.846 -19.191   1.275  0.00  0.00    +0.000 C 
ATOM     19  CG  UNL     1     -12.723 -20.503   2.058  0.00  0.00    +0.000 C 
BRANCH  19  21
ATOM     20  OE2 UNL     1     -12.993 -22.800   2.394  0.00  0.00    +0.000 OA
ATOM     21  CD  UNL     1     -12.611 -21.719   2.805  0.00  0.00    +0.000 C 
BRANCH  21  22
ATOM     22  OE1 UNL     1     -12.062 -21.565   4.024  0.00  0.00    +0.000 OA
ATOM     23  HE1 UNL     1     -12.079 -22.471   4.395  0.00  0.00    +0.000 HD
ENDBRANCH  21  22
ENDBRANCH  19  21
ENDBRANCH  13  18
ENDBRANCH   6  11
ENDBRANCH   1   3
BRANCH   1  24
ATOM     24  C   UNL     1     -17.842 -17.152  -6.556  0.00  0.00    +0.000 C 
BRANCH  24  31
ATOM     25  O   UNL     1     -16.276 -14.550 -10.852  0.00  0.00    +0.000 OA
ATOM     26  N   UNL     1     -17.027 -16.440  -8.775  0.00  0.00    +0.000 N 
ATOM     27  N   UNL     1     -17.167 -19.167  -9.803  0.00  0.00    +0.000 N 
ATOM     28  N   UNL     1     -16.644 -18.377 -11.962  0.00  0.00    +0.000 NA
ATOM     29  N   UNL     1     -16.085 -16.171 -12.379  0.00  0.00    +0.000 N 
ATOM     30  N   UNL     1     -16.051 -17.721 -14.082  0.00  0.00    +0.000 N 
ATOM     31  C   UNL     1     -17.493 -17.421  -7.906  0.00  0.00    +0.000 C 
ATOM     32  C   UNL     1     -17.551 -18.686  -8.513  0.00  0.00    +0.000 C 
ATOM     33  C   UNL     1     -16.747 -16.800 -10.123  0.00  0.00    +0.000 A 
ATOM     34  C   UNL     1     -16.840 -18.077 -10.631  0.00  0.00    +0.000 A 
ATOM     35  C   UNL     1     -16.353 -15.746 -11.115  0.00  0.00    +0.000 A 
ATOM     36  C   UNL     1     -16.274 -17.448 -12.775  0.00  0.00    +0.000 A 
ATOM     37  H   UNL     1     -17.708 -19.857 -10.315  0.00  0.00    +0.000 HD
ATOM     38  H   UNL     1     -15.867 -15.453 -13.051  0.00  0.00    +0.000 HD
ATOM     39  H   UNL     1     -16.006 -18.720 -14.263  0.00  0.00    +0.000 HD
ATOM     40  H   UNL     1     -15.305 -17.210 -14.535  0.00  0.00    +0.000 HD
BRANCH  26  42
ATOM     41  O   UNL     1     -16.707 -14.087  -7.915  0.00  0.00    +0.000 OA
ATOM     42  C   UNL     1     -16.894 -15.177  -8.316  0.00  0.00    +0.000 C 
ENDBRANCH  26  42
ENDBRANCH  24  31
ENDBRANCH   1  24
TORSDOF 10
ENDMDL
MODEL 4
REMARK VINA RESULT:      -5.7     12.641     20.259
REMARK  Name = 135403648_CalciumFolinate.pdbqt.pdb
REMARK  10 active torsions:
REMARK  status: ('A' for Active; 'I' for Inactive)
REMARK    1  A    between atoms: N_1  and  C_3
REMARK    2  A    between atoms: N_1  and  C_24
REMARK    3  A    between atoms: C_6  and  C_11
REMARK    4  A    between atoms: CA_13  and  C_15
REMARK    5  A    between atoms: CA_13  and  CB_18
REMARK    6  A    between atoms: C_15  and  O_16
REMARK    7  A    between atoms: CG_19  and  CD_21
REMARK    8  A    between atoms: CD_21  and  OE1_22
REMARK    9  A    between atoms: C_24  and  C_32
REMARK   10  A    between atoms: N_27  and  C_37
REMARK                            x       y       z     vdW  Elec       q    Type
REMARK                         _______ _______ _______ _____ _____    ______ ____
ROOT
ATOM      1  N   UNL     1     -17.982 -15.317  -4.357  0.00  0.00    +0.000 N 
ATOM      2  H   UNL     1     -18.962 -15.450  -4.106  0.00  0.00    +0.000 HD
ENDROOT
BRANCH   1   3
ATOM      3  C   UNL     1     -17.107 -15.832  -3.377  0.00  0.00    +0.000 A 
ATOM      4  C   UNL     1     -15.919 -16.447  -3.781  0.00  0.00    +0.000 A 
ATOM      5  C   UNL     1     -17.465 -15.911  -2.026  0.00  0.00    +0.000 A 
ATOM      6  C   UNL     1     -15.423 -17.091  -1.507  0.00  0.00    +0.000 A 
ATOM      7  C   UNL     1     -15.074 -17.058  -2.854  0.00  0.00    +0.000 A 
ATOM      8  C   UNL     1     -16.627 -16.519  -1.094  0.00  0.00    +0.000 A 
BRANCH   6  11
ATOM      9  O   UNL     1     -14.792 -18.880  -0.145  0.00  0.00    +0.000 OA
ATOM     10  N   UNL     1     -13.529 -16.944   0.014  0.00  0.00    +0.000 N 
ATOM     11  C   ACE A   0     -14.555 -17.726  -0.484  0.00  0.00    +0.000 C 
ATOM     12  H   UNL     1     -13.415 -15.993  -0.327  0.00  0.00    +0.000 HD
ATOM     13  CA  UNL     1     -12.594 -17.304   0.969  0.00  0.00    +0.000 C 
BRANCH  13  15
ATOM     14  OXT UNL     1     -11.658 -15.106   0.931  0.00  0.00    +0.000 OA
ATOM     15  C   UNL     1     -11.601 -16.262   1.324  0.00  0.00    +0.000 C 
BRANCH  15  16
ATOM     16  O   UNL     1     -10.615 -16.691   2.126  0.00  0.00    +0.000 OA
ATOM     17  H   UNL     1     -10.755 -17.658   2.202  0.00  0.00    +0.000 HD
ENDBRANCH  15  16
ENDBRANCH  13  15
BRANCH  13  18
ATOM     18  CB  UNL     1     -12.583 -18.590   1.572  0.00  0.00    +0.000 C 
ATOM     19  CG  UNL     1     -12.560 -19.980   2.217  0.00  0.00    +0.000 C 
BRANCH  19  21
ATOM     20  OE2 UNL     1     -12.898 -22.292   2.246  0.00  0.00    +0.000 OA
ATOM     21  CD  UNL     1     -12.522 -21.281   2.812  0.00  0.00    +0.000 C 
BRANCH  21  22
ATOM     22  OE1 UNL     1     -12.050 -21.295   4.072  0.00  0.00    +0.000 OA
ATOM     23  HE1 UNL     1     -11.867 -22.243   4.233  0.00  0.00    +0.000 HD
ENDBRANCH  21  22
ENDBRANCH  19  21
ENDBRANCH  13  18
ENDBRANCH   6  11
ENDBRANCH   1   3
BRANCH   1  24
ATOM     24  C   UNL     1     -17.653 -15.517  -5.763  0.00  0.00    +0.000 C 
BRANCH  24  31
ATOM     25  O   UNL     1     -17.021 -19.597  -9.024  0.00  0.00    +0.000 OA
ATOM     26  N   UNL     1     -17.338 -17.038  -7.683  0.00  0.00    +0.000 N 
ATOM     27  N   UNL     1     -16.759 -14.808  -9.472  0.00  0.00    +0.000 N 
ATOM     28  N   UNL     1     -16.213 -16.329 -11.188  0.00  0.00    +0.000 NA
ATOM     29  N   UNL     1     -16.494 -18.614 -10.962  0.00  0.00    +0.000 N 
ATOM     30  N   UNL     1     -15.747 -17.727 -12.951  0.00  0.00    +0.000 N 
ATOM     31  C   UNL     1     -17.337 -15.764  -7.126  0.00  0.00    +0.000 C 
ATOM     32  C   UNL     1     -17.015 -14.772  -8.066  0.00  0.00    +0.000 C 
ATOM     33  C   UNL     1     -16.962 -17.186  -9.046  0.00  0.00    +0.000 A 
ATOM     34  C   UNL     1     -16.655 -16.145  -9.895  0.00  0.00    +0.000 A 
ATOM     35  C   UNL     1     -16.842 -18.555  -9.647  0.00  0.00    +0.000 A 
ATOM     36  C   UNL     1     -16.155 -17.520 -11.677  0.00  0.00    +0.000 A 
ATOM     37  H   UNL     1     -16.049 -14.234  -9.916  0.00  0.00    +0.000 HD
ATOM     38  H   UNL     1     -16.369 -19.537 -11.345  0.00  0.00    +0.000 HD
ATOM     39  H   UNL     1     -15.712 -16.864 -13.486  0.00  0.00    +0.000 HD
ATOM     40  H   UNL     1     -16.193 -18.480 -13.457  0.00  0.00    +0.000 HD
BRANCH  26  42
ATOM     41  O   UNL     1     -17.870 -18.999  -6.183  0.00  0.00    +0.000 OA
ATOM     42  C   UNL     1     -17.658 -18.089  -6.896  0.00  0.00    +0.000 C 
ENDBRANCH  26  42
ENDBRANCH  24  31
ENDBRANCH   1  24
TORSDOF 10
ENDMDL
MODEL 5
REMARK VINA RESULT:      -5.6     17.333     19.498
REMARK  Name = 135403648_CalciumFolinate.pdbqt.pdb
REMARK  10 active torsions:
REMARK  status: ('A' for Active; 'I' for Inactive)
REMARK    1  A    between atoms: N_1  and  C_3
REMARK    2  A    between atoms: N_1  and  C_24
REMARK    3  A    between atoms: C_6  and  C_11
REMARK    4  A    between atoms: CA_13  and  C_15
REMARK    5  A    between atoms: CA_13  and  CB_18
REMARK    6  A    between atoms: C_15  and  O_16
REMARK    7  A    between atoms: CG_19  and  CD_21
REMARK    8  A    between atoms: CD_21  and  OE1_22
REMARK    9  A    between atoms: C_24  and  C_32
REMARK   10  A    between atoms: N_27  and  C_37
REMARK                            x       y       z     vdW  Elec       q    Type
REMARK                         _______ _______ _______ _____ _____    ______ ____
ROOT
ATOM      1  N   UNL     1      -2.683 -35.429  -9.184  0.00  0.00    +0.000 N 
ATOM      2  H   UNL     1      -3.214 -35.766  -9.986  0.00  0.00    +0.000 HD
ENDROOT
BRANCH   1   3
ATOM      3  C   UNL     1      -1.557 -34.671  -9.571  0.00  0.00    +0.000 A 
ATOM      4  C   UNL     1      -1.711 -33.304  -9.823  0.00  0.00    +0.000 A 
ATOM      5  C   UNL     1      -0.331 -35.267  -9.887  0.00  0.00    +0.000 A 
ATOM      6  C   UNL     1       0.579 -33.137 -10.574  0.00  0.00    +0.000 A 
ATOM      7  C   UNL     1      -0.649 -32.539 -10.305  0.00  0.00    +0.000 A 
ATOM      8  C   UNL     1       0.734 -34.508 -10.368  0.00  0.00    +0.000 A 
BRANCH   6  11
ATOM      9  O   UNL     1       2.864 -32.822 -10.931  0.00  0.00    +0.000 OA
ATOM     10  N   UNL     1       1.444 -31.161 -11.699  0.00  0.00    +0.000 N 
ATOM     11  C   ACE A   0       1.738 -32.363 -11.084  0.00  0.00    +0.000 C 
ATOM     12  H   UNL     1       0.475 -30.861 -11.774  0.00  0.00    +0.000 HD
ATOM     13  CA  UNL     1       2.343 -30.264 -12.249  0.00  0.00    +0.000 C 
BRANCH  13  15
ATOM     14  OXT UNL     1       1.967 -28.670 -13.990  0.00  0.00    +0.000 OA
ATOM     15  C   UNL     1       1.751 -29.042 -12.846  0.00  0.00    +0.000 C 
BRANCH  15  16
ATOM     16  O   UNL     1       0.942 -28.362 -12.020  0.00  0.00    +0.000 OA
ATOM     17  H   UNL     1       1.150 -27.419 -12.185  0.00  0.00    +0.000 HD
ENDBRANCH  15  16
ENDBRANCH  13  15
BRANCH  13  18
ATOM     18  CB  UNL     1       3.744 -30.496 -12.246  0.00  0.00    +0.000 C 
ATOM     19  CG  UNL     1       5.256 -30.747 -12.231  0.00  0.00    +0.000 C 
BRANCH  19  21
ATOM     20  OE2 UNL     1       7.359 -30.798 -11.212  0.00  0.00    +0.000 OA
ATOM     21  CD  UNL     1       6.667 -30.984 -12.197  0.00  0.00    +0.000 C 
BRANCH  21  22
ATOM     22  OE1 UNL     1       7.178 -31.416 -13.365  0.00  0.00    +0.000 OA
ATOM     23  HE1 UNL     1       6.430 -31.321 -13.988  0.00  0.00    +0.000 HD
ENDBRANCH  21  22
ENDBRANCH  19  21
ENDBRANCH  13  18
ENDBRANCH   6  11
ENDBRANCH   1   3
BRANCH   1  24
ATOM     24  C   UNL     1      -3.470 -34.978  -8.043  0.00  0.00    +0.000 C 
BRANCH  24  31
ATOM     25  O   UNL     1      -4.105 -36.022  -2.926  0.00  0.00    +0.000 OA
ATOM     26  N   UNL     1      -4.101 -35.024  -5.656  0.00  0.00    +0.000 N 
ATOM     27  N   UNL     1      -6.174 -33.015  -6.069  0.00  0.00    +0.000 N 
ATOM     28  N   UNL     1      -6.898 -33.307  -3.844  0.00  0.00    +0.000 NA
ATOM     29  N   UNL     1      -5.777 -34.659  -2.339  0.00  0.00    +0.000 N 
ATOM     30  N   UNL     1      -7.620 -33.452  -1.668  0.00  0.00    +0.000 N 
ATOM     31  C   UNL     1      -4.280 -34.558  -6.954  0.00  0.00    +0.000 C 
ATOM     32  C   UNL     1      -5.322 -33.621  -7.043  0.00  0.00    +0.000 C 
ATOM     33  C   UNL     1      -4.993 -34.579  -4.642  0.00  0.00    +0.000 A 
ATOM     34  C   UNL     1      -5.997 -33.654  -4.828  0.00  0.00    +0.000 A 
ATOM     35  C   UNL     1      -4.900 -35.149  -3.257  0.00  0.00    +0.000 A 
ATOM     36  C   UNL     1      -6.764 -33.795  -2.659  0.00  0.00    +0.000 A 
ATOM     37  H   UNL     1      -7.158 -32.829  -6.240  0.00  0.00    +0.000 HD
ATOM     38  H   UNL     1      -5.741 -35.080  -1.424  0.00  0.00    +0.000 HD
ATOM     39  H   UNL     1      -8.196 -32.653  -1.919  0.00  0.00    +0.000 HD
ATOM     40  H   UNL     1      -7.234 -33.376  -0.737  0.00  0.00    +0.000 HD
BRANCH  26  42
ATOM     41  O   UNL     1      -2.279 -36.728  -5.261  0.00  0.00    +0.000 OA
ATOM     42  C   UNL     1      -3.111 -35.913  -5.417  0.00  0.00    +0.000 C 
ENDBRANCH  26  42
ENDBRANCH  24  31
ENDBRANCH   1  24
TORSDOF 10
ENDMDL
MODEL 6
REMARK VINA RESULT:      -5.6      9.838     15.263
REMARK  Name = 135403648_CalciumFolinate.pdbqt.pdb
REMARK  10 active torsions:
REMARK  status: ('A' for Active; 'I' for Inactive)
REMARK    1  A    between atoms: N_1  and  C_3
REMARK    2  A    between atoms: N_1  and  C_24
REMARK    3  A    between atoms: C_6  and  C_11
REMARK    4  A    between atoms: CA_13  and  C_15
REMARK    5  A    between atoms: CA_13  and  CB_18
REMARK    6  A    between atoms: C_15  and  O_16
REMARK    7  A    between atoms: CG_19  and  CD_21
REMARK    8  A    between atoms: CD_21  and  OE1_22
REMARK    9  A    between atoms: C_24  and  C_32
REMARK   10  A    between atoms: N_27  and  C_37
REMARK                            x       y       z     vdW  Elec       q    Type
REMARK                         _______ _______ _______ _____ _____    ______ ____
ROOT
ATOM      1  N   UNL     1     -13.784 -17.547   1.460  0.00  0.00    +0.000 N 
ATOM      2  H   UNL     1     -13.014 -16.917   1.682  0.00  0.00    +0.000 HD
ENDROOT
BRANCH   1   3
ATOM      3  C   UNL     1     -14.305 -17.318   0.169  0.00  0.00    +0.000 A 
ATOM      4  C   UNL     1     -15.652 -16.968   0.030  0.00  0.00    +0.000 A 
ATOM      5  C   UNL     1     -13.574 -17.601  -0.990  0.00  0.00    +0.000 A 
ATOM      6  C   UNL     1     -15.481 -17.074  -2.376  0.00  0.00    +0.000 A 
ATOM      7  C   UNL     1     -16.232 -16.830  -1.230  0.00  0.00    +0.000 A 
ATOM      8  C   UNL     1     -14.147 -17.466  -2.253  0.00  0.00    +0.000 A 
BRANCH   6  11
ATOM      9  O   UNL     1     -16.590 -17.912  -4.252  0.00  0.00    +0.000 OA
ATOM     10  N   UNL     1     -15.931 -15.693  -4.329  0.00  0.00    +0.000 N 
ATOM     11  C   ACE A   0     -16.054 -16.937  -3.738  0.00  0.00    +0.000 C 
ATOM     12  H   UNL     1     -15.464 -14.944  -3.823  0.00  0.00    +0.000 HD
ATOM     13  CA  UNL     1     -16.378 -15.317  -5.583  0.00  0.00    +0.000 C 
BRANCH  13  15
ATOM     14  OXT UNL     1     -16.928 -13.009  -5.875  0.00  0.00    +0.000 OA
ATOM     15  C   UNL     1     -16.107 -13.911  -5.969  0.00  0.00    +0.000 C 
BRANCH  15  16
ATOM     16  O   UNL     1     -14.869 -13.697  -6.439  0.00  0.00    +0.000 OA
ATOM     17  H   UNL     1     -14.364 -13.357  -5.670  0.00  0.00    +0.000 HD
ENDBRANCH  15  16
ENDBRANCH  13  15
BRANCH  13  18
ATOM     18  CB  UNL     1     -17.054 -16.217  -6.448  0.00  0.00    +0.000 C 
ATOM     19  CG  UNL     1     -17.795 -17.185  -7.378  0.00  0.00    +0.000 C 
BRANCH  19  21
ATOM     20  OE2 UNL     1     -19.243 -17.714  -9.134  0.00  0.00    +0.000 OA
ATOM     21  CD  UNL     1     -18.503 -18.082  -8.239  0.00  0.00    +0.000 C 
BRANCH  21  22
ATOM     22  OE1 UNL     1     -18.300 -19.383  -7.962  0.00  0.00    +0.000 OA
ATOM     23  HE1 UNL     1     -19.188 -19.699  -7.699  0.00  0.00    +0.000 HD
ENDBRANCH  21  22
ENDBRANCH  19  21
ENDBRANCH  13  18
ENDBRANCH   6  11
ENDBRANCH   1   3
BRANCH   1  24
ATOM     24  C   UNL     1     -13.634 -18.923   1.919  0.00  0.00    +0.000 C 
BRANCH  24  31
ATOM     25  O   UNL     1     -15.844 -23.613   1.027  0.00  0.00    +0.000 OA
ATOM     26  N   UNL     1     -14.235 -21.314   1.785  0.00  0.00    +0.000 N 
ATOM     27  N   UNL     1     -12.173 -22.035   3.719  0.00  0.00    +0.000 N 
ATOM     28  N   UNL     1     -12.974 -24.253   3.743  0.00  0.00    +0.000 NA
ATOM     29  N   UNL     1     -14.647 -24.987   2.324  0.00  0.00    +0.000 N 
ATOM     30  N   UNL     1     -13.621 -26.457   3.768  0.00  0.00    +0.000 N 
ATOM     31  C   UNL     1     -13.476 -20.277   2.318  0.00  0.00    +0.000 C 
ATOM     32  C   UNL     1     -12.539 -20.732   3.259  0.00  0.00    +0.000 C 
ATOM     33  C   UNL     1     -14.034 -22.631   2.283  0.00  0.00    +0.000 A 
ATOM     34  C   UNL     1     -13.086 -22.982   3.220  0.00  0.00    +0.000 A 
ATOM     35  C   UNL     1     -14.913 -23.753   1.814  0.00  0.00    +0.000 A 
ATOM     36  C   UNL     1     -13.727 -25.195   3.289  0.00  0.00    +0.000 A 
ATOM     37  H   UNL     1     -11.947 -22.232   4.690  0.00  0.00    +0.000 HD
ATOM     38  H   UNL     1     -15.271 -25.726   2.041  0.00  0.00    +0.000 HD
ATOM     39  H   UNL     1     -12.782 -26.585   4.328  0.00  0.00    +0.000 HD
ATOM     40  H   UNL     1     -13.767 -27.210   3.109  0.00  0.00    +0.000 HD
BRANCH  26  42
ATOM     41  O   UNL     1     -15.916 -20.726  -0.005  0.00  0.00    +0.000 OA
ATOM     42  C   UNL     1     -15.159 -21.024   0.844  0.00  0.00    +0.000 C 
ENDBRANCH  26  42
ENDBRANCH  24  31
ENDBRANCH   1  24
TORSDOF 10
ENDMDL
MODEL 7
REMARK VINA RESULT:      -5.6     19.643     21.111
REMARK  Name = 135403648_CalciumFolinate.pdbqt.pdb
REMARK  10 active torsions:
REMARK  status: ('A' for Active; 'I' for Inactive)
REMARK    1  A    between atoms: N_1  and  C_3
REMARK    2  A    between atoms: N_1  and  C_24
REMARK    3  A    between atoms: C_6  and  C_11
REMARK    4  A    between atoms: CA_13  and  C_15
REMARK    5  A    between atoms: CA_13  and  CB_18
REMARK    6  A    between atoms: C_15  and  O_16
REMARK    7  A    between atoms: CG_19  and  CD_21
REMARK    8  A    between atoms: CD_21  and  OE1_22
REMARK    9  A    between atoms: C_24  and  C_32
REMARK   10  A    between atoms: N_27  and  C_37
REMARK                            x       y       z     vdW  Elec       q    Type
REMARK                         _______ _______ _______ _____ _____    ______ ____
ROOT
ATOM      1  N   UNL     1       0.172 -35.100 -10.360  0.00  0.00    +0.000 N 
ATOM      2  H   UNL     1       0.419 -35.972 -10.827  0.00  0.00    +0.000 HD
ENDROOT
BRANCH   1   3
ATOM      3  C   UNL     1       0.387 -33.975 -11.184  0.00  0.00    +0.000 A 
ATOM      4  C   UNL     1      -0.520 -33.701 -12.212  0.00  0.00    +0.000 A 
ATOM      5  C   UNL     1       1.568 -33.225 -11.128  0.00  0.00    +0.000 A 
ATOM      6  C   UNL     1       0.866 -31.895 -13.018  0.00  0.00    +0.000 A 
ATOM      7  C   UNL     1      -0.293 -32.661 -13.112  0.00  0.00    +0.000 A 
ATOM      8  C   UNL     1       1.801 -32.184 -12.023  0.00  0.00    +0.000 A 
BRANCH   6  11
ATOM      9  O   UNL     1       2.306 -30.588 -14.311  0.00  0.00    +0.000 OA
ATOM     10  N   UNL     1       0.061 -30.018 -14.341  0.00  0.00    +0.000 N 
ATOM     11  C   ACE A   0       1.149 -30.775 -13.950  0.00  0.00    +0.000 C 
ATOM     12  H   UNL     1      -0.862 -30.248 -13.982  0.00  0.00    +0.000 HD
ATOM     13  CA  UNL     1       0.066 -28.928 -15.194  0.00  0.00    +0.000 C 
BRANCH  13  15
ATOM     14  OXT UNL     1      -1.926 -28.491 -16.441  0.00  0.00    +0.000 OA
ATOM     15  C   UNL     1      -1.253 -28.296 -15.439  0.00  0.00    +0.000 C 
BRANCH  15  16
ATOM     16  O   UNL     1      -1.662 -27.477 -14.458  0.00  0.00    +0.000 OA
ATOM     17  H   UNL     1      -2.559 -27.793 -14.224  0.00  0.00    +0.000 HD
ENDBRANCH  15  16
ENDBRANCH  13  15
BRANCH  13  18
ATOM     18  CB  UNL     1       1.255 -28.445 -15.799  0.00  0.00    +0.000 C 
ATOM     19  CG  UNL     1       2.534 -27.914 -16.458  0.00  0.00    +0.000 C 
BRANCH  19  21
ATOM     20  OE2 UNL     1       4.634 -28.108 -17.466  0.00  0.00    +0.000 OA
ATOM     21  CD  UNL     1       3.717 -27.403 -17.081  0.00  0.00    +0.000 C 
BRANCH  21  22
ATOM     22  OE1 UNL     1       3.746 -26.063 -17.188  0.00  0.00    +0.000 OA
ATOM     23  HE1 UNL     1       3.723 -25.913 -18.154  0.00  0.00    +0.000 HD
ENDBRANCH  21  22
ENDBRANCH  19  21
ENDBRANCH  13  18
ENDBRANCH   6  11
ENDBRANCH   1   3
BRANCH   1  24
ATOM     24  C   UNL     1      -1.025 -35.140  -9.529  0.00  0.00    +0.000 C 
BRANCH  24  31
ATOM     25  O   UNL     1      -4.405 -31.683  -7.454  0.00  0.00    +0.000 OA
ATOM     26  N   UNL     1      -2.907 -33.972  -8.439  0.00  0.00    +0.000 N 
ATOM     27  N   UNL     1      -4.032 -36.486  -7.478  0.00  0.00    +0.000 N 
ATOM     28  N   UNL     1      -5.644 -35.290  -6.242  0.00  0.00    +0.000 NA
ATOM     29  N   UNL     1      -5.866 -32.992  -6.381  0.00  0.00    +0.000 N 
ATOM     30  N   UNL     1      -7.310 -34.221  -5.075  0.00  0.00    +0.000 N 
ATOM     31  C   UNL     1      -2.208 -35.135  -8.742  0.00  0.00    +0.000 C 
ATOM     32  C   UNL     1      -2.819 -36.279  -8.205  0.00  0.00    +0.000 C 
ATOM     33  C   UNL     1      -4.056 -34.065  -7.604  0.00  0.00    +0.000 A 
ATOM     34  C   UNL     1      -4.580 -35.242  -7.117  0.00  0.00    +0.000 A 
ATOM     35  C   UNL     1      -4.766 -32.819  -7.164  0.00  0.00    +0.000 A 
ATOM     36  C   UNL     1      -6.247 -34.200  -5.914  0.00  0.00    +0.000 A 
ATOM     37  H   UNL     1      -4.107 -37.148  -6.712  0.00  0.00    +0.000 HD
ATOM     38  H   UNL     1      -6.310 -32.150  -6.050  0.00  0.00    +0.000 HD
ATOM     39  H   UNL     1      -7.667 -35.162  -4.934  0.00  0.00    +0.000 HD
ATOM     40  H   UNL     1      -8.045 -33.550  -5.251  0.00  0.00    +0.000 HD
BRANCH  26  42
ATOM     41  O   UNL     1      -2.114 -31.752  -9.345  0.00  0.00    +0.000 OA
ATOM     42  C   UNL     1      -2.447 -32.795  -8.916  0.00  0.00    +0.000 C 
ENDBRANCH  26  42
ENDBRANCH  24  31
ENDBRANCH   1  24
TORSDOF 10
ENDMDL
MODEL 8
REMARK VINA RESULT:      -5.6     25.523     27.036
REMARK  Name = 135403648_CalciumFolinate.pdbqt.pdb
REMARK  10 active torsions:
REMARK  status: ('A' for Active; 'I' for Inactive)
REMARK    1  A    between atoms: N_1  and  C_3
REMARK    2  A    between atoms: N_1  and  C_24
REMARK    3  A    between atoms: C_6  and  C_11
REMARK    4  A    between atoms: CA_13  and  C_15
REMARK    5  A    between atoms: CA_13  and  CB_18
REMARK    6  A    between atoms: C_15  and  O_16
REMARK    7  A    between atoms: CG_19  and  CD_21
REMARK    8  A    between atoms: CD_21  and  OE1_22
REMARK    9  A    between atoms: C_24  and  C_32
REMARK   10  A    between atoms: N_27  and  C_37
REMARK                            x       y       z     vdW  Elec       q    Type
REMARK                         _______ _______ _______ _____ _____    ______ ____
ROOT
ATOM      1  N   UNL     1      -5.852  -9.810 -13.313  0.00  0.00    +0.000 N 
ATOM      2  H   UNL     1      -5.430  -9.258 -14.059  0.00  0.00    +0.000 HD
ENDROOT
BRANCH   1   3
ATOM      3  C   UNL     1      -6.034 -11.159 -13.687  0.00  0.00    +0.000 A 
ATOM      4  C   UNL     1      -4.964 -12.050 -13.561  0.00  0.00    +0.000 A 
ATOM      5  C   UNL     1      -7.187 -11.600 -14.346  0.00  0.00    +0.000 A 
ATOM      6  C   UNL     1      -6.238 -13.804 -14.627  0.00  0.00    +0.000 A 
ATOM      7  C   UNL     1      -5.068 -13.366 -14.011  0.00  0.00    +0.000 A 
ATOM      8  C   UNL     1      -7.298 -12.914 -14.798  0.00  0.00    +0.000 A 
BRANCH   6  11
ATOM      9  O   UNL     1      -5.415 -15.930 -15.130  0.00  0.00    +0.000 OA
ATOM     10  N   UNL     1      -7.665 -15.554 -15.533  0.00  0.00    +0.000 N 
ATOM     11  C   ACE A   0      -6.396 -15.195 -15.118  0.00  0.00    +0.000 C 
ATOM     12  H   UNL     1      -8.417 -14.870 -15.489  0.00  0.00    +0.000 HD
ATOM     13  CA  UNL     1      -8.064 -16.782 -16.030  0.00  0.00    +0.000 C 
BRANCH  13  15
ATOM     14  OXT UNL     1     -10.160 -17.907 -16.261  0.00  0.00    +0.000 OA
ATOM     15  C   UNL     1      -9.495 -16.892 -16.405  0.00  0.00    +0.000 C 
BRANCH  15  16
ATOM     16  O   UNL     1     -10.015 -15.770 -16.925  0.00  0.00    +0.000 OA
ATOM     17  H   UNL     1      -9.508 -15.616 -17.749  0.00  0.00    +0.000 HD
ENDBRANCH  15  16
ENDBRANCH  13  15
BRANCH  13  18
ATOM     18  CB  UNL     1      -7.164 -17.871 -16.172  0.00  0.00    +0.000 C 
ATOM     19  CG  UNL     1      -6.195 -19.050 -16.314  0.00  0.00    +0.000 C 
BRANCH  19  21
ATOM     20  OE2 UNL     1      -4.185 -20.178 -15.927  0.00  0.00    +0.000 OA
ATOM     21  CD  UNL     1      -5.295 -20.157 -16.429  0.00  0.00    +0.000 C 
BRANCH  21  22
ATOM     22  OE1 UNL     1      -5.771 -21.177 -17.166  0.00  0.00    +0.000 OA
ATOM     23  HE1 UNL     1      -5.993 -20.755 -18.020  0.00  0.00    +0.000 HD
ENDBRANCH  21  22
ENDBRANCH  19  21
ENDBRANCH  13  18
ENDBRANCH   6  11
ENDBRANCH   1   3
BRANCH   1  24
ATOM     24  C   UNL     1      -5.389  -9.515 -11.963  0.00  0.00    +0.000 C 
BRANCH  24  31
ATOM     25  O   UNL     1      -5.814  -5.686  -8.380  0.00  0.00    +0.000 OA
ATOM     26  N   UNL     1      -5.314  -8.076  -9.958  0.00  0.00    +0.000 N 
ATOM     27  N   UNL     1      -3.445  -9.874  -8.623  0.00  0.00    +0.000 N 
ATOM     28  N   UNL     1      -3.215  -8.324  -6.861  0.00  0.00    +0.000 NA
ATOM     29  N   UNL     1      -4.485  -6.395  -6.727  0.00  0.00    +0.000 N 
ATOM     30  N   UNL     1      -2.993  -6.922  -5.056  0.00  0.00    +0.000 N 
ATOM     31  C   UNL     1      -4.901  -9.198 -10.667  0.00  0.00    +0.000 C 
ATOM     32  C   UNL     1      -3.980  -9.974  -9.945  0.00  0.00    +0.000 C 
ATOM     33  C   UNL     1      -4.732  -7.820  -8.686  0.00  0.00    +0.000 A 
ATOM     34  C   UNL     1      -3.824  -8.643  -8.057  0.00  0.00    +0.000 A 
ATOM     35  C   UNL     1      -5.069  -6.559  -7.945  0.00  0.00    +0.000 A 
ATOM     36  C   UNL     1      -3.557  -7.247  -6.242  0.00  0.00    +0.000 A 
ATOM     37  H   UNL     1      -2.476 -10.086  -8.405  0.00  0.00    +0.000 HD
ATOM     38  H   UNL     1      -4.679  -5.525  -6.258  0.00  0.00    +0.000 HD
ATOM     39  H   UNL     1      -2.470  -7.696  -4.655  0.00  0.00    +0.000 HD
ATOM     40  H   UNL     1      -3.585  -6.462  -4.377  0.00  0.00    +0.000 HD
BRANCH  26  42
ATOM     41  O   UNL     1      -6.961  -6.491 -11.033  0.00  0.00    +0.000 OA
ATOM     42  C   UNL     1      -6.224  -7.251 -10.522  0.00  0.00    +0.000 C 
ENDBRANCH  26  42
ENDBRANCH  24  31
ENDBRANCH   1  24
TORSDOF 10
ENDMDL
MODEL 9
REMARK VINA RESULT:      -5.6     14.813     18.499
REMARK  Name = 135403648_CalciumFolinate.pdbqt.pdb
REMARK  10 active torsions:
REMARK  status: ('A' for Active; 'I' for Inactive)
REMARK    1  A    between atoms: N_1  and  C_3
REMARK    2  A    between atoms: N_1  and  C_24
REMARK    3  A    between atoms: C_6  and  C_11
REMARK    4  A    between atoms: CA_13  and  C_15
REMARK    5  A    between atoms: CA_13  and  CB_18
REMARK    6  A    between atoms: C_15  and  O_16
REMARK    7  A    between atoms: CG_19  and  CD_21
REMARK    8  A    between atoms: CD_21  and  OE1_22
REMARK    9  A    between atoms: C_24  and  C_32
REMARK   10  A    between atoms: N_27  and  C_37
REMARK                            x       y       z     vdW  Elec       q    Type
REMARK                         _______ _______ _______ _____ _____    ______ ____
ROOT
ATOM      1  N   UNL     1     -11.660 -16.890   1.859  0.00  0.00    +0.000 N 
ATOM      2  H   UNL     1     -11.518 -17.562   2.613  0.00  0.00    +0.000 HD
ENDROOT
BRANCH   1   3
ATOM      3  C   UNL     1     -10.506 -16.116   1.612  0.00  0.00    +0.000 A 
ATOM      4  C   UNL     1      -9.247 -16.680   1.837  0.00  0.00    +0.000 A 
ATOM      5  C   UNL     1     -10.575 -14.748   1.323  0.00  0.00    +0.000 A 
ATOM      6  C   UNL     1      -8.166 -14.571   1.372  0.00  0.00    +0.000 A 
ATOM      7  C   UNL     1      -8.085 -15.921   1.703  0.00  0.00    +0.000 A 
ATOM      8  C   UNL     1      -9.418 -13.983   1.187  0.00  0.00    +0.000 A 
BRANCH   6  11
ATOM      9  O   UNL     1      -5.884 -14.268   0.986  0.00  0.00    +0.000 OA
ATOM     10  N   UNL     1      -7.148 -12.361   1.345  0.00  0.00    +0.000 N 
ATOM     11  C   ACE A   0      -6.958 -13.723   1.215  0.00  0.00    +0.000 C 
ATOM     12  H   UNL     1      -8.079 -12.003   1.541  0.00  0.00    +0.000 HD
ATOM     13  CA  UNL     1      -6.186 -11.371   1.244  0.00  0.00    +0.000 C 
BRANCH  13  15
ATOM     14  OXT UNL     1      -6.662  -9.398   2.507  0.00  0.00    +0.000 OA
ATOM     15  C   UNL     1      -6.669  -9.981   1.432  0.00  0.00    +0.000 C 
BRANCH  15  16
ATOM     16  O   UNL     1      -7.122  -9.399   0.312  0.00  0.00    +0.000 OA
ATOM     17  H   UNL     1      -6.728  -8.502   0.317  0.00  0.00    +0.000 HD
ENDBRANCH  15  16
ENDBRANCH  13  15
BRANCH  13  18
ATOM     18  CB  UNL     1      -4.823 -11.663   0.977  0.00  0.00    +0.000 C 
ATOM     19  CG  UNL     1      -3.353 -11.979   0.676  0.00  0.00    +0.000 C 
BRANCH  19  21
ATOM     20  OE2 UNL     1      -1.294 -13.019   1.050  0.00  0.00    +0.000 OA
ATOM     21  CD  UNL     1      -1.986 -12.276   0.376  0.00  0.00    +0.000 C 
BRANCH  21  22
ATOM     22  OE1 UNL     1      -1.513 -11.643  -0.712  0.00  0.00    +0.000 OA
ATOM     23  HE1 UNL     1      -2.309 -11.522  -1.267  0.00  0.00    +0.000 HD
ENDBRANCH  21  22
ENDBRANCH  19  21
ENDBRANCH  13  18
ENDBRANCH   6  11
ENDBRANCH   1   3
BRANCH   1  24
ATOM     24  C   UNL     1     -12.440 -17.363   0.723  0.00  0.00    +0.000 C 
BRANCH  24  31
ATOM     25  O   UNL     1     -17.302 -16.794  -1.207  0.00  0.00    +0.000 OA
ATOM     26  N   UNL     1     -14.520 -17.390  -0.608  0.00  0.00    +0.000 N 
ATOM     27  N   UNL     1     -13.419 -19.355  -2.461  0.00  0.00    +0.000 N 
ATOM     28  N   UNL     1     -15.518 -19.528  -3.521  0.00  0.00    +0.000 NA
ATOM     29  N   UNL     1     -17.307 -18.170  -2.968  0.00  0.00    +0.000 N 
ATOM     30  N   UNL     1     -17.495 -19.702  -4.677  0.00  0.00    +0.000 N 
ATOM     31  C   UNL     1     -13.233 -17.849  -0.352  0.00  0.00    +0.000 C 
ATOM     32  C   UNL     1     -12.816 -18.812  -1.284  0.00  0.00    +0.000 C 
ATOM     33  C   UNL     1     -15.251 -17.972  -1.680  0.00  0.00    +0.000 A 
ATOM     34  C   UNL     1     -14.756 -18.924  -2.544  0.00  0.00    +0.000 A 
ATOM     35  C   UNL     1     -16.681 -17.583  -1.913  0.00  0.00    +0.000 A 
ATOM     36  C   UNL     1     -16.733 -19.142  -3.709  0.00  0.00    +0.000 A 
ATOM     37  H   UNL     1     -13.341 -20.335  -2.717  0.00  0.00    +0.000 HD
ATOM     38  H   UNL     1     -18.280 -17.940  -3.090  0.00  0.00    +0.000 HD
ATOM     39  H   UNL     1     -16.945 -20.264  -5.321  0.00  0.00    +0.000 HD
ATOM     40  H   UNL     1     -18.149 -19.095  -5.153  0.00  0.00    +0.000 HD
BRANCH  26  42
ATOM     41  O   UNL     1     -15.511 -15.571   0.837  0.00  0.00    +0.000 OA
ATOM     42  C   UNL     1     -15.041 -16.437   0.197  0.00  0.00    +0.000 C 
ENDBRANCH  26  42
ENDBRANCH  24  31
ENDBRANCH   1  24
TORSDOF 10
ENDMDL
