MODEL 1
REMARK VINA RESULT:      -6.3      0.000      0.000
REMARK  Name = 135423438_Nintedanib.pdbqt.pdb
REMARK  9 active torsions:
REMARK  status: ('A' for Active; 'I' for Inactive)
REMARK    1  A    between atoms: N_1  and  C_22
REMARK    2  A    between atoms: C_2  and  C_4
REMARK    3  A    between atoms: C_2  and  C_37
REMARK    4  A    between atoms: C_7  and  O_13
REMARK    5  A    between atoms: C_10  and  C_16
REMARK    6  A    between atoms: C_16  and  O_17
REMARK    7  A    between atoms: C_19  and  N_26
REMARK    8  A    between atoms: C_27  and  C_29
REMARK    9  A    between atoms: C_29  and  N_30
REMARK                            x       y       z     vdW  Elec       q    Type
REMARK                         _______ _______ _______ _____ _____    ______ ____
ROOT
ATOM      1  N   UNL     1      -4.738 -34.920  -8.694  0.00  0.00    +0.000 NA
ATOM      2  C   UNL     1      -3.566 -34.523  -8.290  0.00  0.00    +0.000 C 
ENDROOT
BRANCH   2   4
ATOM      3  N   UNL     1      -3.278 -33.576  -4.762  0.00  0.00    +0.000 N 
ATOM      4  C   UNL     1      -3.377 -34.403  -6.838  0.00  0.00    +0.000 A 
ATOM      5  C   UNL     1      -2.934 -35.434  -5.937  0.00  0.00    +0.000 A 
ATOM      6  C   UNL     1      -2.887 -34.888  -4.656  0.00  0.00    +0.000 A 
ATOM      7  C   UNL     1      -3.572 -33.266  -6.066  0.00  0.00    +0.000 A 
ATOM      8  C   UNL     1      -2.576 -36.789  -6.095  0.00  0.00    +0.000 A 
ATOM      9  C   UNL     1      -2.497 -35.618  -3.528  0.00  0.00    +0.000 A 
ATOM     10  C   UNL     1      -2.143 -36.960  -3.719  0.00  0.00    +0.000 A 
ATOM     11  C   UNL     1      -2.184 -37.537  -4.984  0.00  0.00    +0.000 A 
ATOM     12  H   UNL     1      -3.332 -32.938  -3.982  0.00  0.00    +0.000 HD
BRANCH   7  13
ATOM     13  O   UNL     1      -3.959 -32.043  -6.414  0.00  0.00    +0.000 OA
ATOM     14  H   UNL     1      -3.488 -31.747  -7.213  0.00  0.00    +0.000 HD
ENDBRANCH   7  13
BRANCH  10  16
ATOM     15  O   UNL     1      -2.220 -37.724  -1.474  0.00  0.00    +0.000 OA
ATOM     16  C   UNL     1      -1.719 -37.810  -2.586  0.00  0.00    +0.000 C 
BRANCH  16  17
ATOM     17  O   UNL     1      -0.729 -38.645  -3.013  0.00  0.00    +0.000 OA
ATOM     18  C   UNL     1       0.236 -39.058  -2.081  0.00  0.00    +0.000 C 
ENDBRANCH  16  17
ENDBRANCH  10  16
ENDBRANCH   2   4
BRANCH   1  22
ATOM     19  C   UNL     1      -5.705 -35.322 -12.794  0.00  0.00    +0.000 A 
ATOM     20  C   UNL     1      -5.119 -36.366 -12.075  0.00  0.00    +0.000 A 
ATOM     21  C   UNL     1      -5.960 -34.132 -12.099  0.00  0.00    +0.000 A 
ATOM     22  C   UNL     1      -5.026 -35.033 -10.060  0.00  0.00    +0.000 A 
ATOM     23  C   UNL     1      -4.791 -36.234 -10.726  0.00  0.00    +0.000 A 
ATOM     24  C   UNL     1      -5.637 -33.988 -10.751  0.00  0.00    +0.000 A 
BRANCH  19  26
ATOM     25  O   UNL     1      -8.334 -34.900 -13.931  0.00  0.00    +0.000 OA
ATOM     26  N   UNL     1      -6.040 -35.452 -14.194  0.00  0.00    +0.000 N 
ATOM     27  C   UNL     1      -7.371 -35.218 -14.622  0.00  0.00    +0.000 C 
ATOM     28  C   UNL     1      -4.929 -35.836 -15.069  0.00  0.00    +0.000 C 
BRANCH  27  29
ATOM     29  C   UNL     1      -7.633 -35.376 -16.046  0.00  0.00    +0.000 C 
BRANCH  29  30
ATOM     30  N   UNL     1      -7.890 -35.505 -17.479  0.00  0.00    +0.000 N 
ATOM     31  N   UNL     1     -11.288 -35.174 -18.454  0.00  0.00    +0.000 N 
ATOM     32  C   UNL     1      -8.987 -36.501 -17.631  0.00  0.00    +0.000 C 
ATOM     33  C   UNL     1      -8.705 -34.321 -17.871  0.00  0.00    +0.000 C 
ATOM     34  C   UNL     1     -10.477 -36.356 -18.055  0.00  0.00    +0.000 C 
ATOM     35  C   UNL     1     -10.196 -34.176 -18.295  0.00  0.00    +0.000 C 
ATOM     36  C   UNL     1     -12.240 -34.933 -17.379  0.00  0.00    +0.000 C 
ENDBRANCH  29  30
ENDBRANCH  27  29
ENDBRANCH  19  26
ENDBRANCH   1  22
BRANCH   2  37
ATOM     37  C   UNL     1      -2.437 -34.186  -9.175  0.00  0.00    +0.000 A 
ATOM     38  C   UNL     1      -2.316 -32.889  -9.670  0.00  0.00    +0.000 A 
ATOM     39  C   UNL     1      -1.493 -35.167  -9.473  0.00  0.00    +0.000 A 
ATOM     40  C   UNL     1      -1.233 -32.573 -10.484  0.00  0.00    +0.000 A 
ATOM     41  C   UNL     1      -0.414 -34.841 -10.289  0.00  0.00    +0.000 A 
ATOM     42  C   UNL     1      -0.284 -33.547 -10.792  0.00  0.00    +0.000 A 
ENDBRANCH   2  37
TORSDOF 9
ENDMDL
MODEL 2
REMARK VINA RESULT:      -6.1      1.368      2.261
REMARK  Name = 135423438_Nintedanib.pdbqt.pdb
REMARK  9 active torsions:
REMARK  status: ('A' for Active; 'I' for Inactive)
REMARK    1  A    between atoms: N_1  and  C_22
REMARK    2  A    between atoms: C_2  and  C_4
REMARK    3  A    between atoms: C_2  and  C_37
REMARK    4  A    between atoms: C_7  and  O_13
REMARK    5  A    between atoms: C_10  and  C_16
REMARK    6  A    between atoms: C_16  and  O_17
REMARK    7  A    between atoms: C_19  and  N_26
REMARK    8  A    between atoms: C_27  and  C_29
REMARK    9  A    between atoms: C_29  and  N_30
REMARK                            x       y       z     vdW  Elec       q    Type
REMARK                         _______ _______ _______ _____ _____    ______ ____
ROOT
ATOM      1  N   UNL     1      -4.693 -34.978  -8.743  0.00  0.00    +0.000 NA
ATOM      2  C   UNL     1      -3.541 -34.541  -8.322  0.00  0.00    +0.000 C 
ENDROOT
BRANCH   2   4
ATOM      3  N   UNL     1      -3.339 -33.531  -4.806  0.00  0.00    +0.000 N 
ATOM      4  C   UNL     1      -3.384 -34.395  -6.869  0.00  0.00    +0.000 A 
ATOM      5  C   UNL     1      -2.950 -35.405  -5.940  0.00  0.00    +0.000 A 
ATOM      6  C   UNL     1      -2.936 -34.836  -4.668  0.00  0.00    +0.000 A 
ATOM      7  C   UNL     1      -3.608 -33.246  -6.120  0.00  0.00    +0.000 A 
ATOM      8  C   UNL     1      -2.574 -36.758  -6.067  0.00  0.00    +0.000 A 
ATOM      9  C   UNL     1      -2.563 -35.543  -3.520  0.00  0.00    +0.000 A 
ATOM     10  C   UNL     1      -2.191 -36.884  -3.681  0.00  0.00    +0.000 A 
ATOM     11  C   UNL     1      -2.198 -37.483  -4.935  0.00  0.00    +0.000 A 
ATOM     12  H   UNL     1      -3.417 -32.881  -4.038  0.00  0.00    +0.000 HD
BRANCH   7  13
ATOM     13  O   UNL     1      -4.001 -32.034  -6.498  0.00  0.00    +0.000 OA
ATOM     14  H   UNL     1      -3.516 -31.746  -7.292  0.00  0.00    +0.000 HD
ENDBRANCH   7  13
BRANCH  10  16
ATOM     15  O   UNL     1      -2.263 -37.567  -1.409  0.00  0.00    +0.000 OA
ATOM     16  C   UNL     1      -1.782 -37.710  -2.524  0.00  0.00    +0.000 C 
BRANCH  16  17
ATOM     17  O   UNL     1      -0.829 -38.594  -2.934  0.00  0.00    +0.000 OA
ATOM     18  C   UNL     1       0.127 -39.021  -1.997  0.00  0.00    +0.000 C 
ENDBRANCH  16  17
ENDBRANCH  10  16
ENDBRANCH   2   4
BRANCH   1  22
ATOM     19  C   UNL     1      -5.567 -35.464 -12.854  0.00  0.00    +0.000 A 
ATOM     20  C   UNL     1      -4.995 -36.493 -12.101  0.00  0.00    +0.000 A 
ATOM     21  C   UNL     1      -5.839 -34.261 -12.189  0.00  0.00    +0.000 A 
ATOM     22  C   UNL     1      -4.949 -35.118 -10.112  0.00  0.00    +0.000 A 
ATOM     23  C   UNL     1      -4.698 -36.333 -10.748  0.00  0.00    +0.000 A 
ATOM     24  C   UNL     1      -5.546 -34.089 -10.837  0.00  0.00    +0.000 A 
BRANCH  19  26
ATOM     25  O   UNL     1      -8.180 -35.117 -14.051  0.00  0.00    +0.000 OA
ATOM     26  N   UNL     1      -5.870 -35.623 -14.258  0.00  0.00    +0.000 N 
ATOM     27  C   UNL     1      -7.197 -35.424 -14.717  0.00  0.00    +0.000 C 
ATOM     28  C   UNL     1      -4.734 -35.997 -15.104  0.00  0.00    +0.000 C 
BRANCH  27  29
ATOM     29  C   UNL     1      -7.426 -35.610 -16.144  0.00  0.00    +0.000 C 
BRANCH  29  30
ATOM     30  N   UNL     1      -7.652 -35.767 -17.579  0.00  0.00    +0.000 N 
ATOM     31  N   UNL     1      -4.766 -36.517 -19.504  0.00  0.00    +0.000 N 
ATOM     32  C   UNL     1      -6.659 -34.898 -18.268  0.00  0.00    +0.000 C 
ATOM     33  C   UNL     1      -7.020 -37.059 -17.968  0.00  0.00    +0.000 C 
ATOM     34  C   UNL     1      -5.392 -35.226 -19.110  0.00  0.00    +0.000 C 
ATOM     35  C   UNL     1      -5.752 -37.387 -18.809  0.00  0.00    +0.000 C 
ATOM     36  C   UNL     1      -3.515 -36.622 -18.766  0.00  0.00    +0.000 C 
ENDBRANCH  29  30
ENDBRANCH  27  29
ENDBRANCH  19  26
ENDBRANCH   1  22
BRANCH   2  37
ATOM     37  C   UNL     1      -2.404 -34.186  -9.190  0.00  0.00    +0.000 A 
ATOM     38  C   UNL     1      -2.304 -32.890  -9.693  0.00  0.00    +0.000 A 
ATOM     39  C   UNL     1      -1.432 -35.146  -9.463  0.00  0.00    +0.000 A 
ATOM     40  C   UNL     1      -1.214 -32.556 -10.490  0.00  0.00    +0.000 A 
ATOM     41  C   UNL     1      -0.346 -34.802 -10.261  0.00  0.00    +0.000 A 
ATOM     42  C   UNL     1      -0.237 -33.509 -10.774  0.00  0.00    +0.000 A 
ENDBRANCH   2  37
TORSDOF 9
ENDMDL
MODEL 3
REMARK VINA RESULT:      -6.0     21.300     25.538
REMARK  Name = 135423438_Nintedanib.pdbqt.pdb
REMARK  9 active torsions:
REMARK  status: ('A' for Active; 'I' for Inactive)
REMARK    1  A    between atoms: N_1  and  C_22
REMARK    2  A    between atoms: C_2  and  C_4
REMARK    3  A    between atoms: C_2  and  C_37
REMARK    4  A    between atoms: C_7  and  O_13
REMARK    5  A    between atoms: C_10  and  C_16
REMARK    6  A    between atoms: C_16  and  O_17
REMARK    7  A    between atoms: C_19  and  N_26
REMARK    8  A    between atoms: C_27  and  C_29
REMARK    9  A    between atoms: C_29  and  N_30
REMARK                            x       y       z     vdW  Elec       q    Type
REMARK                         _______ _______ _______ _____ _____    ______ ____
ROOT
ATOM      1  N   UNL     1     -14.237 -17.442  -2.066  0.00  0.00    +0.000 NA
ATOM      2  C   UNL     1     -15.529 -17.293  -2.016  0.00  0.00    +0.000 C 
ENDROOT
BRANCH   2   4
ATOM      3  N   UNL     1     -17.564 -18.012  -4.976  0.00  0.00    +0.000 N 
ATOM      4  C   UNL     1     -16.247 -17.345  -3.296  0.00  0.00    +0.000 A 
ATOM      5  C   UNL     1     -16.178 -16.383  -4.365  0.00  0.00    +0.000 A 
ATOM      6  C   UNL     1     -17.010 -16.827  -5.391  0.00  0.00    +0.000 A 
ATOM      7  C   UNL     1     -17.115 -18.342  -3.722  0.00  0.00    +0.000 A 
ATOM      8  C   UNL     1     -15.486 -15.169  -4.549  0.00  0.00    +0.000 A 
ATOM      9  C   UNL     1     -17.183 -16.127  -6.589  0.00  0.00    +0.000 A 
ATOM     10  C   UNL     1     -16.478 -14.926  -6.743  0.00  0.00    +0.000 A 
ATOM     11  C   UNL     1     -15.644 -14.453  -5.737  0.00  0.00    +0.000 A 
ATOM     12  H   UNL     1     -18.208 -18.558  -5.529  0.00  0.00    +0.000 HD
BRANCH   7  13
ATOM     13  O   UNL     1     -17.506 -19.460  -3.120  0.00  0.00    +0.000 OA
ATOM     14  H   UNL     1     -17.510 -20.205  -3.746  0.00  0.00    +0.000 HD
ENDBRANCH   7  13
BRANCH  10  16
ATOM     15  O   UNL     1     -17.055 -12.983  -7.978  0.00  0.00    +0.000 OA
ATOM     16  C   UNL     1     -16.600 -14.118  -7.976  0.00  0.00    +0.000 C 
BRANCH  16  17
ATOM     17  O   UNL     1     -16.132 -14.851  -9.026  0.00  0.00    +0.000 OA
ATOM     18  C   UNL     1     -16.889 -14.871 -10.209  0.00  0.00    +0.000 C 
ENDBRANCH  16  17
ENDBRANCH  10  16
ENDBRANCH   2   4
BRANCH   1  22
ATOM     19  C   UNL     1     -11.993 -17.208   1.514  0.00  0.00    +0.000 A 
ATOM     20  C   UNL     1     -12.372 -16.062   0.812  0.00  0.00    +0.000 A 
ATOM     21  C   UNL     1     -12.386 -18.443   0.981  0.00  0.00    +0.000 A 
ATOM     22  C   UNL     1     -13.462 -17.374  -0.902  0.00  0.00    +0.000 A 
ATOM     23  C   UNL     1     -13.104 -16.135  -0.372  0.00  0.00    +0.000 A 
ATOM     24  C   UNL     1     -13.118 -18.530  -0.203  0.00  0.00    +0.000 A 
BRANCH  19  26
ATOM     25  O   UNL     1      -9.107 -17.045   1.676  0.00  0.00    +0.000 OA
ATOM     26  N   UNL     1     -11.228 -17.137   2.738  0.00  0.00    +0.000 N 
ATOM     27  C   UNL     1      -9.813 -17.061   2.679  0.00  0.00    +0.000 C 
ATOM     28  C   UNL     1     -12.019 -17.159   3.972  0.00  0.00    +0.000 C 
BRANCH  27  29
ATOM     29  C   UNL     1      -9.112 -17.000   3.954  0.00  0.00    +0.000 C 
BRANCH  29  30
ATOM     30  N   UNL     1      -8.407 -16.909   5.231  0.00  0.00    +0.000 N 
ATOM     31  N   UNL     1      -7.652 -20.012   6.782  0.00  0.00    +0.000 N 
ATOM     32  C   UNL     1      -9.163 -17.751   6.200  0.00  0.00    +0.000 C 
ATOM     33  C   UNL     1      -7.229 -17.814   5.130  0.00  0.00    +0.000 C 
ATOM     34  C   UNL     1      -8.834 -19.112   6.878  0.00  0.00    +0.000 C 
ATOM     35  C   UNL     1      -6.900 -19.177   5.808  0.00  0.00    +0.000 C 
ATOM     36  C   UNL     1      -8.088 -21.205   6.069  0.00  0.00    +0.000 C 
ENDBRANCH  29  30
ENDBRANCH  27  29
ENDBRANCH  19  26
ENDBRANCH   1  22
BRANCH   2  37
ATOM     37  C   UNL     1     -16.307 -17.077  -0.783  0.00  0.00    +0.000 A 
ATOM     38  C   UNL     1     -16.741 -15.792  -0.462  0.00  0.00    +0.000 A 
ATOM     39  C   UNL     1     -16.622 -18.171   0.022  0.00  0.00    +0.000 A 
ATOM     40  C   UNL     1     -17.497 -15.601   0.690  0.00  0.00    +0.000 A 
ATOM     41  C   UNL     1     -17.378 -17.968   1.172  0.00  0.00    +0.000 A 
ATOM     42  C   UNL     1     -17.814 -16.686   1.506  0.00  0.00    +0.000 A 
ENDBRANCH   2  37
TORSDOF 9
ENDMDL
MODEL 4
REMARK VINA RESULT:      -6.0     20.522     22.664
REMARK  Name = 135423438_Nintedanib.pdbqt.pdb
REMARK  9 active torsions:
REMARK  status: ('A' for Active; 'I' for Inactive)
REMARK    1  A    between atoms: N_1  and  C_22
REMARK    2  A    between atoms: C_2  and  C_4
REMARK    3  A    between atoms: C_2  and  C_37
REMARK    4  A    between atoms: C_7  and  O_13
REMARK    5  A    between atoms: C_10  and  C_16
REMARK    6  A    between atoms: C_16  and  O_17
REMARK    7  A    between atoms: C_19  and  N_26
REMARK    8  A    between atoms: C_27  and  C_29
REMARK    9  A    between atoms: C_29  and  N_30
REMARK                            x       y       z     vdW  Elec       q    Type
REMARK                         _______ _______ _______ _____ _____    ______ ____
ROOT
ATOM      1  N   UNL     1     -14.250 -17.924  -1.791  0.00  0.00    +0.000 NA
ATOM      2  C   UNL     1     -14.492 -17.673  -0.537  0.00  0.00    +0.000 C 
ENDROOT
BRANCH   2   4
ATOM      3  N   UNL     1     -11.823 -18.395   1.866  0.00  0.00    +0.000 N 
ATOM      4  C   UNL     1     -13.341 -17.707   0.374  0.00  0.00    +0.000 A 
ATOM      5  C   UNL     1     -12.423 -16.633   0.648  0.00  0.00    +0.000 A 
ATOM      6  C   UNL     1     -11.492 -17.095   1.576  0.00  0.00    +0.000 A 
ATOM      7  C   UNL     1     -12.933 -18.779   1.158  0.00  0.00    +0.000 A 
ATOM      8  C   UNL     1     -12.296 -15.308   0.182  0.00  0.00    +0.000 A 
ATOM      9  C   UNL     1     -10.446 -16.305   2.066  0.00  0.00    +0.000 A 
ATOM     10  C   UNL     1     -10.350 -14.992   1.587  0.00  0.00    +0.000 A 
ATOM     11  C   UNL     1     -11.260 -14.501   0.657  0.00  0.00    +0.000 A 
ATOM     12  H   UNL     1     -11.314 -18.975   2.517  0.00  0.00    +0.000 HD
BRANCH   7  13
ATOM     13  O   UNL     1     -13.450 -19.996   1.289  0.00  0.00    +0.000 OA
ATOM     14  H   UNL     1     -12.747 -20.669   1.302  0.00  0.00    +0.000 HD
ENDBRANCH   7  13
BRANCH  10  16
ATOM     15  O   UNL     1      -9.344 -13.468   3.102  0.00  0.00    +0.000 OA
ATOM     16  C   UNL     1      -9.277 -14.084   2.049  0.00  0.00    +0.000 C 
BRANCH  16  17
ATOM     17  O   UNL     1      -8.279 -14.082   1.121  0.00  0.00    +0.000 OA
ATOM     18  C   UNL     1      -7.721 -12.847   0.750  0.00  0.00    +0.000 C 
ENDBRANCH  16  17
ENDBRANCH  10  16
ENDBRANCH   2   4
BRANCH   1  22
ATOM     19  C   UNL     1     -17.467 -17.994  -4.540  0.00  0.00    +0.000 A 
ATOM     20  C   UNL     1     -17.065 -19.143  -3.854  0.00  0.00    +0.000 A 
ATOM     21  C   UNL     1     -16.757 -16.814  -4.280  0.00  0.00    +0.000 A 
ATOM     22  C   UNL     1     -15.288 -17.948  -2.731  0.00  0.00    +0.000 A 
ATOM     23  C   UNL     1     -16.000 -19.125  -2.955  0.00  0.00    +0.000 A 
ATOM     24  C   UNL     1     -15.691 -16.783  -3.382  0.00  0.00    +0.000 A 
BRANCH  19  26
ATOM     25  O   UNL     1     -17.236 -18.527  -7.376  0.00  0.00    +0.000 OA
ATOM     26  N   UNL     1     -18.566 -18.009  -5.479  0.00  0.00    +0.000 N 
ATOM     27  C   UNL     1     -18.316 -18.284  -6.847  0.00  0.00    +0.000 C 
ATOM     28  C   UNL     1     -19.882 -17.720  -4.904  0.00  0.00    +0.000 C 
BRANCH  27  29
ATOM     29  C   UNL     1     -19.472 -18.274  -7.733  0.00  0.00    +0.000 C 
BRANCH  29  30
ATOM     30  N   UNL     1     -20.645 -18.286  -8.606  0.00  0.00    +0.000 N 
ATOM     31  N   UNL     1     -21.510 -21.452  -9.957  0.00  0.00    +0.000 N 
ATOM     32  C   UNL     1     -20.241 -18.980  -9.860  0.00  0.00    +0.000 C 
ATOM     33  C   UNL     1     -21.532 -19.374  -8.108  0.00  0.00    +0.000 C 
ATOM     34  C   UNL     1     -20.617 -20.369 -10.451  0.00  0.00    +0.000 C 
ATOM     35  C   UNL     1     -21.908 -20.764  -8.699  0.00  0.00    +0.000 C 
ATOM     36  C   UNL     1     -20.651 -22.566  -9.576  0.00  0.00    +0.000 C 
ENDBRANCH  29  30
ENDBRANCH  27  29
ENDBRANCH  19  26
ENDBRANCH   1  22
BRANCH   2  37
ATOM     37  C   UNL     1     -15.821 -17.365   0.021  0.00  0.00    +0.000 A 
ATOM     38  C   UNL     1     -16.635 -18.405   0.466  0.00  0.00    +0.000 A 
ATOM     39  C   UNL     1     -16.223 -16.035   0.125  0.00  0.00    +0.000 A 
ATOM     40  C   UNL     1     -17.877 -18.104   1.016  0.00  0.00    +0.000 A 
ATOM     41  C   UNL     1     -17.466 -15.745   0.676  0.00  0.00    +0.000 A 
ATOM     42  C   UNL     1     -18.292 -16.777   1.121  0.00  0.00    +0.000 A 
ENDBRANCH   2  37
TORSDOF 9
ENDMDL
MODEL 5
REMARK VINA RESULT:      -5.8     18.628     22.569
REMARK  Name = 135423438_Nintedanib.pdbqt.pdb
REMARK  9 active torsions:
REMARK  status: ('A' for Active; 'I' for Inactive)
REMARK    1  A    between atoms: N_1  and  C_22
REMARK    2  A    between atoms: C_2  and  C_4
REMARK    3  A    between atoms: C_2  and  C_37
REMARK    4  A    between atoms: C_7  and  O_13
REMARK    5  A    between atoms: C_10  and  C_16
REMARK    6  A    between atoms: C_16  and  O_17
REMARK    7  A    between atoms: C_19  and  N_26
REMARK    8  A    between atoms: C_27  and  C_29
REMARK    9  A    between atoms: C_29  and  N_30
REMARK                            x       y       z     vdW  Elec       q    Type
REMARK                         _______ _______ _______ _____ _____    ______ ____
ROOT
ATOM      1  N   UNL     1      -5.720 -17.018 -15.504  0.00  0.00    +0.000 NA
ATOM      2  C   UNL     1      -6.258 -15.835 -15.588  0.00  0.00    +0.000 C 
ENDROOT
BRANCH   2   4
ATOM      3  N   UNL     1      -9.849 -16.298 -16.145  0.00  0.00    +0.000 N 
ATOM      4  C   UNL     1      -7.723 -15.784 -15.678  0.00  0.00    +0.000 A 
ATOM      5  C   UNL     1      -8.583 -14.738 -15.191  0.00  0.00    +0.000 A 
ATOM      6  C   UNL     1      -9.896 -15.090 -15.495  0.00  0.00    +0.000 A 
ATOM      7  C   UNL     1      -8.553 -16.729 -16.269  0.00  0.00    +0.000 A 
ATOM      8  C   UNL     1      -8.361 -13.523 -14.510  0.00  0.00    +0.000 A 
ATOM      9  C   UNL     1     -10.997 -14.294 -15.161  0.00  0.00    +0.000 A 
ATOM     10  C   UNL     1     -10.743 -13.091 -14.489  0.00  0.00    +0.000 A 
ATOM     11  C   UNL     1      -9.445 -12.712 -14.167  0.00  0.00    +0.000 A 
ATOM     12  H   UNL     1     -10.663 -16.788 -16.485  0.00  0.00    +0.000 HD
BRANCH   7  13
ATOM     13  O   UNL     1      -8.259 -17.871 -16.881  0.00  0.00    +0.000 OA
ATOM     14  H   UNL     1      -7.550 -17.739 -17.535  0.00  0.00    +0.000 HD
ENDBRANCH   7  13
BRANCH  10  16
ATOM     15  O   UNL     1     -12.990 -12.327 -14.498  0.00  0.00    +0.000 OA
ATOM     16  C   UNL     1     -11.844 -12.186 -14.095  0.00  0.00    +0.000 C 
BRANCH  16  17
ATOM     17  O   UNL     1     -11.348 -11.235 -13.253  0.00  0.00    +0.000 OA
ATOM     18  C   UNL     1     -11.955  -9.969 -13.251  0.00  0.00    +0.000 C 
ENDBRANCH  16  17
ENDBRANCH  10  16
ENDBRANCH   2   4
BRANCH   1  22
ATOM     19  C   UNL     1      -1.505 -17.365 -15.366  0.00  0.00    +0.000 A 
ATOM     20  C   UNL     1      -2.202 -17.389 -16.577  0.00  0.00    +0.000 A 
ATOM     21  C   UNL     1      -2.263 -17.222 -14.196  0.00  0.00    +0.000 A 
ATOM     22  C   UNL     1      -4.330 -17.171 -15.448  0.00  0.00    +0.000 A 
ATOM     23  C   UNL     1      -3.592 -17.284 -16.625  0.00  0.00    +0.000 A 
ATOM     24  C   UNL     1      -3.652 -17.115 -14.231  0.00  0.00    +0.000 A 
BRANCH  19  26
ATOM     25  O   UNL     1      -0.033 -19.850 -15.180  0.00  0.00    +0.000 OA
ATOM     26  N   UNL     1      -0.066 -17.481 -15.311  0.00  0.00    +0.000 N 
ATOM     27  C   UNL     1       0.533 -18.762 -15.219  0.00  0.00    +0.000 C 
ATOM     28  C   UNL     1       0.665 -16.211 -15.348  0.00  0.00    +0.000 C 
BRANCH  27  29
ATOM     29  C   UNL     1       1.988 -18.798 -15.159  0.00  0.00    +0.000 C 
BRANCH  29  30
ATOM     30  N   UNL     1       3.448 -18.804 -15.105  0.00  0.00    +0.000 N 
ATOM     31  N   UNL     1       4.851 -19.120 -11.859  0.00  0.00    +0.000 N 
ATOM     32  C   UNL     1       3.844 -17.793 -14.086  0.00  0.00    +0.000 C 
ATOM     33  C   UNL     1       3.836 -19.994 -14.297  0.00  0.00    +0.000 C 
ATOM     34  C   UNL     1       4.456 -17.931 -12.662  0.00  0.00    +0.000 C 
ATOM     35  C   UNL     1       4.448 -20.132 -12.872  0.00  0.00    +0.000 C 
ATOM     36  C   UNL     1       3.901 -19.221 -10.759  0.00  0.00    +0.000 C 
ENDBRANCH  29  30
ENDBRANCH  27  29
ENDBRANCH  19  26
ENDBRANCH   1  22
BRANCH   2  37
ATOM     37  C   UNL     1      -5.509 -14.566 -15.601  0.00  0.00    +0.000 A 
ATOM     38  C   UNL     1      -5.020 -14.046 -14.404  0.00  0.00    +0.000 A 
ATOM     39  C   UNL     1      -5.276 -13.928 -16.818  0.00  0.00    +0.000 A 
ATOM     40  C   UNL     1      -4.290 -12.861 -14.429  0.00  0.00    +0.000 A 
ATOM     41  C   UNL     1      -4.546 -12.744 -16.832  0.00  0.00    +0.000 A 
ATOM     42  C   UNL     1      -4.054 -12.212 -15.640  0.00  0.00    +0.000 A 
ENDBRANCH   2  37
TORSDOF 9
ENDMDL
MODEL 6
REMARK VINA RESULT:      -5.7     21.425     23.978
REMARK  Name = 135423438_Nintedanib.pdbqt.pdb
REMARK  9 active torsions:
REMARK  status: ('A' for Active; 'I' for Inactive)
REMARK    1  A    between atoms: N_1  and  C_22
REMARK    2  A    between atoms: C_2  and  C_4
REMARK    3  A    between atoms: C_2  and  C_37
REMARK    4  A    between atoms: C_7  and  O_13
REMARK    5  A    between atoms: C_10  and  C_16
REMARK    6  A    between atoms: C_16  and  O_17
REMARK    7  A    between atoms: C_19  and  N_26
REMARK    8  A    between atoms: C_27  and  C_29
REMARK    9  A    between atoms: C_29  and  N_30
REMARK                            x       y       z     vdW  Elec       q    Type
REMARK                         _______ _______ _______ _____ _____    ______ ____
ROOT
ATOM      1  N   UNL     1      -2.491 -14.984  -4.156  0.00  0.00    +0.000 NA
ATOM      2  C   UNL     1      -1.239 -14.626  -4.185  0.00  0.00    +0.000 C 
ENDROOT
BRANCH   2   4
ATOM      3  N   UNL     1      -0.365 -14.195  -7.716  0.00  0.00    +0.000 N 
ATOM      4  C   UNL     1      -0.631 -14.465  -5.512  0.00  0.00    +0.000 A 
ATOM      5  C   UNL     1       0.774 -14.466  -5.825  0.00  0.00    +0.000 A 
ATOM      6  C   UNL     1       0.903 -14.293  -7.202  0.00  0.00    +0.000 A 
ATOM      7  C   UNL     1      -1.300 -14.300  -6.718  0.00  0.00    +0.000 A 
ATOM      8  C   UNL     1       1.950 -14.592  -5.057  0.00  0.00    +0.000 A 
ATOM      9  C   UNL     1       2.141 -14.244  -7.851  0.00  0.00    +0.000 A 
ATOM     10  C   UNL     1       3.291 -14.376  -7.061  0.00  0.00    +0.000 A 
ATOM     11  C   UNL     1       3.196 -14.546  -5.684  0.00  0.00    +0.000 A 
ATOM     12  H   UNL     1      -0.568 -14.068  -8.697  0.00  0.00    +0.000 HD
BRANCH   7  13
ATOM     13  O   UNL     1      -2.601 -14.249  -6.982  0.00  0.00    +0.000 OA
ATOM     14  H   UNL     1      -3.117 -14.158  -6.161  0.00  0.00    +0.000 HD
ENDBRANCH   7  13
BRANCH  10  16
ATOM     15  O   UNL     1       5.200 -13.290  -7.958  0.00  0.00    +0.000 OA
ATOM     16  C   UNL     1       4.642 -14.336  -7.661  0.00  0.00    +0.000 C 
BRANCH  16  17
ATOM     17  O   UNL     1       5.096 -15.614  -7.800  0.00  0.00    +0.000 OA
ATOM     18  C   UNL     1       5.093 -16.182  -9.084  0.00  0.00    +0.000 C 
ENDBRANCH  16  17
ENDBRANCH  10  16
ENDBRANCH   2   4
BRANCH   1  22
ATOM     19  C   UNL     1      -4.372 -15.647  -0.425  0.00  0.00    +0.000 A 
ATOM     20  C   UNL     1      -3.958 -16.707  -1.234  0.00  0.00    +0.000 A 
ATOM     21  C   UNL     1      -4.139 -14.350  -0.902  0.00  0.00    +0.000 A 
ATOM     22  C   UNL     1      -3.148 -15.195  -2.939  0.00  0.00    +0.000 A 
ATOM     23  C   UNL     1      -3.346 -16.493  -2.468  0.00  0.00    +0.000 A 
ATOM     24  C   UNL     1      -3.527 -14.122  -2.134  0.00  0.00    +0.000 A 
BRANCH  19  26
ATOM     25  O   UNL     1      -6.501 -14.023   0.677  0.00  0.00    +0.000 OA
ATOM     26  N   UNL     1      -5.014 -15.865   0.852  0.00  0.00    +0.000 N 
ATOM     27  C   UNL     1      -6.047 -14.993   1.277  0.00  0.00    +0.000 C 
ATOM     28  C   UNL     1      -4.508 -17.008   1.618  0.00  0.00    +0.000 C 
BRANCH  27  29
ATOM     29  C   UNL     1      -6.640 -15.271   2.577  0.00  0.00    +0.000 C 
BRANCH  29  30
ATOM     30  N   UNL     1      -7.243 -15.522   3.885  0.00  0.00    +0.000 N 
ATOM     31  N   UNL     1      -5.658 -18.024   5.841  0.00  0.00    +0.000 N 
ATOM     32  C   UNL     1      -7.454 -16.993   3.986  0.00  0.00    +0.000 C 
ATOM     33  C   UNL     1      -6.137 -15.458   4.880  0.00  0.00    +0.000 C 
ATOM     34  C   UNL     1      -6.758 -18.090   4.841  0.00  0.00    +0.000 C 
ATOM     35  C   UNL     1      -5.440 -16.556   5.735  0.00  0.00    +0.000 C 
ATOM     36  C   UNL     1      -4.499 -18.668   5.238  0.00  0.00    +0.000 C 
ENDBRANCH  29  30
ENDBRANCH  27  29
ENDBRANCH  19  26
ENDBRANCH   1  22
BRANCH   2  37
ATOM     37  C   UNL     1      -0.405 -14.380  -2.996  0.00  0.00    +0.000 A 
ATOM     38  C   UNL     1       0.154 -15.459  -2.314  0.00  0.00    +0.000 A 
ATOM     39  C   UNL     1      -0.162 -13.066  -2.597  0.00  0.00    +0.000 A 
ATOM     40  C   UNL     1       0.962 -15.216  -1.208  0.00  0.00    +0.000 A 
ATOM     41  C   UNL     1       0.647 -12.834  -1.489  0.00  0.00    +0.000 A 
ATOM     42  C   UNL     1       1.208 -13.907  -0.796  0.00  0.00    +0.000 A 
ENDBRANCH   2  37
TORSDOF 9
ENDMDL
MODEL 7
REMARK VINA RESULT:      -5.7      5.446      9.274
REMARK  Name = 135423438_Nintedanib.pdbqt.pdb
REMARK  9 active torsions:
REMARK  status: ('A' for Active; 'I' for Inactive)
REMARK    1  A    between atoms: N_1  and  C_22
REMARK    2  A    between atoms: C_2  and  C_4
REMARK    3  A    between atoms: C_2  and  C_37
REMARK    4  A    between atoms: C_7  and  O_13
REMARK    5  A    between atoms: C_10  and  C_16
REMARK    6  A    between atoms: C_16  and  O_17
REMARK    7  A    between atoms: C_19  and  N_26
REMARK    8  A    between atoms: C_27  and  C_29
REMARK    9  A    between atoms: C_29  and  N_30
REMARK                            x       y       z     vdW  Elec       q    Type
REMARK                         _______ _______ _______ _____ _____    ______ ____
ROOT
ATOM      1  N   UNL     1      -3.899 -37.054  -1.167  0.00  0.00    +0.000 NA
ATOM      2  C   UNL     1      -3.105 -38.046  -0.884  0.00  0.00    +0.000 C 
ENDROOT
BRANCH   2   4
ATOM      3  N   UNL     1      -3.196 -38.860   2.686  0.00  0.00    +0.000 N 
ATOM      4  C   UNL     1      -3.222 -38.619   0.463  0.00  0.00    +0.000 A 
ATOM      5  C   UNL     1      -3.593 -39.969   0.799  0.00  0.00    +0.000 A 
ATOM      6  C   UNL     1      -3.569 -40.083   2.187  0.00  0.00    +0.000 A 
ATOM      7  C   UNL     1      -2.979 -37.970   1.666  0.00  0.00    +0.000 A 
ATOM      8  C   UNL     1      -3.955 -41.104   0.044  0.00  0.00    +0.000 A 
ATOM      9  C   UNL     1      -3.882 -41.269   2.861  0.00  0.00    +0.000 A 
ATOM     10  C   UNL     1      -4.233 -42.380   2.082  0.00  0.00    +0.000 A 
ATOM     11  C   UNL     1      -4.271 -42.298   0.695  0.00  0.00    +0.000 A 
ATOM     12  H   UNL     1      -3.094 -38.659   3.670  0.00  0.00    +0.000 HD
BRANCH   7  13
ATOM     13  O   UNL     1      -2.591 -36.722   1.909  0.00  0.00    +0.000 OA
ATOM     14  H   UNL     1      -3.248 -36.257   2.456  0.00  0.00    +0.000 HD
ENDBRANCH   7  13
BRANCH  10  16
ATOM     15  O   UNL     1      -4.977 -43.765   3.860  0.00  0.00    +0.000 OA
ATOM     16  C   UNL     1      -4.580 -43.675   2.707  0.00  0.00    +0.000 C 
BRANCH  16  17
ATOM     17  O   UNL     1      -4.378 -44.667   1.795  0.00  0.00    +0.000 OA
ATOM     18  C   UNL     1      -3.724 -45.836   2.220  0.00  0.00    +0.000 C 
ENDBRANCH  16  17
ENDBRANCH  10  16
ENDBRANCH   2   4
BRANCH   1  22
ATOM     19  C   UNL     1      -3.790 -35.054  -4.894  0.00  0.00    +0.000 A 
ATOM     20  C   UNL     1      -4.869 -35.862  -4.529  0.00  0.00    +0.000 A 
ATOM     21  C   UNL     1      -2.741 -34.934  -3.973  0.00  0.00    +0.000 A 
ATOM     22  C   UNL     1      -3.838 -36.420  -2.414  0.00  0.00    +0.000 A 
ATOM     23  C   UNL     1      -4.904 -36.530  -3.306  0.00  0.00    +0.000 A 
ATOM     24  C   UNL     1      -2.765 -35.596  -2.746  0.00  0.00    +0.000 A 
BRANCH  19  26
ATOM     25  O   UNL     1      -2.640 -36.112  -7.331  0.00  0.00    +0.000 OA
ATOM     26  N   UNL     1      -3.746 -34.366  -6.165  0.00  0.00    +0.000 N 
ATOM     27  C   UNL     1      -3.151 -34.998  -7.286  0.00  0.00    +0.000 C 
ATOM     28  C   UNL     1      -4.338 -33.025  -6.170  0.00  0.00    +0.000 C 
BRANCH  27  29
ATOM     29  C   UNL     1      -3.137 -34.239  -8.529  0.00  0.00    +0.000 C 
BRANCH  29  30
ATOM     30  N   UNL     1      -3.144 -33.459  -9.764  0.00  0.00    +0.000 N 
ATOM     31  N   UNL     1      -0.011 -33.187 -11.412  0.00  0.00    +0.000 N 
ATOM     32  C   UNL     1      -2.039 -32.466  -9.651  0.00  0.00    +0.000 C 
ATOM     33  C   UNL     1      -2.485 -34.302 -10.801  0.00  0.00    +0.000 C 
ATOM     34  C   UNL     1      -0.665 -32.348 -10.371  0.00  0.00    +0.000 C 
ATOM     35  C   UNL     1      -1.110 -34.184 -11.520  0.00  0.00    +0.000 C 
ATOM     36  C   UNL     1       1.109 -33.860 -10.770  0.00  0.00    +0.000 C 
ENDBRANCH  29  30
ENDBRANCH  27  29
ENDBRANCH  19  26
ENDBRANCH   1  22
BRANCH   2  37
ATOM     37  C   UNL     1      -2.110 -38.621  -1.808  0.00  0.00    +0.000 A 
ATOM     38  C   UNL     1      -2.542 -39.349  -2.915  0.00  0.00    +0.000 A 
ATOM     39  C   UNL     1      -0.755 -38.396  -1.572  0.00  0.00    +0.000 A 
ATOM     40  C   UNL     1      -1.597 -39.866  -3.796  0.00  0.00    +0.000 A 
ATOM     41  C   UNL     1       0.181 -38.917  -2.459  0.00  0.00    +0.000 A 
ATOM     42  C   UNL     1      -0.239 -39.650  -3.569  0.00  0.00    +0.000 A 
ENDBRANCH   2  37
TORSDOF 9
ENDMDL
MODEL 8
REMARK VINA RESULT:      -5.7     17.760     20.100
REMARK  Name = 135423438_Nintedanib.pdbqt.pdb
REMARK  9 active torsions:
REMARK  status: ('A' for Active; 'I' for Inactive)
REMARK    1  A    between atoms: N_1  and  C_22
REMARK    2  A    between atoms: C_2  and  C_4
REMARK    3  A    between atoms: C_2  and  C_37
REMARK    4  A    between atoms: C_7  and  O_13
REMARK    5  A    between atoms: C_10  and  C_16
REMARK    6  A    between atoms: C_16  and  O_17
REMARK    7  A    between atoms: C_19  and  N_26
REMARK    8  A    between atoms: C_27  and  C_29
REMARK    9  A    between atoms: C_29  and  N_30
REMARK                            x       y       z     vdW  Elec       q    Type
REMARK                         _______ _______ _______ _____ _____    ______ ____
ROOT
ATOM      1  N   UNL     1      -4.344 -18.582 -16.120  0.00  0.00    +0.000 NA
ATOM      2  C   UNL     1      -3.368 -17.801 -15.754  0.00  0.00    +0.000 C 
ENDROOT
BRANCH   2   4
ATOM      3  N   UNL     1      -0.427 -19.941 -15.311  0.00  0.00    +0.000 N 
ATOM      4  C   UNL     1      -2.092 -18.452 -15.428  0.00  0.00    +0.000 A 
ATOM      5  C   UNL     1      -1.039 -17.924 -14.601  0.00  0.00    +0.000 A 
ATOM      6  C   UNL     1      -0.020 -18.873 -14.552  0.00  0.00    +0.000 A 
ATOM      7  C   UNL     1      -1.671 -19.709 -15.842  0.00  0.00    +0.000 A 
ATOM      8  C   UNL     1      -0.859 -16.718 -13.894  0.00  0.00    +0.000 A 
ATOM      9  C   UNL     1       1.165 -18.684 -13.833  0.00  0.00    +0.000 A 
ATOM     10  C   UNL     1       1.312 -17.476 -13.137  0.00  0.00    +0.000 A 
ATOM     11  C   UNL     1       0.316 -16.507 -13.169  0.00  0.00    +0.000 A 
ATOM     12  H   UNL     1       0.120 -20.778 -15.448  0.00  0.00    +0.000 HD
BRANCH   7  13
ATOM     13  O   UNL     1      -2.278 -20.615 -16.602  0.00  0.00    +0.000 OA
ATOM     14  H   UNL     1      -3.232 -20.430 -16.664  0.00  0.00    +0.000 HD
ENDBRANCH   7  13
BRANCH  10  16
ATOM     15  O   UNL     1       3.366 -16.370 -12.706  0.00  0.00    +0.000 OA
ATOM     16  C   UNL     1       2.531 -17.188 -12.350  0.00  0.00    +0.000 C 
BRANCH  16  17
ATOM     17  O   UNL     1       2.523 -17.969 -11.233  0.00  0.00    +0.000 OA
ATOM     18  C   UNL     1       3.728 -18.572 -10.837  0.00  0.00    +0.000 C 
ENDBRANCH  16  17
ENDBRANCH  10  16
ENDBRANCH   2   4
BRANCH   1  22
ATOM     19  C   UNL     1      -8.131 -16.896 -16.967  0.00  0.00    +0.000 A 
ATOM     20  C   UNL     1      -7.825 -17.409 -15.704  0.00  0.00    +0.000 A 
ATOM     21  C   UNL     1      -7.130 -16.964 -17.945  0.00  0.00    +0.000 A 
ATOM     22  C   UNL     1      -5.607 -18.057 -16.419  0.00  0.00    +0.000 A 
ATOM     23  C   UNL     1      -6.581 -17.973 -15.424  0.00  0.00    +0.000 A 
ATOM     24  C   UNL     1      -5.882 -17.525 -17.677  0.00  0.00    +0.000 A 
BRANCH  19  26
ATOM     25  O   UNL     1     -10.679 -18.229 -16.635  0.00  0.00    +0.000 OA
ATOM     26  N   UNL     1      -9.422 -16.317 -17.264  0.00  0.00    +0.000 N 
ATOM     27  C   UNL     1     -10.598 -17.080 -17.057  0.00  0.00    +0.000 C 
ATOM     28  C   UNL     1      -9.388 -14.945 -17.778  0.00  0.00    +0.000 C 
BRANCH  27  29
ATOM     29  C   UNL     1     -11.860 -16.432 -17.386  0.00  0.00    +0.000 C 
BRANCH  29  30
ATOM     30  N   UNL     1     -13.130 -15.800 -17.740  0.00  0.00    +0.000 N 
ATOM     31  N   UNL     1     -14.146 -13.132 -15.630  0.00  0.00    +0.000 N 
ATOM     32  C   UNL     1     -13.954 -15.766 -16.500  0.00  0.00    +0.000 C 
ATOM     33  C   UNL     1     -12.872 -14.333 -17.792  0.00  0.00    +0.000 C 
ATOM     34  C   UNL     1     -14.397 -14.597 -15.573  0.00  0.00    +0.000 C 
ATOM     35  C   UNL     1     -13.315 -13.164 -16.864  0.00  0.00    +0.000 C 
ATOM     36  C   UNL     1     -13.251 -12.814 -14.526  0.00  0.00    +0.000 C 
ENDBRANCH  29  30
ENDBRANCH  27  29
ENDBRANCH  19  26
ENDBRANCH   1  22
BRANCH   2  37
ATOM     37  C   UNL     1      -3.456 -16.334 -15.644  0.00  0.00    +0.000 A 
ATOM     38  C   UNL     1      -2.946 -15.537 -16.667  0.00  0.00    +0.000 A 
ATOM     39  C   UNL     1      -4.080 -15.773 -14.531  0.00  0.00    +0.000 A 
ATOM     40  C   UNL     1      -3.057 -14.154 -16.568  0.00  0.00    +0.000 A 
ATOM     41  C   UNL     1      -4.185 -14.389 -14.440  0.00  0.00    +0.000 A 
ATOM     42  C   UNL     1      -3.675 -13.581 -15.457  0.00  0.00    +0.000 A 
ENDBRANCH   2  37
TORSDOF 9
ENDMDL
MODEL 9
REMARK VINA RESULT:      -5.6     21.418     24.381
REMARK  Name = 135423438_Nintedanib.pdbqt.pdb
REMARK  9 active torsions:
REMARK  status: ('A' for Active; 'I' for Inactive)
REMARK    1  A    between atoms: N_1  and  C_22
REMARK    2  A    between atoms: C_2  and  C_4
REMARK    3  A    between atoms: C_2  and  C_37
REMARK    4  A    between atoms: C_7  and  O_13
REMARK    5  A    between atoms: C_10  and  C_16
REMARK    6  A    between atoms: C_16  and  O_17
REMARK    7  A    between atoms: C_19  and  N_26
REMARK    8  A    between atoms: C_27  and  C_29
REMARK    9  A    between atoms: C_29  and  N_30
REMARK                            x       y       z     vdW  Elec       q    Type
REMARK                         _______ _______ _______ _____ _____    ______ ____
ROOT
ATOM      1  N   UNL     1      -3.162 -14.823  -3.186  0.00  0.00    +0.000 NA
ATOM      2  C   UNL     1      -1.877 -14.809  -3.398  0.00  0.00    +0.000 C 
ENDROOT
BRANCH   2   4
ATOM      3  N   UNL     1      -1.306 -14.513  -7.004  0.00  0.00    +0.000 N 
ATOM      4  C   UNL     1      -1.440 -14.530  -4.772  0.00  0.00    +0.000 A 
ATOM      5  C   UNL     1      -0.310 -13.733  -5.174  0.00  0.00    +0.000 A 
ATOM      6  C   UNL     1      -0.258 -13.741  -6.566  0.00  0.00    +0.000 A 
ATOM      7  C   UNL     1      -2.024 -14.998  -5.941  0.00  0.00    +0.000 A 
ATOM      8  C   UNL     1       0.670 -12.998  -4.476  0.00  0.00    +0.000 A 
ATOM      9  C   UNL     1       0.721 -13.061  -7.298  0.00  0.00    +0.000 A 
ATOM     10  C   UNL     1       1.683 -12.343  -6.575  0.00  0.00    +0.000 A 
ATOM     11  C   UNL     1       1.657 -12.311  -5.185  0.00  0.00    +0.000 A 
ATOM     12  H   UNL     1      -1.506 -14.693  -7.977  0.00  0.00    +0.000 HD
BRANCH   7  13
ATOM     13  O   UNL     1      -3.079 -15.787  -6.122  0.00  0.00    +0.000 OA
ATOM     14  H   UNL     1      -3.210 -16.369  -5.354  0.00  0.00    +0.000 HD
ENDBRANCH   7  13
BRANCH  10  16
ATOM     15  O   UNL     1       3.382 -10.693  -6.722  0.00  0.00    +0.000 OA
ATOM     16  C   UNL     1       2.756 -11.593  -7.263  0.00  0.00    +0.000 C 
BRANCH  16  17
ATOM     17  O   UNL     1       2.888 -12.081  -8.529  0.00  0.00    +0.000 OA
ATOM     18  C   UNL     1       4.138 -11.963  -9.158  0.00  0.00    +0.000 C 
ENDBRANCH  16  17
ENDBRANCH  10  16
ENDBRANCH   2   4
BRANCH   1  22
ATOM     19  C   UNL     1      -4.828 -15.694   0.604  0.00  0.00    +0.000 A 
ATOM     20  C   UNL     1      -4.795 -14.391   0.102  0.00  0.00    +0.000 A 
ATOM     21  C   UNL     1      -4.284 -16.703  -0.201  0.00  0.00    +0.000 A 
ATOM     22  C   UNL     1      -3.677 -15.113  -1.917  0.00  0.00    +0.000 A 
ATOM     23  C   UNL     1      -4.238 -14.099  -1.143  0.00  0.00    +0.000 A 
ATOM     24  C   UNL     1      -3.726 -16.424  -1.448  0.00  0.00    +0.000 A 
BRANCH  19  26
ATOM     25  O   UNL     1      -3.357 -15.808   3.095  0.00  0.00    +0.000 OA
ATOM     26  N   UNL     1      -5.397 -16.000   1.897  0.00  0.00    +0.000 N 
ATOM     27  C   UNL     1      -4.563 -16.024   3.044  0.00  0.00    +0.000 C 
ATOM     28  C   UNL     1      -6.837 -16.274   1.897  0.00  0.00    +0.000 C 
BRANCH  27  29
ATOM     29  C   UNL     1      -5.207 -16.348   4.309  0.00  0.00    +0.000 C 
BRANCH  29  30
ATOM     30  N   UNL     1      -5.826 -16.680   5.591  0.00  0.00    +0.000 N 
ATOM     31  N   UNL     1      -9.116 -18.000   5.399  0.00  0.00    +0.000 N 
ATOM     32  C   UNL     1      -7.165 -16.029   5.603  0.00  0.00    +0.000 C 
ATOM     33  C   UNL     1      -6.336 -18.074   5.466  0.00  0.00    +0.000 C 
ATOM     34  C   UNL     1      -8.607 -16.606   5.516  0.00  0.00    +0.000 C 
ATOM     35  C   UNL     1      -7.779 -18.652   5.378  0.00  0.00    +0.000 C 
ATOM     36  C   UNL     1      -9.673 -18.134   4.060  0.00  0.00    +0.000 C 
ENDBRANCH  29  30
ENDBRANCH  27  29
ENDBRANCH  19  26
ENDBRANCH   1  22
BRANCH   2  37
ATOM     37  C   UNL     1      -0.850 -15.055  -2.370  0.00  0.00    +0.000 A 
ATOM     38  C   UNL     1      -0.144 -16.256  -2.380  0.00  0.00    +0.000 A 
ATOM     39  C   UNL     1      -0.582 -14.064  -1.427  0.00  0.00    +0.000 A 
ATOM     40  C   UNL     1       0.843 -16.469  -1.422  0.00  0.00    +0.000 A 
ATOM     41  C   UNL     1       0.406 -14.287  -0.473  0.00  0.00    +0.000 A 
ATOM     42  C   UNL     1       1.117 -15.487  -0.471  0.00  0.00    +0.000 A 
ENDBRANCH   2  37
TORSDOF 9
ENDMDL
