MODEL 1
REMARK VINA RESULT:      -7.4      0.000      0.000
REMARK  Name = 14132199_RiccardinD.pdbqt.pdb
REMARK  3 active torsions:
REMARK  status: ('A' for Active; 'I' for Inactive)
REMARK    1  A    between atoms: C_11  and  O_30
REMARK    2  A    between atoms: C_16  and  O_32
REMARK    3  A    between atoms: C_28  and  O_34
REMARK                            x       y       z     vdW  Elec       q    Type
REMARK                         _______ _______ _______ _____ _____    ______ ____
ROOT
ATOM      1  O   UNL     1      -7.270 -17.148   3.077  0.00  0.00    +0.000 OA
ATOM      2  C   UNL     1      -1.724 -17.021  -1.117  0.00  0.00    +0.000 C 
ATOM      3  C   UNL     1      -0.811 -16.457  -2.070  0.00  0.00    +0.000 A 
ATOM      4  C   UNL     1      -1.017 -15.167  -2.623  0.00  0.00    +0.000 A 
ATOM      5  C   UNL     1      -2.778 -17.466  -0.090  0.00  0.00    +0.000 C 
ATOM      6  C   UNL     1      -5.839 -13.007  -0.685  0.00  0.00    +0.000 C 
ATOM      7  C   UNL     1      -2.253 -14.406  -2.333  0.00  0.00    +0.000 A 
ATOM      8  C   UNL     1      -4.678 -13.262  -1.472  0.00  0.00    +0.000 A 
ATOM      9  C   UNL     1      -6.952 -13.211   0.345  0.00  0.00    +0.000 C 
ATOM     10  C   UNL     1      -3.845 -17.679   0.832  0.00  0.00    +0.000 A 
ATOM     11  C   UNL     1      -2.274 -13.206  -1.606  0.00  0.00    +0.000 A 
ATOM     12  C   UNL     1      -7.686 -13.889   1.356  0.00  0.00    +0.000 A 
ATOM     13  C   UNL     1      -3.487 -14.947  -2.718  0.00  0.00    +0.000 A 
ATOM     14  C   UNL     1      -3.472 -12.645  -1.157  0.00  0.00    +0.000 A 
ATOM     15  C   UNL     1      -4.688 -14.391  -2.287  0.00  0.00    +0.000 A 
ATOM     16  C   UNL     1      -0.007 -14.666  -3.465  0.00  0.00    +0.000 A 
ATOM     17  C   UNL     1       0.321 -17.207  -2.396  0.00  0.00    +0.000 A 
ATOM     18  C   UNL     1       1.112 -15.427  -3.802  0.00  0.00    +0.000 A 
ATOM     19  C   UNL     1       1.271 -16.702  -3.274  0.00  0.00    +0.000 A 
ATOM     20  C   UNL     1      -7.171 -15.124   1.734  0.00  0.00    +0.000 A 
ATOM     21  C   UNL     1      -5.052 -18.212   0.379  0.00  0.00    +0.000 A 
ATOM     22  C   UNL     1      -3.748 -17.156   2.123  0.00  0.00    +0.000 A 
ATOM     23  C   UNL     1      -7.780 -15.916   2.700  0.00  0.00    +0.000 A 
ATOM     24  C   UNL     1      -8.845 -13.414   1.952  0.00  0.00    +0.000 A 
ATOM     25  C   UNL     1      -6.106 -17.516   2.427  0.00  0.00    +0.000 A 
ATOM     26  C   UNL     1      -6.189 -18.143   1.182  0.00  0.00    +0.000 A 
ATOM     27  C   UNL     1      -4.880 -17.082   2.932  0.00  0.00    +0.000 A 
ATOM     28  C   UNL     1      -8.942 -15.439   3.297  0.00  0.00    +0.000 A 
ATOM     29  C   UNL     1      -9.473 -14.198   2.929  0.00  0.00    +0.000 A 
ENDROOT
BRANCH  11  30
ATOM     30  O   UNL     1      -1.092 -12.578  -1.312  0.00  0.00    +0.000 OA
ATOM     31  H   UNL     1      -1.172 -12.180  -0.424  0.00  0.00    +0.000 HD
ENDBRANCH  11  30
BRANCH  16  32
ATOM     32  O   UNL     1      -0.051 -13.400  -3.986  0.00  0.00    +0.000 OA
ATOM     33  H   UNL     1       0.865 -13.063  -3.982  0.00  0.00    +0.000 HD
ENDBRANCH  16  32
BRANCH  28  34
ATOM     34  O   UNL     1      -9.596 -16.160   4.255  0.00  0.00    +0.000 OA
ATOM     35  H   UNL     1     -10.543 -16.159   4.022  0.00  0.00    +0.000 HD
ENDBRANCH  28  34
TORSDOF 3
ENDMDL
MODEL 2
REMARK VINA RESULT:      -7.3     18.384     21.982
REMARK  Name = 14132199_RiccardinD.pdbqt.pdb
REMARK  3 active torsions:
REMARK  status: ('A' for Active; 'I' for Inactive)
REMARK    1  A    between atoms: C_11  and  O_30
REMARK    2  A    between atoms: C_16  and  O_32
REMARK    3  A    between atoms: C_28  and  O_34
REMARK                            x       y       z     vdW  Elec       q    Type
REMARK                         _______ _______ _______ _____ _____    ______ ____
ROOT
ATOM      1  O   UNL     1      -6.416 -33.185  -4.564  0.00  0.00    +0.000 OA
ATOM      2  C   UNL     1      -7.799 -36.300   1.498  0.00  0.00    +0.000 C 
ATOM      3  C   UNL     1      -7.518 -37.091   2.661  0.00  0.00    +0.000 A 
ATOM      4  C   UNL     1      -6.260 -37.721   2.846  0.00  0.00    +0.000 A 
ATOM      5  C   UNL     1      -7.929 -35.466   0.213  0.00  0.00    +0.000 C 
ATOM      6  C   UNL     1      -2.978 -36.776  -1.626  0.00  0.00    +0.000 C 
ATOM      7  C   UNL     1      -5.233 -37.689   1.782  0.00  0.00    +0.000 A 
ATOM      8  C   UNL     1      -3.535 -37.329  -0.436  0.00  0.00    +0.000 A 
ATOM      9  C   UNL     1      -2.860 -35.959  -2.915  0.00  0.00    +0.000 C 
ATOM     10  C   UNL     1      -7.837 -34.746  -1.015  0.00  0.00    +0.000 A 
ATOM     11  C   UNL     1      -4.004 -37.024   1.907  0.00  0.00    +0.000 A 
ATOM     12  C   UNL     1      -3.286 -35.075  -3.943  0.00  0.00    +0.000 A 
ATOM     13  C   UNL     1      -5.526 -38.272   0.541  0.00  0.00    +0.000 A 
ATOM     14  C   UNL     1      -3.168 -36.822   0.807  0.00  0.00    +0.000 A 
ATOM     15  C   UNL     1      -4.695 -38.089  -0.560  0.00  0.00    +0.000 A 
ATOM     16  C   UNL     1      -6.053 -38.382   4.071  0.00  0.00    +0.000 A 
ATOM     17  C   UNL     1      -8.516 -37.176   3.636  0.00  0.00    +0.000 A 
ATOM     18  C   UNL     1      -7.058 -38.481   5.032  0.00  0.00    +0.000 A 
ATOM     19  C   UNL     1      -8.294 -37.885   4.810  0.00  0.00    +0.000 A 
ATOM     20  C   UNL     1      -4.569 -34.562  -3.788  0.00  0.00    +0.000 A 
ATOM     21  C   UNL     1      -8.133 -35.391  -2.217  0.00  0.00    +0.000 A 
ATOM     22  C   UNL     1      -7.249 -33.481  -1.024  0.00  0.00    +0.000 A 
ATOM     23  C   UNL     1      -5.136 -33.695  -4.714  0.00  0.00    +0.000 A 
ATOM     24  C   UNL     1      -2.530 -34.718  -5.050  0.00  0.00    +0.000 A 
ATOM     25  C   UNL     1      -7.073 -33.598  -3.419  0.00  0.00    +0.000 A 
ATOM     26  C   UNL     1      -7.761 -34.812  -3.428  0.00  0.00    +0.000 A 
ATOM     27  C   UNL     1      -6.874 -32.894  -2.231  0.00  0.00    +0.000 A 
ATOM     28  C   UNL     1      -4.378 -33.338  -5.823  0.00  0.00    +0.000 A 
ATOM     29  C   UNL     1      -3.084 -33.843  -5.993  0.00  0.00    +0.000 A 
ENDROOT
BRANCH  11  30
ATOM     30  O   UNL     1      -3.622 -36.544   3.132  0.00  0.00    +0.000 OA
ATOM     31  H   UNL     1      -4.258 -35.853   3.399  0.00  0.00    +0.000 HD
ENDBRANCH  11  30
BRANCH  16  32
ATOM     32  O   UNL     1      -4.850 -38.950   4.401  0.00  0.00    +0.000 OA
ATOM     33  H   UNL     1      -4.994 -39.914   4.431  0.00  0.00    +0.000 HD
ENDBRANCH  16  32
BRANCH  28  34
ATOM     34  O   UNL     1      -4.867 -32.489  -6.776  0.00  0.00    +0.000 OA
ATOM     35  H   UNL     1      -4.412 -31.635  -6.664  0.00  0.00    +0.000 HD
ENDBRANCH  28  34
TORSDOF 3
ENDMDL
MODEL 3
REMARK VINA RESULT:      -7.0     20.626     23.634
REMARK  Name = 14132199_RiccardinD.pdbqt.pdb
REMARK  3 active torsions:
REMARK  status: ('A' for Active; 'I' for Inactive)
REMARK    1  A    between atoms: C_11  and  O_30
REMARK    2  A    between atoms: C_16  and  O_32
REMARK    3  A    between atoms: C_28  and  O_34
REMARK                            x       y       z     vdW  Elec       q    Type
REMARK                         _______ _______ _______ _____ _____    ______ ____
ROOT
ATOM      1  O   UNL     1      -3.746 -34.266  -7.918  0.00  0.00    +0.000 OA
ATOM      2  C   UNL     1      -2.988 -36.943  -1.545  0.00  0.00    +0.000 C 
ATOM      3  C   UNL     1      -2.489 -37.853  -0.554  0.00  0.00    +0.000 A 
ATOM      4  C   UNL     1      -1.653 -38.946  -0.902  0.00  0.00    +0.000 A 
ATOM      5  C   UNL     1      -3.413 -36.048  -2.720  0.00  0.00    +0.000 C 
ATOM      6  C   UNL     1      -0.958 -39.115  -6.484  0.00  0.00    +0.000 C 
ATOM      7  C   UNL     1      -1.368 -39.261  -2.319  0.00  0.00    +0.000 A 
ATOM      8  C   UNL     1      -1.009 -39.473  -5.105  0.00  0.00    +0.000 A 
ATOM      9  C   UNL     1      -1.198 -38.334  -7.778  0.00  0.00    +0.000 C 
ATOM     10  C   UNL     1      -3.680 -35.348  -3.934  0.00  0.00    +0.000 A 
ATOM     11  C   UNL     1      -0.095 -39.155  -2.899  0.00  0.00    +0.000 A 
ATOM     12  C   UNL     1      -1.707 -37.289  -8.596  0.00  0.00    +0.000 A 
ATOM     13  C   UNL     1      -2.435 -39.597  -3.165  0.00  0.00    +0.000 A 
ATOM     14  C   UNL     1       0.087 -39.237  -4.281  0.00  0.00    +0.000 A 
ATOM     15  C   UNL     1      -2.264 -39.693  -4.543  0.00  0.00    +0.000 A 
ATOM     16  C   UNL     1      -1.132 -39.712   0.157  0.00  0.00    +0.000 A 
ATOM     17  C   UNL     1      -2.816 -37.593   0.779  0.00  0.00    +0.000 A 
ATOM     18  C   UNL     1      -1.477 -39.459   1.485  0.00  0.00    +0.000 A 
ATOM     19  C   UNL     1      -2.327 -38.405   1.795  0.00  0.00    +0.000 A 
ATOM     20  C   UNL     1      -2.438 -36.316  -7.924  0.00  0.00    +0.000 A 
ATOM     21  C   UNL     1      -4.753 -35.742  -4.735  0.00  0.00    +0.000 A 
ATOM     22  C   UNL     1      -2.747 -34.427  -4.413  0.00  0.00    +0.000 A 
ATOM     23  C   UNL     1      -3.014 -35.236  -8.584  0.00  0.00    +0.000 A 
ATOM     24  C   UNL     1      -1.532 -37.196  -9.968  0.00  0.00    +0.000 A 
ATOM     25  C   UNL     1      -3.845 -34.452  -6.552  0.00  0.00    +0.000 A 
ATOM     26  C   UNL     1      -4.846 -35.285  -6.048  0.00  0.00    +0.000 A 
ATOM     27  C   UNL     1      -2.833 -33.966  -5.724  0.00  0.00    +0.000 A 
ATOM     28  C   UNL     1      -2.838 -35.144  -9.960  0.00  0.00    +0.000 A 
ATOM     29  C   UNL     1      -2.103 -36.114 -10.650  0.00  0.00    +0.000 A 
ENDROOT
BRANCH  11  30
ATOM     30  O   UNL     1       0.994 -38.948  -2.094  0.00  0.00    +0.000 OA
ATOM     31  H   UNL     1       0.714 -39.071  -1.166  0.00  0.00    +0.000 HD
ENDBRANCH  11  30
BRANCH  16  32
ATOM     32  O   UNL     1      -0.244 -40.734  -0.047  0.00  0.00    +0.000 OA
ATOM     33  H   UNL     1      -0.773 -41.540  -0.199  0.00  0.00    +0.000 HD
ENDBRANCH  16  32
BRANCH  28  34
ATOM     34  O   UNL     1      -3.373 -34.111 -10.677  0.00  0.00    +0.000 OA
ATOM     35  H   UNL     1      -2.712 -33.847 -11.343  0.00  0.00    +0.000 HD
ENDBRANCH  28  34
TORSDOF 3
ENDMDL
MODEL 4
REMARK VINA RESULT:      -6.9      9.432     12.973
REMARK  Name = 14132199_RiccardinD.pdbqt.pdb
REMARK  3 active torsions:
REMARK  status: ('A' for Active; 'I' for Inactive)
REMARK    1  A    between atoms: C_11  and  O_30
REMARK    2  A    between atoms: C_16  and  O_32
REMARK    3  A    between atoms: C_28  and  O_34
REMARK                            x       y       z     vdW  Elec       q    Type
REMARK                         _______ _______ _______ _____ _____    ______ ____
ROOT
ATOM      1  O   UNL     1     -16.306 -18.323  -3.515  0.00  0.00    +0.000 OA
ATOM      2  C   UNL     1     -12.050 -18.480   1.982  0.00  0.00    +0.000 C 
ATOM      3  C   UNL     1     -11.516 -18.983   3.215  0.00  0.00    +0.000 A 
ATOM      4  C   UNL     1     -12.090 -20.102   3.872  0.00  0.00    +0.000 A 
ATOM      5  C   UNL     1     -12.724 -18.084   0.658  0.00  0.00    +0.000 C 
ATOM      6  C   UNL     1     -16.631 -21.851   1.045  0.00  0.00    +0.000 C 
ATOM      7  C   UNL     1     -13.342 -20.714   3.373  0.00  0.00    +0.000 A 
ATOM      8  C   UNL     1     -15.665 -21.628   2.069  0.00  0.00    +0.000 A 
ATOM      9  C   UNL     1     -17.407 -21.682  -0.264  0.00  0.00    +0.000 C 
ATOM     10  C   UNL     1     -13.479 -17.893  -0.537  0.00  0.00    +0.000 A 
ATOM     11  C   UNL     1     -13.418 -22.012   2.847  0.00  0.00    +0.000 A 
ATOM     12  C   UNL     1     -17.735 -21.104  -1.520  0.00  0.00    +0.000 A 
ATOM     13  C   UNL     1     -14.506 -19.933   3.333  0.00  0.00    +0.000 A 
ATOM     14  C   UNL     1     -14.558 -22.464   2.179  0.00  0.00    +0.000 A 
ATOM     15  C   UNL     1     -15.653 -20.377   2.681  0.00  0.00    +0.000 A 
ATOM     16  C   UNL     1     -11.424 -20.580   5.015  0.00  0.00    +0.000 A 
ATOM     17  C   UNL     1     -10.372 -18.361   3.721  0.00  0.00    +0.000 A 
ATOM     18  C   UNL     1     -10.294 -19.944   5.527  0.00  0.00    +0.000 A 
ATOM     19  C   UNL     1      -9.773 -18.828   4.884  0.00  0.00    +0.000 A 
ATOM     20  C   UNL     1     -16.918 -20.052  -1.919  0.00  0.00    +0.000 A 
ATOM     21  C   UNL     1     -14.635 -17.112  -0.504  0.00  0.00    +0.000 A 
ATOM     22  C   UNL     1     -13.179 -18.657  -1.666  0.00  0.00    +0.000 A 
ATOM     23  C   UNL     1     -17.117 -19.374  -3.116  0.00  0.00    +0.000 A 
ATOM     24  C   UNL     1     -18.787 -21.506  -2.330  0.00  0.00    +0.000 A 
ATOM     25  C   UNL     1     -15.283 -18.016  -2.637  0.00  0.00    +0.000 A 
ATOM     26  C   UNL     1     -15.539 -17.162  -1.563  0.00  0.00    +0.000 A 
ATOM     27  C   UNL     1     -14.077 -18.713  -2.729  0.00  0.00    +0.000 A 
ATOM     28  C   UNL     1     -18.171 -19.778  -3.927  0.00  0.00    +0.000 A 
ATOM     29  C   UNL     1     -19.002 -20.835  -3.541  0.00  0.00    +0.000 A 
ENDROOT
BRANCH  11  30
ATOM     30  O   UNL     1     -12.343 -22.851   2.973  0.00  0.00    +0.000 OA
ATOM     31  H   UNL     1     -11.570 -22.420   2.561  0.00  0.00    +0.000 HD
ENDBRANCH  11  30
BRANCH  16  32
ATOM     32  O   UNL     1     -11.831 -21.706   5.682  0.00  0.00    +0.000 OA
ATOM     33  H   UNL     1     -12.427 -22.190   5.079  0.00  0.00    +0.000 HD
ENDBRANCH  16  32
BRANCH  28  34
ATOM     34  O   UNL     1     -18.429 -19.159  -5.118  0.00  0.00    +0.000 OA
ATOM     35  H   UNL     1     -19.305 -18.739  -5.043  0.00  0.00    +0.000 HD
ENDBRANCH  28  34
TORSDOF 3
ENDMDL
MODEL 5
REMARK VINA RESULT:      -6.8      8.495     12.516
REMARK  Name = 14132199_RiccardinD.pdbqt.pdb
REMARK  3 active torsions:
REMARK  status: ('A' for Active; 'I' for Inactive)
REMARK    1  A    between atoms: C_11  and  O_30
REMARK    2  A    between atoms: C_16  and  O_32
REMARK    3  A    between atoms: C_28  and  O_34
REMARK                            x       y       z     vdW  Elec       q    Type
REMARK                         _______ _______ _______ _____ _____    ______ ____
ROOT
ATOM      1  O   UNL     1     -12.031 -20.728   4.969  0.00  0.00    +0.000 OA
ATOM      2  C   UNL     1     -16.849 -21.203  -0.024  0.00  0.00    +0.000 C 
ATOM      3  C   UNL     1     -17.478 -20.892  -1.276  0.00  0.00    +0.000 A 
ATOM      4  C   UNL     1     -16.963 -19.888  -2.137  0.00  0.00    +0.000 A 
ATOM      5  C   UNL     1     -16.043 -21.432   1.265  0.00  0.00    +0.000 C 
ATOM      6  C   UNL     1     -12.502 -17.427   0.254  0.00  0.00    +0.000 C 
ATOM      7  C   UNL     1     -15.828 -19.036  -1.715  0.00  0.00    +0.000 A 
ATOM      8  C   UNL     1     -13.626 -17.697  -0.579  0.00  0.00    +0.000 A 
ATOM      9  C   UNL     1     -11.519 -17.530   1.423  0.00  0.00    +0.000 C 
ATOM     10  C   UNL     1     -15.157 -21.493   2.381  0.00  0.00    +0.000 A 
ATOM     11  C   UNL     1     -14.566 -19.063  -2.327  0.00  0.00    +0.000 A 
ATOM     12  C   UNL     1     -10.990 -18.035   2.641  0.00  0.00    +0.000 A 
ATOM     13  C   UNL     1     -15.979 -18.219  -0.585  0.00  0.00    +0.000 A 
ATOM     14  C   UNL     1     -13.465 -18.420  -1.757  0.00  0.00    +0.000 A 
ATOM     15  C   UNL     1     -14.892 -17.564  -0.015  0.00  0.00    +0.000 A 
ATOM     16  C   UNL     1     -17.591 -19.738  -3.387  0.00  0.00    +0.000 A 
ATOM     17  C   UNL     1     -18.591 -21.652  -1.642  0.00  0.00    +0.000 A 
ATOM     18  C   UNL     1     -18.713 -20.486  -3.739  0.00  0.00    +0.000 A 
ATOM     19  C   UNL     1     -19.219 -21.438  -2.862  0.00  0.00    +0.000 A 
ATOM     20  C   UNL     1     -11.702 -19.087   3.206  0.00  0.00    +0.000 A 
ATOM     21  C   UNL     1     -15.359 -20.644   3.469  0.00  0.00    +0.000 A 
ATOM     22  C   UNL     1     -13.982 -22.240   2.282  0.00  0.00    +0.000 A 
ATOM     23  C   UNL     1     -11.321 -19.682   4.403  0.00  0.00    +0.000 A 
ATOM     24  C   UNL     1      -9.857 -17.550   3.278  0.00  0.00    +0.000 A 
ATOM     25  C   UNL     1     -13.135 -21.138   4.243  0.00  0.00    +0.000 A 
ATOM     26  C   UNL     1     -14.350 -20.471   4.414  0.00  0.00    +0.000 A 
ATOM     27  C   UNL     1     -12.968 -22.073   3.222  0.00  0.00    +0.000 A 
ATOM     28  C   UNL     1     -10.185 -19.195   5.040  0.00  0.00    +0.000 A 
ATOM     29  C   UNL     1      -9.456 -18.138   4.485  0.00  0.00    +0.000 A 
ENDROOT
BRANCH  11  30
ATOM     30  O   UNL     1     -14.403 -19.750  -3.500  0.00  0.00    +0.000 OA
ATOM     31  H   UNL     1     -14.519 -20.702  -3.314  0.00  0.00    +0.000 HD
ENDBRANCH  11  30
BRANCH  16  32
ATOM     32  O   UNL     1     -17.129 -18.866  -4.337  0.00  0.00    +0.000 OA
ATOM     33  H   UNL     1     -16.155 -18.926  -4.324  0.00  0.00    +0.000 HD
ENDBRANCH  16  32
BRANCH  28  34
ATOM     34  O   UNL     1      -9.748 -19.729   6.219  0.00  0.00    +0.000 OA
ATOM     35  H   UNL     1      -8.776 -19.672   6.221  0.00  0.00    +0.000 HD
ENDBRANCH  28  34
TORSDOF 3
ENDMDL
MODEL 6
REMARK VINA RESULT:      -6.5      9.314     12.602
REMARK  Name = 14132199_RiccardinD.pdbqt.pdb
REMARK  3 active torsions:
REMARK  status: ('A' for Active; 'I' for Inactive)
REMARK    1  A    between atoms: C_11  and  O_30
REMARK    2  A    between atoms: C_16  and  O_32
REMARK    3  A    between atoms: C_28  and  O_34
REMARK                            x       y       z     vdW  Elec       q    Type
REMARK                         _______ _______ _______ _____ _____    ______ ____
ROOT
ATOM      1  O   UNL     1     -18.945 -22.364  -1.246  0.00  0.00    +0.000 OA
ATOM      2  C   UNL     1     -13.401 -19.981   2.210  0.00  0.00    +0.000 C 
ATOM      3  C   UNL     1     -12.292 -19.110   2.471  0.00  0.00    +0.000 A 
ATOM      4  C   UNL     1     -11.948 -18.058   1.583  0.00  0.00    +0.000 A 
ATOM      5  C   UNL     1     -14.633 -20.805   1.800  0.00  0.00    +0.000 C 
ATOM      6  C   UNL     1     -15.361 -18.145  -2.891  0.00  0.00    +0.000 C 
ATOM      7  C   UNL     1     -12.646 -17.900   0.287  0.00  0.00    +0.000 A 
ATOM      8  C   UNL     1     -14.259 -17.897  -2.021  0.00  0.00    +0.000 A 
ATOM      9  C   UNL     1     -16.636 -18.778  -3.454  0.00  0.00    +0.000 C 
ATOM     10  C   UNL     1     -15.791 -21.429   1.249  0.00  0.00    +0.000 A 
ATOM     11  C   UNL     1     -13.465 -16.805  -0.027  0.00  0.00    +0.000 A 
ATOM     12  C   UNL     1     -17.739 -19.673  -3.496  0.00  0.00    +0.000 A 
ATOM     13  C   UNL     1     -12.570 -18.938  -0.652  0.00  0.00    +0.000 A 
ATOM     14  C   UNL     1     -14.284 -16.806  -1.158  0.00  0.00    +0.000 A 
ATOM     15  C   UNL     1     -13.372 -18.945  -1.790  0.00  0.00    +0.000 A 
ATOM     16  C   UNL     1     -10.911 -17.196   1.986  0.00  0.00    +0.000 A 
ATOM     17  C   UNL     1     -11.590 -19.303   3.663  0.00  0.00    +0.000 A 
ATOM     18  C   UNL     1     -10.201 -17.405   3.168  0.00  0.00    +0.000 A 
ATOM     19  C   UNL     1     -10.535 -18.465   4.003  0.00  0.00    +0.000 A 
ATOM     20  C   UNL     1     -17.835 -20.546  -2.418  0.00  0.00    +0.000 A 
ATOM     21  C   UNL     1     -15.644 -22.450   0.309  0.00  0.00    +0.000 A 
ATOM     22  C   UNL     1     -17.048 -20.872   1.489  0.00  0.00    +0.000 A 
ATOM     23  C   UNL     1     -18.850 -21.491  -2.318  0.00  0.00    +0.000 A 
ATOM     24  C   UNL     1     -18.680 -19.729  -4.514  0.00  0.00    +0.000 A 
ATOM     25  C   UNL     1     -17.962 -22.211  -0.286  0.00  0.00    +0.000 A 
ATOM     26  C   UNL     1     -16.735 -22.854  -0.456  0.00  0.00    +0.000 A 
ATOM     27  C   UNL     1     -18.145 -21.270   0.728  0.00  0.00    +0.000 A 
ATOM     28  C   UNL     1     -19.791 -21.547  -3.339  0.00  0.00    +0.000 A 
ATOM     29  C   UNL     1     -19.711 -20.674  -4.430  0.00  0.00    +0.000 A 
ENDROOT
BRANCH  11  30
ATOM     30  O   UNL     1     -13.477 -15.716   0.804  0.00  0.00    +0.000 OA
ATOM     31  H   UNL     1     -14.068 -15.043   0.414  0.00  0.00    +0.000 HD
ENDBRANCH  11  30
BRANCH  16  32
ATOM     32  O   UNL     1     -10.551 -16.094   1.257  0.00  0.00    +0.000 OA
ATOM     33  H   UNL     1     -10.881 -16.236   0.350  0.00  0.00    +0.000 HD
ENDBRANCH  16  32
BRANCH  28  34
ATOM     34  O   UNL     1     -20.818 -22.448  -3.311  0.00  0.00    +0.000 OA
ATOM     35  H   UNL     1     -20.422 -23.337  -3.274  0.00  0.00    +0.000 HD
ENDBRANCH  28  34
TORSDOF 3
ENDMDL
MODEL 7
REMARK VINA RESULT:      -6.5     15.590     18.189
REMARK  Name = 14132199_RiccardinD.pdbqt.pdb
REMARK  3 active torsions:
REMARK  status: ('A' for Active; 'I' for Inactive)
REMARK    1  A    between atoms: C_11  and  O_30
REMARK    2  A    between atoms: C_16  and  O_32
REMARK    3  A    between atoms: C_28  and  O_34
REMARK                            x       y       z     vdW  Elec       q    Type
REMARK                         _______ _______ _______ _____ _____    ______ ____
ROOT
ATOM      1  O   UNL     1     -10.510 -16.302 -17.980  0.00  0.00    +0.000 OA
ATOM      2  C   UNL     1      -4.203 -16.952 -15.123  0.00  0.00    +0.000 C 
ATOM      3  C   UNL     1      -2.893 -17.509 -14.948  0.00  0.00    +0.000 A 
ATOM      4  C   UNL     1      -2.448 -18.619 -15.712  0.00  0.00    +0.000 A 
ATOM      5  C   UNL     1      -5.622 -16.461 -15.451  0.00  0.00    +0.000 C 
ATOM      6  C   UNL     1      -6.587 -20.393 -19.087  0.00  0.00    +0.000 C 
ATOM      7  C   UNL     1      -3.369 -19.325 -16.630  0.00  0.00    +0.000 A 
ATOM      8  C   UNL     1      -5.394 -20.331 -18.309  0.00  0.00    +0.000 A 
ATOM      9  C   UNL     1      -7.977 -20.038 -19.621  0.00  0.00    +0.000 C 
ATOM     10  C   UNL     1      -6.939 -16.161 -15.913  0.00  0.00    +0.000 A 
ATOM     11  C   UNL     1      -3.217 -19.340 -18.024  0.00  0.00    +0.000 A 
ATOM     12  C   UNL     1      -9.189 -19.302 -19.716  0.00  0.00    +0.000 A 
ATOM     13  C   UNL     1      -4.513 -19.939 -16.100  0.00  0.00    +0.000 A 
ATOM     14  C   UNL     1      -4.226 -19.817 -18.864  0.00  0.00    +0.000 A 
ATOM     15  C   UNL     1      -5.520 -20.429 -16.926  0.00  0.00    +0.000 A 
ATOM     16  C   UNL     1      -1.110 -19.017 -15.538  0.00  0.00    +0.000 A 
ATOM     17  C   UNL     1      -2.047 -16.882 -14.030  0.00  0.00    +0.000 A 
ATOM     18  C   UNL     1      -0.275 -18.400 -14.606  0.00  0.00    +0.000 A 
ATOM     19  C   UNL     1      -0.747 -17.337 -13.845  0.00  0.00    +0.000 A 
ATOM     20  C   UNL     1      -9.284 -18.206 -18.865  0.00  0.00    +0.000 A 
ATOM     21  C   UNL     1      -8.033 -16.818 -15.349  0.00  0.00    +0.000 A 
ATOM     22  C   UNL     1      -7.101 -15.383 -17.060  0.00  0.00    +0.000 A 
ATOM     23  C   UNL     1     -10.412 -17.393 -18.829  0.00  0.00    +0.000 A 
ATOM     24  C   UNL     1     -10.242 -19.610 -20.564  0.00  0.00    +0.000 A 
ATOM     25  C   UNL     1      -9.398 -16.083 -17.188  0.00  0.00    +0.000 A 
ATOM     26  C   UNL     1      -9.274 -16.771 -15.980  0.00  0.00    +0.000 A 
ATOM     27  C   UNL     1      -8.339 -15.332 -17.698  0.00  0.00    +0.000 A 
ATOM     28  C   UNL     1     -11.466 -17.703 -19.680  0.00  0.00    +0.000 A 
ATOM     29  C   UNL     1     -11.386 -18.801 -20.543  0.00  0.00    +0.000 A 
ENDROOT
BRANCH  11  30
ATOM     30  O   UNL     1      -2.060 -18.860 -18.579  0.00  0.00    +0.000 OA
ATOM     31  H   UNL     1      -1.586 -18.346 -17.896  0.00  0.00    +0.000 HD
ENDBRANCH  11  30
BRANCH  16  32
ATOM     32  O   UNL     1      -0.541 -20.015 -16.283  0.00  0.00    +0.000 OA
ATOM     33  H   UNL     1      -1.188 -20.746 -16.315  0.00  0.00    +0.000 HD
ENDBRANCH  16  32
BRANCH  28  34
ATOM     34  O   UNL     1     -12.606 -16.950 -19.701  0.00  0.00    +0.000 OA
ATOM     35  H   UNL     1     -12.391 -16.086 -19.306  0.00  0.00    +0.000 HD
ENDBRANCH  28  34
TORSDOF 3
ENDMDL
MODEL 8
REMARK VINA RESULT:      -6.4      8.594     12.031
REMARK  Name = 14132199_RiccardinD.pdbqt.pdb
REMARK  3 active torsions:
REMARK  status: ('A' for Active; 'I' for Inactive)
REMARK    1  A    between atoms: C_11  and  O_30
REMARK    2  A    between atoms: C_16  and  O_32
REMARK    3  A    between atoms: C_28  and  O_34
REMARK                            x       y       z     vdW  Elec       q    Type
REMARK                         _______ _______ _______ _____ _____    ______ ____
ROOT
ATOM      1  O   UNL     1     -16.559 -24.048   1.819  0.00  0.00    +0.000 OA
ATOM      2  C   UNL     1     -12.094 -18.765   2.539  0.00  0.00    +0.000 C 
ATOM      3  C   UNL     1     -11.509 -17.490   2.236  0.00  0.00    +0.000 A 
ATOM      4  C   UNL     1     -11.971 -16.698   1.153  0.00  0.00    +0.000 A 
ATOM      5  C   UNL     1     -12.846 -20.090   2.744  0.00  0.00    +0.000 C 
ATOM      6  C   UNL     1     -16.033 -19.437  -1.617  0.00  0.00    +0.000 C 
ATOM      7  C   UNL     1     -12.992 -17.217   0.215  0.00  0.00    +0.000 A 
ATOM      8  C   UNL     1     -14.987 -18.529  -1.277  0.00  0.00    +0.000 A 
ATOM      9  C   UNL     1     -16.954 -20.657  -1.559  0.00  0.00    +0.000 C 
ATOM     10  C   UNL     1     -13.671 -21.253   2.768  0.00  0.00    +0.000 A 
ATOM     11  C   UNL     1     -14.283 -16.681   0.097  0.00  0.00    +0.000 A 
ATOM     12  C   UNL     1     -17.462 -21.886  -1.056  0.00  0.00    +0.000 A 
ATOM     13  C   UNL     1     -12.700 -18.365  -0.535  0.00  0.00    +0.000 A 
ATOM     14  C   UNL     1     -15.283 -17.337  -0.624  0.00  0.00    +0.000 A 
ATOM     15  C   UNL     1     -13.685 -19.022  -1.267  0.00  0.00    +0.000 A 
ATOM     16  C   UNL     1     -11.401 -15.420   1.010  0.00  0.00    +0.000 A 
ATOM     17  C   UNL     1     -10.497 -17.032   3.082  0.00  0.00    +0.000 A 
ATOM     18  C   UNL     1     -10.378 -14.974   1.846  0.00  0.00    +0.000 A 
ATOM     19  C   UNL     1      -9.919 -15.785   2.877  0.00  0.00    +0.000 A 
ATOM     20  C   UNL     1     -16.825 -22.368   0.082  0.00  0.00    +0.000 A 
ATOM     21  C   UNL     1     -13.328 -22.358   1.987  0.00  0.00    +0.000 A 
ATOM     22  C   UNL     1     -14.917 -21.196   3.395  0.00  0.00    +0.000 A 
ATOM     23  C   UNL     1     -17.195 -23.563   0.687  0.00  0.00    +0.000 A 
ATOM     24  C   UNL     1     -18.506 -22.605  -1.619  0.00  0.00    +0.000 A 
ATOM     25  C   UNL     1     -15.542 -23.244   2.301  0.00  0.00    +0.000 A 
ATOM     26  C   UNL     1     -14.261 -23.367   1.760  0.00  0.00    +0.000 A 
ATOM     27  C   UNL     1     -15.856 -22.201   3.172  0.00  0.00    +0.000 A 
ATOM     28  C   UNL     1     -18.241 -24.284   0.122  0.00  0.00    +0.000 A 
ATOM     29  C   UNL     1     -18.894 -23.811  -1.022  0.00  0.00    +0.000 A 
ENDROOT
BRANCH  11  30
ATOM     30  O   UNL     1     -14.576 -15.494   0.716  0.00  0.00    +0.000 OA
ATOM     31  H   UNL     1     -14.828 -14.848   0.029  0.00  0.00    +0.000 HD
ENDBRANCH  11  30
BRANCH  16  32
ATOM     32  O   UNL     1     -11.829 -14.531   0.059  0.00  0.00    +0.000 OA
ATOM     33  H   UNL     1     -11.271 -14.673  -0.729  0.00  0.00    +0.000 HD
ENDBRANCH  16  32
BRANCH  28  34
ATOM     34  O   UNL     1     -18.662 -25.467   0.661  0.00  0.00    +0.000 OA
ATOM     35  H   UNL     1     -18.225 -25.563   1.527  0.00  0.00    +0.000 HD
ENDBRANCH  28  34
TORSDOF 3
ENDMDL
MODEL 9
REMARK VINA RESULT:      -6.3     20.124     23.239
REMARK  Name = 14132199_RiccardinD.pdbqt.pdb
REMARK  3 active torsions:
REMARK  status: ('A' for Active; 'I' for Inactive)
REMARK    1  A    between atoms: C_11  and  O_30
REMARK    2  A    between atoms: C_16  and  O_32
REMARK    3  A    between atoms: C_28  and  O_34
REMARK                            x       y       z     vdW  Elec       q    Type
REMARK                         _______ _______ _______ _____ _____    ______ ____
ROOT
ATOM      1  O   UNL     1      -0.482 -40.092  -7.548  0.00  0.00    +0.000 OA
ATOM      2  C   UNL     1      -5.019 -36.540  -3.654  0.00  0.00    +0.000 C 
ATOM      3  C   UNL     1      -5.880 -35.444  -3.313  0.00  0.00    +0.000 A 
ATOM      4  C   UNL     1      -5.972 -34.288  -4.130  0.00  0.00    +0.000 A 
ATOM      5  C   UNL     1      -4.072 -37.633  -4.175  0.00  0.00    +0.000 C 
ATOM      6  C   UNL     1      -2.404 -34.723  -8.460  0.00  0.00    +0.000 C 
ATOM      7  C   UNL     1      -5.084 -34.115  -5.301  0.00  0.00    +0.000 A 
ATOM      8  C   UNL     1      -3.286 -34.206  -7.467  0.00  0.00    +0.000 A 
ATOM      9  C   UNL     1      -1.473 -35.691  -9.195  0.00  0.00    +0.000 C 
ATOM     10  C   UNL     1      -3.163 -38.514  -4.833  0.00  0.00    +0.000 A 
ATOM     11  C   UNL     1      -5.541 -34.093  -6.627  0.00  0.00    +0.000 A 
ATOM     12  C   UNL     1      -0.755 -36.898  -9.414  0.00  0.00    +0.000 A 
ATOM     13  C   UNL     1      -3.698 -34.060  -5.097  0.00  0.00    +0.000 A 
ATOM     14  C   UNL     1      -4.656 -34.161  -7.706  0.00  0.00    +0.000 A 
ATOM     15  C   UNL     1      -2.806 -34.115  -6.164  0.00  0.00    +0.000 A 
ATOM     16  C   UNL     1      -6.926 -33.321  -3.761  0.00  0.00    +0.000 A 
ATOM     17  C   UNL     1      -6.669 -35.581  -2.168  0.00  0.00    +0.000 A 
ATOM     18  C   UNL     1      -7.697 -33.453  -2.607  0.00  0.00    +0.000 A 
ATOM     19  C   UNL     1      -7.561 -34.580  -1.804  0.00  0.00    +0.000 A 
ATOM     20  C   UNL     1      -0.942 -37.881  -8.448  0.00  0.00    +0.000 A 
ATOM     21  C   UNL     1      -1.794 -38.399  -4.592  0.00  0.00    +0.000 A 
ATOM     22  C   UNL     1      -3.628 -39.331  -5.865  0.00  0.00    +0.000 A 
ATOM     23  C   UNL     1      -0.300 -39.112  -8.511  0.00  0.00    +0.000 A 
ATOM     24  C   UNL     1       0.093 -37.136 -10.485  0.00  0.00    +0.000 A 
ATOM     25  C   UNL     1      -1.357 -39.751  -6.533  0.00  0.00    +0.000 A 
ATOM     26  C   UNL     1      -0.883 -39.028  -5.437  0.00  0.00    +0.000 A 
ATOM     27  C   UNL     1      -2.724 -39.964  -6.715  0.00  0.00    +0.000 A 
ATOM     28  C   UNL     1       0.550 -39.350  -9.585  0.00  0.00    +0.000 A 
ATOM     29  C   UNL     1       0.747 -38.372 -10.567  0.00  0.00    +0.000 A 
ENDROOT
BRANCH  11  30
ATOM     30  O   UNL     1      -6.887 -34.023  -6.872  0.00  0.00    +0.000 OA
ATOM     31  H   UNL     1      -7.305 -34.825  -6.505  0.00  0.00    +0.000 HD
ENDBRANCH  11  30
BRANCH  16  32
ATOM     32  O   UNL     1      -7.169 -32.207  -4.520  0.00  0.00    +0.000 OA
ATOM     33  H   UNL     1      -6.937 -32.437  -5.440  0.00  0.00    +0.000 HD
ENDBRANCH  16  32
BRANCH  28  34
ATOM     34  O   UNL     1       1.214 -40.536  -9.716  0.00  0.00    +0.000 OA
ATOM     35  H   UNL     1       1.994 -40.372 -10.277  0.00  0.00    +0.000 HD
ENDBRANCH  28  34
TORSDOF 3
ENDMDL
