MODEL 1
REMARK VINA RESULT:      -4.0      0.000      0.000
REMARK  Name = 146026348_FluorouracilMononitrate.pdbqt.pdb
REMARK  2 active torsions:
REMARK  status: ('A' for Active; 'I' for Inactive)
REMARK    1  A    between atoms: N_4  and  O_10
REMARK    2  A    between atoms: O_10  and  N_13
REMARK                            x       y       z     vdW  Elec       q    Type
REMARK                         _______ _______ _______ _____ _____    ______ ____
ROOT
ATOM      1  F   UNL     1      -3.848 -37.944  -6.809  0.00  0.00    +0.000 F 
ATOM      2  O   UNL     1      -3.824 -35.460  -8.090  0.00  0.00    +0.000 OA
ATOM      3  O   UNL     1      -2.258 -33.642  -4.075  0.00  0.00    +0.000 OA
ATOM      4  N   UNL     1      -3.194 -34.482  -6.059  0.00  0.00    +0.000 N 
ATOM      5  N   UNL     1      -3.600 -36.795  -6.162  0.00  0.00    +0.000 N 
ATOM      6  C   UNL     1      -3.577 -35.570  -6.892  0.00  0.00    +0.000 A 
ATOM      7  C   UNL     1      -2.735 -34.546  -4.742  0.00  0.00    +0.000 A 
ATOM      8  C   UNL     1      -2.843 -35.894  -4.235  0.00  0.00    +0.000 A 
ATOM      9  C   UNL     1      -3.217 -36.831  -4.872  0.00  0.00    +0.000 A 
ENDROOT
BRANCH   4  10
ATOM     10  O   UNL     1      -3.051 -33.242  -6.707  0.00  0.00    +0.000 OA
BRANCH  10  13
ATOM     11  O   UNL     1      -5.113 -32.780  -5.935  0.00  0.00    +0.000 OA
ATOM     12  O   UNL     1      -4.204 -31.559  -7.573  0.00  0.00    +0.000 OA
ATOM     13  N   UNL     1      -4.233 -32.461  -6.739  0.00  0.00    +0.000 N 
ENDBRANCH  10  13
ENDBRANCH   4  10
TORSDOF 2
ENDMDL
MODEL 2
REMARK VINA RESULT:      -3.7     30.428     31.517
REMARK  Name = 146026348_FluorouracilMononitrate.pdbqt.pdb
REMARK  2 active torsions:
REMARK  status: ('A' for Active; 'I' for Inactive)
REMARK    1  A    between atoms: N_4  and  O_10
REMARK    2  A    between atoms: O_10  and  N_13
REMARK                            x       y       z     vdW  Elec       q    Type
REMARK                         _______ _______ _______ _____ _____    ______ ____
ROOT
ATOM      1  F   UNL     1     -11.420  -6.296  -3.943  0.00  0.00    +0.000 F 
ATOM      2  O   UNL     1     -14.113  -6.231  -3.201  0.00  0.00    +0.000 OA
ATOM      3  O   UNL     1     -15.094  -5.153  -7.645  0.00  0.00    +0.000 OA
ATOM      4  N   UNL     1     -14.637  -5.533  -5.372  0.00  0.00    +0.000 N 
ATOM      5  N   UNL     1     -12.392  -5.881  -4.769  0.00  0.00    +0.000 N 
ATOM      6  C   UNL     1     -13.747  -5.905  -4.326  0.00  0.00    +0.000 A 
ATOM      7  C   UNL     1     -14.321  -5.317  -6.715  0.00  0.00    +0.000 A 
ATOM      8  C   UNL     1     -12.891  -5.360  -6.910  0.00  0.00    +0.000 A 
ATOM      9  C   UNL     1     -12.096  -5.605  -6.054  0.00  0.00    +0.000 A 
ENDROOT
BRANCH   4  10
ATOM     10  O   UNL     1     -16.007  -5.615  -5.062  0.00  0.00    +0.000 OA
BRANCH  10  13
ATOM     11  O   UNL     1     -17.614  -4.189  -5.725  0.00  0.00    +0.000 OA
ATOM     12  O   UNL     1     -16.172  -3.620  -4.113  0.00  0.00    +0.000 OA
ATOM     13  N   UNL     1     -16.658  -4.361  -4.964  0.00  0.00    +0.000 N 
ENDBRANCH  10  13
ENDBRANCH   4  10
TORSDOF 2
ENDMDL
MODEL 3
REMARK VINA RESULT:      -3.5     20.346     21.154
REMARK  Name = 146026348_FluorouracilMononitrate.pdbqt.pdb
REMARK  2 active torsions:
REMARK  status: ('A' for Active; 'I' for Inactive)
REMARK    1  A    between atoms: N_4  and  O_10
REMARK    2  A    between atoms: O_10  and  N_13
REMARK                            x       y       z     vdW  Elec       q    Type
REMARK                         _______ _______ _______ _____ _____    ______ ____
ROOT
ATOM      1  F   UNL     1       3.402 -15.134  -6.458  0.00  0.00    +0.000 F 
ATOM      2  O   UNL     1       1.411 -15.699  -4.580  0.00  0.00    +0.000 OA
ATOM      3  O   UNL     1      -1.532 -13.269  -7.283  0.00  0.00    +0.000 OA
ATOM      4  N   UNL     1      -0.057 -14.359  -5.816  0.00  0.00    +0.000 N 
ATOM      5  N   UNL     1       2.176 -14.591  -6.512  0.00  0.00    +0.000 N 
ATOM      6  C   UNL     1       1.206 -14.952  -5.533  0.00  0.00    +0.000 A 
ATOM      7  C   UNL     1      -0.417 -13.644  -6.959  0.00  0.00    +0.000 A 
ATOM      8  C   UNL     1       0.736 -13.422  -7.801  0.00  0.00    +0.000 A 
ATOM      9  C   UNL     1       1.830 -13.844  -7.577  0.00  0.00    +0.000 A 
ENDROOT
BRANCH   4  10
ATOM     10  O   UNL     1      -1.108 -14.729  -4.958  0.00  0.00    +0.000 OA
BRANCH  10  13
ATOM     11  O   UNL     1      -0.421 -13.001  -3.693  0.00  0.00    +0.000 OA
ATOM     12  O   UNL     1      -2.309 -14.096  -3.207  0.00  0.00    +0.000 OA
ATOM     13  N   UNL     1      -1.290 -13.863  -3.852  0.00  0.00    +0.000 N 
ENDBRANCH  10  13
ENDBRANCH   4  10
TORSDOF 2
ENDMDL
MODEL 4
REMARK VINA RESULT:      -3.4      1.793      2.344
REMARK  Name = 146026348_FluorouracilMononitrate.pdbqt.pdb
REMARK  2 active torsions:
REMARK  status: ('A' for Active; 'I' for Inactive)
REMARK    1  A    between atoms: N_4  and  O_10
REMARK    2  A    between atoms: O_10  and  N_13
REMARK                            x       y       z     vdW  Elec       q    Type
REMARK                         _______ _______ _______ _____ _____    ______ ____
ROOT
ATOM      1  F   UNL     1      -4.487 -37.706  -6.152  0.00  0.00    +0.000 F 
ATOM      2  O   UNL     1      -2.870 -35.644  -7.125  0.00  0.00    +0.000 OA
ATOM      3  O   UNL     1      -6.050 -32.648  -5.456  0.00  0.00    +0.000 OA
ATOM      4  N   UNL     1      -4.509 -34.116  -6.450  0.00  0.00    +0.000 N 
ATOM      5  N   UNL     1      -4.867 -36.419  -6.147  0.00  0.00    +0.000 N 
ATOM      6  C   UNL     1      -3.973 -35.421  -6.634  0.00  0.00    +0.000 A 
ATOM      7  C   UNL     1      -5.667 -33.768  -5.753  0.00  0.00    +0.000 A 
ATOM      8  C   UNL     1      -6.388 -34.952  -5.349  0.00  0.00    +0.000 A 
ATOM      9  C   UNL     1      -6.015 -36.070  -5.534  0.00  0.00    +0.000 A 
ENDROOT
BRANCH   4  10
ATOM     10  O   UNL     1      -3.661 -33.054  -6.815  0.00  0.00    +0.000 OA
BRANCH  10  13
ATOM     11  O   UNL     1      -4.050 -31.104  -7.864  0.00  0.00    +0.000 OA
ATOM     12  O   UNL     1      -4.432 -33.053  -8.892  0.00  0.00    +0.000 OA
ATOM     13  N   UNL     1      -4.089 -32.333  -7.957  0.00  0.00    +0.000 N 
ENDBRANCH  10  13
ENDBRANCH   4  10
TORSDOF 2
ENDMDL
MODEL 5
REMARK VINA RESULT:      -3.4     10.914     12.474
REMARK  Name = 146026348_FluorouracilMononitrate.pdbqt.pdb
REMARK  2 active torsions:
REMARK  status: ('A' for Active; 'I' for Inactive)
REMARK    1  A    between atoms: N_4  and  O_10
REMARK    2  A    between atoms: O_10  and  N_13
REMARK                            x       y       z     vdW  Elec       q    Type
REMARK                         _______ _______ _______ _____ _____    ______ ____
ROOT
ATOM      1  F   UNL     1       6.083 -29.652   2.733  0.00  0.00    +0.000 F 
ATOM      2  O   UNL     1       6.029 -32.299   3.628  0.00  0.00    +0.000 OA
ATOM      3  O   UNL     1       2.235 -32.901   0.959  0.00  0.00    +0.000 OA
ATOM      4  N   UNL     1       4.038 -32.602   2.435  0.00  0.00    +0.000 N 
ATOM      5  N   UNL     1       5.077 -30.494   2.452  0.00  0.00    +0.000 N 
ATOM      6  C   UNL     1       5.136 -31.839   2.921  0.00  0.00    +0.000 A 
ATOM      7  C   UNL     1       3.082 -32.207   1.497  0.00  0.00    +0.000 A 
ATOM      8  C   UNL     1       3.244 -30.809   1.170  0.00  0.00    +0.000 A 
ATOM      9  C   UNL     1       4.110 -30.108   1.598  0.00  0.00    +0.000 A 
ENDROOT
BRANCH   4  10
ATOM     10  O   UNL     1       4.054 -33.969   2.766  0.00  0.00    +0.000 OA
BRANCH  10  13
ATOM     11  O   UNL     1       2.188 -35.144   3.204  0.00  0.00    +0.000 OA
ATOM     12  O   UNL     1       3.135 -33.871   4.780  0.00  0.00    +0.000 OA
ATOM     13  N   UNL     1       3.029 -34.365   3.660  0.00  0.00    +0.000 N 
ENDBRANCH  10  13
ENDBRANCH   4  10
TORSDOF 2
ENDMDL
MODEL 6
REMARK VINA RESULT:      -3.3     19.089     19.697
REMARK  Name = 146026348_FluorouracilMononitrate.pdbqt.pdb
REMARK  2 active torsions:
REMARK  status: ('A' for Active; 'I' for Inactive)
REMARK    1  A    between atoms: N_4  and  O_10
REMARK    2  A    between atoms: O_10  and  N_13
REMARK                            x       y       z     vdW  Elec       q    Type
REMARK                         _______ _______ _______ _____ _____    ______ ____
ROOT
ATOM      1  F   UNL     1      -0.593 -15.882 -13.695  0.00  0.00    +0.000 F 
ATOM      2  O   UNL     1      -3.283 -16.559 -13.356  0.00  0.00    +0.000 OA
ATOM      3  O   UNL     1      -2.717 -19.667 -16.805  0.00  0.00    +0.000 OA
ATOM      4  N   UNL     1      -3.090 -18.010 -15.182  0.00  0.00    +0.000 N 
ATOM      5  N   UNL     1      -1.242 -16.716 -14.522  0.00  0.00    +0.000 N 
ATOM      6  C   UNL     1      -2.608 -17.035 -14.265  0.00  0.00    +0.000 A 
ATOM      7  C   UNL     1      -2.348 -18.722 -16.127  0.00  0.00    +0.000 A 
ATOM      8  C   UNL     1      -0.994 -18.224 -16.184  0.00  0.00    +0.000 A 
ATOM      9  C   UNL     1      -0.556 -17.364 -15.482  0.00  0.00    +0.000 A 
ENDROOT
BRANCH   4  10
ATOM     10  O   UNL     1      -4.402 -18.462 -14.954  0.00  0.00    +0.000 OA
BRANCH  10  13
ATOM     11  O   UNL     1      -5.167 -16.808 -16.272  0.00  0.00    +0.000 OA
ATOM     12  O   UNL     1      -6.251 -18.760 -16.140  0.00  0.00    +0.000 OA
ATOM     13  N   UNL     1      -5.359 -17.959 -15.870  0.00  0.00    +0.000 N 
ENDBRANCH  10  13
ENDBRANCH   4  10
TORSDOF 2
ENDMDL
MODEL 7
REMARK VINA RESULT:      -3.2     18.621     19.571
REMARK  Name = 146026348_FluorouracilMononitrate.pdbqt.pdb
REMARK  2 active torsions:
REMARK  status: ('A' for Active; 'I' for Inactive)
REMARK    1  A    between atoms: N_4  and  O_10
REMARK    2  A    between atoms: O_10  and  N_13
REMARK                            x       y       z     vdW  Elec       q    Type
REMARK                         _______ _______ _______ _____ _____    ______ ____
ROOT
ATOM      1  F   UNL     1      -6.470 -16.404 -15.804  0.00  0.00    +0.000 F 
ATOM      2  O   UNL     1      -3.791 -15.642 -15.584  0.00  0.00    +0.000 OA
ATOM      3  O   UNL     1      -2.690 -20.171 -15.971  0.00  0.00    +0.000 OA
ATOM      4  N   UNL     1      -3.202 -17.907 -15.612  0.00  0.00    +0.000 N 
ATOM      5  N   UNL     1      -5.469 -17.291 -15.695  0.00  0.00    +0.000 N 
ATOM      6  C   UNL     1      -4.124 -16.823 -15.616  0.00  0.00    +0.000 A 
ATOM      7  C   UNL     1      -3.485 -19.259 -15.816  0.00  0.00    +0.000 A 
ATOM      8  C   UNL     1      -4.912 -19.472 -15.880  0.00  0.00    +0.000 A 
ATOM      9  C   UNL     1      -5.731 -18.605 -15.825  0.00  0.00    +0.000 A 
ENDROOT
BRANCH   4  10
ATOM     10  O   UNL     1      -1.842 -17.548 -15.630  0.00  0.00    +0.000 OA
BRANCH  10  13
ATOM     11  O   UNL     1      -1.559 -16.976 -13.473  0.00  0.00    +0.000 OA
ATOM     12  O   UNL     1      -0.315 -18.585 -14.404  0.00  0.00    +0.000 OA
ATOM     13  N   UNL     1      -1.179 -17.712 -14.388  0.00  0.00    +0.000 N 
ENDBRANCH  10  13
ENDBRANCH   4  10
TORSDOF 2
ENDMDL
MODEL 8
REMARK VINA RESULT:      -3.1     11.326     12.689
REMARK  Name = 146026348_FluorouracilMononitrate.pdbqt.pdb
REMARK  2 active torsions:
REMARK  status: ('A' for Active; 'I' for Inactive)
REMARK    1  A    between atoms: N_4  and  O_10
REMARK    2  A    between atoms: O_10  and  N_13
REMARK                            x       y       z     vdW  Elec       q    Type
REMARK                         _______ _______ _______ _____ _____    ______ ____
ROOT
ATOM      1  F   UNL     1       7.775 -33.399   3.199  0.00  0.00    +0.000 F 
ATOM      2  O   UNL     1       5.508 -32.889   1.646  0.00  0.00    +0.000 OA
ATOM      3  O   UNL     1       2.946 -34.122   5.360  0.00  0.00    +0.000 OA
ATOM      4  N   UNL     1       4.188 -33.650   3.423  0.00  0.00    +0.000 N 
ATOM      5  N   UNL     1       6.531 -33.687   3.612  0.00  0.00    +0.000 N 
ATOM      6  C   UNL     1       5.423 -33.370   2.773  0.00  0.00    +0.000 A 
ATOM      7  C   UNL     1       4.000 -34.032   4.753  0.00  0.00    +0.000 A 
ATOM      8  C   UNL     1       5.272 -34.277   5.392  0.00  0.00    +0.000 A 
ATOM      9  C   UNL     1       6.335 -34.118   4.872  0.00  0.00    +0.000 A 
ENDROOT
BRANCH   4  10
ATOM     10  O   UNL     1       3.031 -33.284   2.713  0.00  0.00    +0.000 OA
BRANCH  10  13
ATOM     11  O   UNL     1       2.778 -34.341   0.744  0.00  0.00    +0.000 OA
ATOM     12  O   UNL     1       1.747 -35.086   2.583  0.00  0.00    +0.000 OA
ATOM     13  N   UNL     1       2.468 -34.328   1.938  0.00  0.00    +0.000 N 
ENDBRANCH  10  13
ENDBRANCH   4  10
TORSDOF 2
ENDMDL
MODEL 9
REMARK VINA RESULT:      -3.1     10.646     11.469
REMARK  Name = 146026348_FluorouracilMononitrate.pdbqt.pdb
REMARK  2 active torsions:
REMARK  status: ('A' for Active; 'I' for Inactive)
REMARK    1  A    between atoms: N_4  and  O_10
REMARK    2  A    between atoms: O_10  and  N_13
REMARK                            x       y       z     vdW  Elec       q    Type
REMARK                         _______ _______ _______ _____ _____    ______ ____
ROOT
ATOM      1  F   UNL     1     -13.374 -38.363  -9.460  0.00  0.00    +0.000 F 
ATOM      2  O   UNL     1     -12.608 -37.874  -6.818  0.00  0.00    +0.000 OA
ATOM      3  O   UNL     1     -16.669 -35.618  -6.279  0.00  0.00    +0.000 OA
ATOM      4  N   UNL     1     -14.552 -36.600  -6.549  0.00  0.00    +0.000 N 
ATOM      5  N   UNL     1     -14.071 -37.565  -8.637  0.00  0.00    +0.000 N 
ATOM      6  C   UNL     1     -13.631 -37.389  -7.292  0.00  0.00    +0.000 A 
ATOM      7  C   UNL     1     -15.811 -36.157  -6.959  0.00  0.00    +0.000 A 
ATOM      8  C   UNL     1     -16.027 -36.471  -8.352  0.00  0.00    +0.000 A 
ATOM      9  C   UNL     1     -15.260 -37.076  -9.038  0.00  0.00    +0.000 A 
ENDROOT
BRANCH   4  10
ATOM     10  O   UNL     1     -14.255 -36.445  -5.182  0.00  0.00    +0.000 OA
BRANCH  10  13
ATOM     11  O   UNL     1     -14.454 -34.581  -3.939  0.00  0.00    +0.000 OA
ATOM     12  O   UNL     1     -12.825 -34.774  -5.459  0.00  0.00    +0.000 OA
ATOM     13  N   UNL     1     -13.810 -35.147  -4.826  0.00  0.00    +0.000 N 
ENDBRANCH  10  13
ENDBRANCH   4  10
TORSDOF 2
ENDMDL
