MODEL 1
REMARK VINA RESULT:      -6.9      0.000      0.000
REMARK  Name = 179268_Nortopsentin.pdbqt.pdb
REMARK  2 active torsions:
REMARK  status: ('A' for Active; 'I' for Inactive)
REMARK    1  A    between atoms: C_3  and  C_9
REMARK    2  A    between atoms: C_4  and  C_20
REMARK                            x       y       z     vdW  Elec       q    Type
REMARK                         _______ _______ _______ _____ _____    ______ ____
ROOT
ATOM      1  N   UNL     1      -5.785 -33.179  -5.470  0.00  0.00    +0.000 N 
ATOM      2  N   UNL     1      -4.870 -34.134  -3.697  0.00  0.00    +0.000 NA
ATOM      3  C   UNL     1      -4.464 -33.351  -5.780  0.00  0.00    +0.000 A 
ATOM      4  C   UNL     1      -5.990 -33.665  -4.203  0.00  0.00    +0.000 A 
ATOM      5  C   UNL     1      -3.915 -33.944  -4.666  0.00  0.00    +0.000 A 
ATOM      6  H   UNL     1      -6.494 -32.770  -6.058  0.00  0.00    +0.000 HD
ENDROOT
BRANCH   3   9
ATOM      7 BR   UNL     1      -0.338 -35.468 -11.361  0.00  0.00    +0.000 Br
ATOM      8  N   UNL     1      -3.100 -31.718  -8.733  0.00  0.00    +0.000 N 
ATOM      9  C   UNL     1      -3.787 -32.976  -7.038  0.00  0.00    +0.000 A 
ATOM     10  C   UNL     1      -3.003 -33.791  -7.903  0.00  0.00    +0.000 A 
ATOM     11  C   UNL     1      -2.585 -32.974  -8.959  0.00  0.00    +0.000 A 
ATOM     12  C   UNL     1      -3.827 -31.711  -7.576  0.00  0.00    +0.000 A 
ATOM     13  C   UNL     1      -2.602 -35.141  -7.902  0.00  0.00    +0.000 A 
ATOM     14  C   UNL     1      -1.787 -33.437 -10.011  0.00  0.00    +0.000 A 
ATOM     15  C   UNL     1      -1.807 -35.624  -8.942  0.00  0.00    +0.000 A 
ATOM     16  C   UNL     1      -1.412 -34.780  -9.972  0.00  0.00    +0.000 A 
ATOM     17  H   UNL     1      -2.962 -30.917  -9.334  0.00  0.00    +0.000 HD
ENDBRANCH   3   9
BRANCH   4  20
ATOM     18 BR   UNL     1      -9.786 -31.344   1.517  0.00  0.00    +0.000 Br
ATOM     19  N   UNL     1      -9.433 -34.084  -3.062  0.00  0.00    +0.000 N 
ATOM     20  C   UNL     1      -7.300 -33.660  -3.505  0.00  0.00    +0.000 A 
ATOM     21  C   UNL     1      -7.636 -33.009  -2.285  0.00  0.00    +0.000 A 
ATOM     22  C   UNL     1      -8.980 -33.293  -2.031  0.00  0.00    +0.000 A 
ATOM     23  C   UNL     1      -8.424 -34.312  -3.959  0.00  0.00    +0.000 A 
ATOM     24  C   UNL     1      -6.931 -32.205  -1.368  0.00  0.00    +0.000 A 
ATOM     25  C   UNL     1      -9.659 -32.814  -0.907  0.00  0.00    +0.000 A 
ATOM     26  C   UNL     1      -7.590 -31.718  -0.237  0.00  0.00    +0.000 A 
ATOM     27  C   UNL     1      -8.928 -32.022  -0.021  0.00  0.00    +0.000 A 
ATOM     28  H   UNL     1     -10.375 -34.443  -3.143  0.00  0.00    +0.000 HD
ENDBRANCH   4  20
TORSDOF 2
ENDMDL
MODEL 2
REMARK VINA RESULT:      -6.6      1.525      9.243
REMARK  Name = 179268_Nortopsentin.pdbqt.pdb
REMARK  2 active torsions:
REMARK  status: ('A' for Active; 'I' for Inactive)
REMARK    1  A    between atoms: C_3  and  C_9
REMARK    2  A    between atoms: C_4  and  C_20
REMARK                            x       y       z     vdW  Elec       q    Type
REMARK                         _______ _______ _______ _____ _____    ______ ____
ROOT
ATOM      1  N   UNL     1      -4.877 -33.987  -5.805  0.00  0.00    +0.000 N 
ATOM      2  N   UNL     1      -6.109 -34.937  -7.378  0.00  0.00    +0.000 NA
ATOM      3  C   UNL     1      -5.970 -34.498  -5.163  0.00  0.00    +0.000 A 
ATOM      4  C   UNL     1      -4.997 -34.272  -7.142  0.00  0.00    +0.000 A 
ATOM      5  C   UNL     1      -6.721 -35.083  -6.157  0.00  0.00    +0.000 A 
ATOM      6  H   UNL     1      -4.109 -33.486  -5.384  0.00  0.00    +0.000 HD
ENDROOT
BRANCH   3   9
ATOM      7 BR   UNL     1      -9.625 -31.212   0.174  0.00  0.00    +0.000 Br
ATOM      8  N   UNL     1      -6.203 -34.937  -1.558  0.00  0.00    +0.000 N 
ATOM      9  C   UNL     1      -6.267 -34.431  -3.718  0.00  0.00    +0.000 A 
ATOM     10  C   UNL     1      -7.135 -33.537  -3.028  0.00  0.00    +0.000 A 
ATOM     11  C   UNL     1      -7.074 -33.879  -1.673  0.00  0.00    +0.000 A 
ATOM     12  C   UNL     1      -5.712 -35.277  -2.787  0.00  0.00    +0.000 A 
ATOM     13  C   UNL     1      -7.969 -32.469  -3.413  0.00  0.00    +0.000 A 
ATOM     14  C   UNL     1      -7.802 -33.208  -0.684  0.00  0.00    +0.000 A 
ATOM     15  C   UNL     1      -8.705 -31.787  -2.444  0.00  0.00    +0.000 A 
ATOM     16  C   UNL     1      -8.616 -32.157  -1.107  0.00  0.00    +0.000 A 
ATOM     17  H   UNL     1      -5.960 -35.398  -0.691  0.00  0.00    +0.000 HD
ENDBRANCH   3   9
BRANCH   4  20
ATOM     18 BR   UNL     1       0.986 -36.122 -10.787  0.00  0.00    +0.000 Br
ATOM     19  N   UNL     1      -2.978 -32.690  -9.740  0.00  0.00    +0.000 N 
ATOM     20  C   UNL     1      -4.006 -33.882  -8.177  0.00  0.00    +0.000 A 
ATOM     21  C   UNL     1      -2.876 -34.621  -8.623  0.00  0.00    +0.000 A 
ATOM     22  C   UNL     1      -2.249 -33.849  -9.604  0.00  0.00    +0.000 A 
ATOM     23  C   UNL     1      -4.043 -32.700  -8.880  0.00  0.00    +0.000 A 
ATOM     24  C   UNL     1      -2.320 -35.873  -8.293  0.00  0.00    +0.000 A 
ATOM     25  C   UNL     1      -1.094 -34.262 -10.275  0.00  0.00    +0.000 A 
ATOM     26  C   UNL     1      -1.166 -36.304  -8.949  0.00  0.00    +0.000 A 
ATOM     27  C   UNL     1      -0.573 -35.507  -9.919  0.00  0.00    +0.000 A 
ATOM     28  H   UNL     1      -2.757 -31.941 -10.382  0.00  0.00    +0.000 HD
ENDBRANCH   4  20
TORSDOF 2
ENDMDL
MODEL 3
REMARK VINA RESULT:      -6.6      4.529      6.147
REMARK  Name = 179268_Nortopsentin.pdbqt.pdb
REMARK  2 active torsions:
REMARK  status: ('A' for Active; 'I' for Inactive)
REMARK    1  A    between atoms: C_3  and  C_9
REMARK    2  A    between atoms: C_4  and  C_20
REMARK                            x       y       z     vdW  Elec       q    Type
REMARK                         _______ _______ _______ _____ _____    ______ ____
ROOT
ATOM      1  N   UNL     1      -4.621 -35.735  -3.049  0.00  0.00    +0.000 N 
ATOM      2  N   UNL     1      -4.078 -33.789  -3.949  0.00  0.00    +0.000 NA
ATOM      3  C   UNL     1      -3.273 -35.790  -3.268  0.00  0.00    +0.000 A 
ATOM      4  C   UNL     1      -5.071 -34.510  -3.474  0.00  0.00    +0.000 A 
ATOM      5  C   UNL     1      -2.956 -34.573  -3.827  0.00  0.00    +0.000 A 
ATOM      6  H   UNL     1      -5.197 -36.458  -2.647  0.00  0.00    +0.000 HD
ENDROOT
BRANCH   3   9
ATOM      7 BR   UNL     1      -0.926 -40.600   1.631  0.00  0.00    +0.000 Br
ATOM      8  N   UNL     1      -0.810 -38.469  -3.271  0.00  0.00    +0.000 N 
ATOM      9  C   UNL     1      -2.366 -36.916  -2.967  0.00  0.00    +0.000 A 
ATOM     10  C   UNL     1      -2.218 -37.638  -1.748  0.00  0.00    +0.000 A 
ATOM     11  C   UNL     1      -1.234 -38.607  -1.970  0.00  0.00    +0.000 A 
ATOM     12  C   UNL     1      -1.488 -37.451  -3.880  0.00  0.00    +0.000 A 
ATOM     13  C   UNL     1      -2.818 -37.571  -0.476  0.00  0.00    +0.000 A 
ATOM     14  C   UNL     1      -0.819 -39.511  -0.985  0.00  0.00    +0.000 A 
ATOM     15  C   UNL     1      -2.420 -38.463   0.521  0.00  0.00    +0.000 A 
ATOM     16  C   UNL     1      -1.438 -39.412   0.260  0.00  0.00    +0.000 A 
ATOM     17  H   UNL     1      -0.101 -39.037  -3.715  0.00  0.00    +0.000 HD
ENDBRANCH   3   9
BRANCH   4  20
ATOM     18 BR   UNL     1     -10.025 -30.662   0.154  0.00  0.00    +0.000 Br
ATOM     19  N   UNL     1      -8.626 -33.816  -3.931  0.00  0.00    +0.000 N 
ATOM     20  C   UNL     1      -6.485 -34.064  -3.403  0.00  0.00    +0.000 A 
ATOM     21  C   UNL     1      -7.089 -33.230  -2.421  0.00  0.00    +0.000 A 
ATOM     22  C   UNL     1      -8.432 -33.092  -2.777  0.00  0.00    +0.000 A 
ATOM     23  C   UNL     1      -7.454 -34.408  -4.318  0.00  0.00    +0.000 A 
ATOM     24  C   UNL     1      -6.627 -32.576  -1.261  0.00  0.00    +0.000 A 
ATOM     25  C   UNL     1      -9.342 -32.333  -2.035  0.00  0.00    +0.000 A 
ATOM     26  C   UNL     1      -7.519 -31.814  -0.505  0.00  0.00    +0.000 A 
ATOM     27  C   UNL     1      -8.848 -31.701  -0.893  0.00  0.00    +0.000 A 
ATOM     28  H   UNL     1      -9.507 -33.898  -4.420  0.00  0.00    +0.000 HD
ENDBRANCH   4  20
TORSDOF 2
ENDMDL
MODEL 4
REMARK VINA RESULT:      -6.4     17.746     20.010
REMARK  Name = 179268_Nortopsentin.pdbqt.pdb
REMARK  2 active torsions:
REMARK  status: ('A' for Active; 'I' for Inactive)
REMARK    1  A    between atoms: C_3  and  C_9
REMARK    2  A    between atoms: C_4  and  C_20
REMARK                            x       y       z     vdW  Elec       q    Type
REMARK                         _______ _______ _______ _____ _____    ______ ____
ROOT
ATOM      1  N   UNL     1      -1.531 -17.235 -13.588  0.00  0.00    +0.000 N 
ATOM      2  N   UNL     1      -0.401 -18.213 -15.219  0.00  0.00    +0.000 NA
ATOM      3  C   UNL     1      -2.263 -17.027 -14.724  0.00  0.00    +0.000 A 
ATOM      4  C   UNL     1      -0.414 -17.954 -13.928  0.00  0.00    +0.000 A 
ATOM      5  C   UNL     1      -1.544 -17.643 -15.724  0.00  0.00    +0.000 A 
ATOM      6  H   UNL     1      -1.760 -16.920 -12.657  0.00  0.00    +0.000 HD
ENDROOT
BRANCH   3   9
ATOM      7 BR   UNL     1      -9.282 -17.271 -16.549  0.00  0.00    +0.000 Br
ATOM      8  N   UNL     1      -5.001 -14.630 -14.735  0.00  0.00    +0.000 N 
ATOM      9  C   UNL     1      -3.543 -16.301 -14.840  0.00  0.00    +0.000 A 
ATOM     10  C   UNL     1      -4.804 -16.785 -15.292  0.00  0.00    +0.000 A 
ATOM     11  C   UNL     1      -5.700 -15.714 -15.214  0.00  0.00    +0.000 A 
ATOM     12  C   UNL     1      -3.699 -14.976 -14.506  0.00  0.00    +0.000 A 
ATOM     13  C   UNL     1      -5.281 -18.025 -15.760  0.00  0.00    +0.000 A 
ATOM     14  C   UNL     1      -7.047 -15.818 -15.581  0.00  0.00    +0.000 A 
ATOM     15  C   UNL     1      -6.620 -18.151 -16.130  0.00  0.00    +0.000 A 
ATOM     16  C   UNL     1      -7.479 -17.063 -16.039  0.00  0.00    +0.000 A 
ATOM     17  H   UNL     1      -5.392 -13.711 -14.574  0.00  0.00    +0.000 HD
ENDBRANCH   3   9
BRANCH   4  20
ATOM     18 BR   UNL     1       4.798 -15.875  -9.343  0.00  0.00    +0.000 Br
ATOM     19  N   UNL     1       1.931 -19.700 -11.740  0.00  0.00    +0.000 N 
ATOM     20  C   UNL     1       0.634 -18.382 -12.967  0.00  0.00    +0.000 A 
ATOM     21  C   UNL     1       1.516 -17.557 -12.214  0.00  0.00    +0.000 A 
ATOM     22  C   UNL     1       2.318 -18.410 -11.453  0.00  0.00    +0.000 A 
ATOM     23  C   UNL     1       0.913 -19.693 -12.655  0.00  0.00    +0.000 A 
ATOM     24  C   UNL     1       1.713 -16.166 -12.101  0.00  0.00    +0.000 A 
ATOM     25  C   UNL     1       3.310 -17.948 -10.583  0.00  0.00    +0.000 A 
ATOM     26  C   UNL     1       2.699 -15.683 -11.239  0.00  0.00    +0.000 A 
ATOM     27  C   UNL     1       3.476 -16.564 -10.499  0.00  0.00    +0.000 A 
ATOM     28  H   UNL     1       2.341 -20.529 -11.332  0.00  0.00    +0.000 HD
ENDBRANCH   4  20
TORSDOF 2
ENDMDL
MODEL 5
REMARK VINA RESULT:      -6.3      5.886      9.092
REMARK  Name = 179268_Nortopsentin.pdbqt.pdb
REMARK  2 active torsions:
REMARK  status: ('A' for Active; 'I' for Inactive)
REMARK    1  A    between atoms: C_3  and  C_9
REMARK    2  A    between atoms: C_4  and  C_20
REMARK                            x       y       z     vdW  Elec       q    Type
REMARK                         _______ _______ _______ _____ _____    ______ ____
ROOT
ATOM      1  N   UNL     1      -5.884 -33.223 -11.099  0.00  0.00    +0.000 N 
ATOM      2  N   UNL     1      -6.196 -35.271 -11.875  0.00  0.00    +0.000 NA
ATOM      3  C   UNL     1      -5.179 -34.048 -10.266  0.00  0.00    +0.000 A 
ATOM      4  C   UNL     1      -6.484 -34.000 -12.058  0.00  0.00    +0.000 A 
ATOM      5  C   UNL     1      -5.387 -35.314 -10.765  0.00  0.00    +0.000 A 
ATOM      6  H   UNL     1      -5.958 -32.220 -11.033  0.00  0.00    +0.000 HD
ENDROOT
BRANCH   3   9
ATOM      7 BR   UNL     1      -2.692 -35.839  -3.689  0.00  0.00    +0.000 Br
ATOM      8  N   UNL     1      -3.079 -32.418  -7.781  0.00  0.00    +0.000 N 
ATOM      9  C   UNL     1      -4.376 -33.654  -9.091  0.00  0.00    +0.000 A 
ATOM     10  C   UNL     1      -4.129 -34.387  -7.896  0.00  0.00    +0.000 A 
ATOM     11  C   UNL     1      -3.312 -33.586  -7.092  0.00  0.00    +0.000 A 
ATOM     12  C   UNL     1      -3.718 -32.451  -8.989  0.00  0.00    +0.000 A 
ATOM     13  C   UNL     1      -4.514 -35.652  -7.409  0.00  0.00    +0.000 A 
ATOM     14  C   UNL     1      -2.861 -33.983  -5.828  0.00  0.00    +0.000 A 
ATOM     15  C   UNL     1      -4.076 -36.068  -6.152  0.00  0.00    +0.000 A 
ATOM     16  C   UNL     1      -3.265 -35.242  -5.384  0.00  0.00    +0.000 A 
ATOM     17  H   UNL     1      -2.518 -31.647  -7.445  0.00  0.00    +0.000 HD
ENDBRANCH   3   9
BRANCH   4  20
ATOM     18 BR   UNL     1      -8.647 -28.161 -15.765  0.00  0.00    +0.000 Br
ATOM     19  N   UNL     1      -8.790 -33.424 -14.829  0.00  0.00    +0.000 N 
ATOM     20  C   UNL     1      -7.339 -33.473 -13.151  0.00  0.00    +0.000 A 
ATOM     21  C   UNL     1      -7.470 -32.123 -13.582  0.00  0.00    +0.000 A 
ATOM     22  C   UNL     1      -8.387 -32.122 -14.636  0.00  0.00    +0.000 A 
ATOM     23  C   UNL     1      -8.162 -34.249 -13.935  0.00  0.00    +0.000 A 
ATOM     24  C   UNL     1      -6.899 -30.899 -13.183  0.00  0.00    +0.000 A 
ATOM     25  C   UNL     1      -8.765 -30.960 -15.315  0.00  0.00    +0.000 A 
ATOM     26  C   UNL     1      -7.264 -29.725 -13.846  0.00  0.00    +0.000 A 
ATOM     27  C   UNL     1      -8.179 -29.766 -14.890  0.00  0.00    +0.000 A 
ATOM     28  H   UNL     1      -9.454 -33.724 -15.530  0.00  0.00    +0.000 HD
ENDBRANCH   4  20
TORSDOF 2
ENDMDL
MODEL 6
REMARK VINA RESULT:      -6.2      2.459      9.531
REMARK  Name = 179268_Nortopsentin.pdbqt.pdb
REMARK  2 active torsions:
REMARK  status: ('A' for Active; 'I' for Inactive)
REMARK    1  A    between atoms: C_3  and  C_9
REMARK    2  A    between atoms: C_4  and  C_20
REMARK                            x       y       z     vdW  Elec       q    Type
REMARK                         _______ _______ _______ _____ _____    ______ ____
ROOT
ATOM      1  N   UNL     1      -6.439 -33.349  -2.395  0.00  0.00    +0.000 N 
ATOM      2  N   UNL     1      -6.360 -35.545  -2.138  0.00  0.00    +0.000 NA
ATOM      3  C   UNL     1      -7.466 -33.661  -1.549  0.00  0.00    +0.000 A 
ATOM      4  C   UNL     1      -5.794 -34.513  -2.730  0.00  0.00    +0.000 A 
ATOM      5  C   UNL     1      -7.399 -35.028  -1.403  0.00  0.00    +0.000 A 
ATOM      6  H   UNL     1      -6.187 -32.429  -2.725  0.00  0.00    +0.000 HD
ENDROOT
BRANCH   3   9
ATOM      7 BR   UNL     1     -10.728 -31.367   4.513  0.00  0.00    +0.000 Br
ATOM      8  N   UNL     1      -9.930 -31.099  -0.767  0.00  0.00    +0.000 N 
ATOM      9  C   UNL     1      -8.430 -32.727  -0.933  0.00  0.00    +0.000 A 
ATOM     10  C   UNL     1      -8.805 -32.610   0.436  0.00  0.00    +0.000 A 
ATOM     11  C   UNL     1      -9.748 -31.580   0.509  0.00  0.00    +0.000 A 
ATOM     12  C   UNL     1      -9.138 -31.786  -1.644  0.00  0.00    +0.000 A 
ATOM     13  C   UNL     1      -8.442 -33.272   1.625  0.00  0.00    +0.000 A 
ATOM     14  C   UNL     1     -10.347 -31.178   1.709  0.00  0.00    +0.000 A 
ATOM     15  C   UNL     1      -9.026 -32.888   2.832  0.00  0.00    +0.000 A 
ATOM     16  C   UNL     1      -9.960 -31.859   2.863  0.00  0.00    +0.000 A 
ATOM     17  H   UNL     1     -10.557 -30.348  -1.022  0.00  0.00    +0.000 HD
ENDBRANCH   3   9
BRANCH   4  20
ATOM     18 BR   UNL     1      -2.947 -32.650  -9.127  0.00  0.00    +0.000 Br
ATOM     19  N   UNL     1      -2.601 -35.114  -4.394  0.00  0.00    +0.000 N 
ATOM     20  C   UNL     1      -4.619 -34.593  -3.633  0.00  0.00    +0.000 A 
ATOM     21  C   UNL     1      -4.476 -34.024  -4.929  0.00  0.00    +0.000 A 
ATOM     22  C   UNL     1      -3.200 -34.367  -5.383  0.00  0.00    +0.000 A 
ATOM     23  C   UNL     1      -3.452 -35.257  -3.332  0.00  0.00    +0.000 A 
ATOM     24  C   UNL     1      -5.303 -33.249  -5.765  0.00  0.00    +0.000 A 
ATOM     25  C   UNL     1      -2.705 -33.976  -6.631  0.00  0.00    +0.000 A 
ATOM     26  C   UNL     1      -4.829 -32.848  -7.016  0.00  0.00    +0.000 A 
ATOM     27  C   UNL     1      -3.555 -33.210  -7.431  0.00  0.00    +0.000 A 
ATOM     28  H   UNL     1      -1.669 -35.501  -4.448  0.00  0.00    +0.000 HD
ENDBRANCH   4  20
TORSDOF 2
ENDMDL
MODEL 7
REMARK VINA RESULT:      -6.1      2.159      8.830
REMARK  Name = 179268_Nortopsentin.pdbqt.pdb
REMARK  2 active torsions:
REMARK  status: ('A' for Active; 'I' for Inactive)
REMARK    1  A    between atoms: C_3  and  C_9
REMARK    2  A    between atoms: C_4  and  C_20
REMARK                            x       y       z     vdW  Elec       q    Type
REMARK                         _______ _______ _______ _____ _____    ______ ____
ROOT
ATOM      1  N   UNL     1      -5.827 -33.300  -5.816  0.00  0.00    +0.000 N 
ATOM      2  N   UNL     1      -3.899 -33.811  -4.860  0.00  0.00    +0.000 NA
ATOM      3  C   UNL     1      -6.139 -33.731  -4.556  0.00  0.00    +0.000 A 
ATOM      4  C   UNL     1      -4.464 -33.364  -5.962  0.00  0.00    +0.000 A 
ATOM      5  C   UNL     1      -4.928 -34.043  -3.980  0.00  0.00    +0.000 A 
ATOM      6  H   UNL     1      -6.474 -32.988  -6.524  0.00  0.00    +0.000 HD
ENDROOT
BRANCH   3   9
ATOM      7 BR   UNL     1     -12.400 -37.381  -4.191  0.00  0.00    +0.000 Br
ATOM      8  N   UNL     1      -9.239 -33.337  -2.691  0.00  0.00    +0.000 N 
ATOM      9  C   UNL     1      -7.485 -33.834  -3.956  0.00  0.00    +0.000 A 
ATOM     10  C   UNL     1      -8.493 -34.811  -4.195  0.00  0.00    +0.000 A 
ATOM     11  C   UNL     1      -9.583 -34.473  -3.387  0.00  0.00    +0.000 A 
ATOM     12  C   UNL     1      -7.974 -32.945  -3.029  0.00  0.00    +0.000 A 
ATOM     13  C   UNL     1      -8.596 -35.951  -5.016  0.00  0.00    +0.000 A 
ATOM     14  C   UNL     1     -10.769 -35.215  -3.357  0.00  0.00    +0.000 A 
ATOM     15  C   UNL     1      -9.769 -36.706  -5.002  0.00  0.00    +0.000 A 
ATOM     16  C   UNL     1     -10.830 -36.336  -4.184  0.00  0.00    +0.000 A 
ATOM     17  H   UNL     1      -9.833 -32.860  -2.026  0.00  0.00    +0.000 HD
ENDBRANCH   3   9
BRANCH   4  20
ATOM     18 BR   UNL     1      -0.115 -35.524 -11.340  0.00  0.00    +0.000 Br
ATOM     19  N   UNL     1      -2.962 -31.735  -8.863  0.00  0.00    +0.000 N 
ATOM     20  C   UNL     1      -3.733 -32.978  -7.194  0.00  0.00    +0.000 A 
ATOM     21  C   UNL     1      -2.917 -33.802  -8.019  0.00  0.00    +0.000 A 
ATOM     22  C   UNL     1      -2.446 -32.996  -9.058  0.00  0.00    +0.000 A 
ATOM     23  C   UNL     1      -3.741 -31.713  -7.738  0.00  0.00    +0.000 A 
ATOM     24  C   UNL     1      -2.531 -35.157  -7.987  0.00  0.00    +0.000 A 
ATOM     25  C   UNL     1      -1.608 -33.472 -10.070  0.00  0.00    +0.000 A 
ATOM     26  C   UNL     1      -1.693 -35.653  -8.987  0.00  0.00    +0.000 A 
ATOM     27  C   UNL     1      -1.246 -34.819 -10.004  0.00  0.00    +0.000 A 
ATOM     28  H   UNL     1      -2.788 -30.941  -9.465  0.00  0.00    +0.000 HD
ENDBRANCH   4  20
TORSDOF 2
ENDMDL
MODEL 8
REMARK VINA RESULT:      -6.1     17.560     20.014
REMARK  Name = 179268_Nortopsentin.pdbqt.pdb
REMARK  2 active torsions:
REMARK  status: ('A' for Active; 'I' for Inactive)
REMARK    1  A    between atoms: C_3  and  C_9
REMARK    2  A    between atoms: C_4  and  C_20
REMARK                            x       y       z     vdW  Elec       q    Type
REMARK                         _______ _______ _______ _____ _____    ______ ____
ROOT
ATOM      1  N   UNL     1      -2.273 -16.642 -13.884  0.00  0.00    +0.000 N 
ATOM      2  N   UNL     1      -1.319 -17.864 -15.462  0.00  0.00    +0.000 NA
ATOM      3  C   UNL     1      -3.142 -16.630 -14.939  0.00  0.00    +0.000 A 
ATOM      4  C   UNL     1      -1.184 -17.397 -14.238  0.00  0.00    +0.000 A 
ATOM      5  C   UNL     1      -2.531 -17.394 -15.907  0.00  0.00    +0.000 A 
ATOM      6  H   UNL     1      -2.397 -16.181 -12.995  0.00  0.00    +0.000 HD
ENDROOT
BRANCH   3   9
ATOM      7 BR   UNL     1     -10.174 -17.050 -16.680  0.00  0.00    +0.000 Br
ATOM      8  N   UNL     1      -5.960 -14.330 -14.826  0.00  0.00    +0.000 N 
ATOM      9  C   UNL     1      -4.448 -15.944 -15.012  0.00  0.00    +0.000 A 
ATOM     10  C   UNL     1      -5.698 -16.455 -15.464  0.00  0.00    +0.000 A 
ATOM     11  C   UNL     1      -6.628 -15.419 -15.336  0.00  0.00    +0.000 A 
ATOM     12  C   UNL     1      -4.644 -14.639 -14.627  0.00  0.00    +0.000 A 
ATOM     13  C   UNL     1      -6.139 -17.693 -15.972  0.00  0.00    +0.000 A 
ATOM     14  C   UNL     1      -7.976 -15.556 -15.689  0.00  0.00    +0.000 A 
ATOM     15  C   UNL     1      -7.478 -17.852 -16.329  0.00  0.00    +0.000 A 
ATOM     16  C   UNL     1      -8.372 -16.798 -16.187  0.00  0.00    +0.000 A 
ATOM     17  H   UNL     1      -6.379 -13.432 -14.627  0.00  0.00    +0.000 HD
ENDBRANCH   3   9
BRANCH   4  20
ATOM     18 BR   UNL     1       3.991 -22.065 -12.253  0.00  0.00    +0.000 Br
ATOM     19  N   UNL     1       1.551 -17.326 -11.820  0.00  0.00    +0.000 N 
ATOM     20  C   UNL     1      -0.016 -17.651 -13.358  0.00  0.00    +0.000 A 
ATOM     21  C   UNL     1       0.788 -18.824 -13.292  0.00  0.00    +0.000 A 
ATOM     22  C   UNL     1       1.762 -18.592 -12.318  0.00  0.00    +0.000 A 
ATOM     23  C   UNL     1       0.477 -16.749 -12.443  0.00  0.00    +0.000 A 
ATOM     24  C   UNL     1       0.785 -20.062 -13.963  0.00  0.00    +0.000 A 
ATOM     25  C   UNL     1       2.738 -19.534 -11.979  0.00  0.00    +0.000 A 
ATOM     26  C   UNL     1       1.750 -21.018 -13.638  0.00  0.00    +0.000 A 
ATOM     27  C   UNL     1       2.702 -20.749 -12.664  0.00  0.00    +0.000 A 
ATOM     28  H   UNL     1       2.109 -16.889 -11.099  0.00  0.00    +0.000 HD
ENDBRANCH   4  20
TORSDOF 2
ENDMDL
MODEL 9
REMARK VINA RESULT:      -6.1      3.440      4.638
REMARK  Name = 179268_Nortopsentin.pdbqt.pdb
REMARK  2 active torsions:
REMARK  status: ('A' for Active; 'I' for Inactive)
REMARK    1  A    between atoms: C_3  and  C_9
REMARK    2  A    between atoms: C_4  and  C_20
REMARK                            x       y       z     vdW  Elec       q    Type
REMARK                         _______ _______ _______ _____ _____    ______ ____
ROOT
ATOM      1  N   UNL     1      -2.919 -33.574  -7.800  0.00  0.00    +0.000 N 
ATOM      2  N   UNL     1      -4.063 -31.704  -7.503  0.00  0.00    +0.000 NA
ATOM      3  C   UNL     1      -2.506 -32.725  -8.789  0.00  0.00    +0.000 A 
ATOM      4  C   UNL     1      -3.860 -32.922  -7.044  0.00  0.00    +0.000 A 
ATOM      5  C   UNL     1      -3.229 -31.571  -8.586  0.00  0.00    +0.000 A 
ATOM      6  H   UNL     1      -2.598 -34.517  -7.642  0.00  0.00    +0.000 HD
ENDROOT
BRANCH   3   9
ATOM      7 BR   UNL     1       1.910 -37.565 -11.906  0.00  0.00    +0.000 Br
ATOM      8  N   UNL     1      -0.150 -32.643 -11.561  0.00  0.00    +0.000 N 
ATOM      9  C   UNL     1      -1.505 -32.998  -9.839  0.00  0.00    +0.000 A 
ATOM     10  C   UNL     1      -0.823 -34.216 -10.124  0.00  0.00    +0.000 A 
ATOM     11  C   UNL     1       0.021 -33.962 -11.210  0.00  0.00    +0.000 A 
ATOM     12  C   UNL     1      -1.069 -32.054 -10.739  0.00  0.00    +0.000 A 
ATOM     13  C   UNL     1      -0.834 -35.512  -9.572  0.00  0.00    +0.000 A 
ATOM     14  C   UNL     1       0.854 -34.936 -11.772  0.00  0.00    +0.000 A 
ATOM     15  C   UNL     1      -0.012 -36.498 -10.117  0.00  0.00    +0.000 A 
ATOM     16  C   UNL     1       0.813 -36.206 -11.196  0.00  0.00    +0.000 A 
ATOM     17  H   UNL     1       0.332 -32.175 -12.317  0.00  0.00    +0.000 HD
ENDBRANCH   3   9
BRANCH   4  20
ATOM     18 BR   UNL     1      -3.347 -37.316  -1.306  0.00  0.00    +0.000 Br
ATOM     19  N   UNL     1      -6.144 -33.966  -4.395  0.00  0.00    +0.000 N 
ATOM     20  C   UNL     1      -4.550 -33.511  -5.870  0.00  0.00    +0.000 A 
ATOM     21  C   UNL     1      -4.019 -34.419  -4.912  0.00  0.00    +0.000 A 
ATOM     22  C   UNL     1      -5.041 -34.688  -3.998  0.00  0.00    +0.000 A 
ATOM     23  C   UNL     1      -5.857 -33.252  -5.527  0.00  0.00    +0.000 A 
ATOM     24  C   UNL     1      -2.769 -35.041  -4.727  0.00  0.00    +0.000 A 
ATOM     25  C   UNL     1      -4.881 -35.547  -2.907  0.00  0.00    +0.000 A 
ATOM     26  C   UNL     1      -2.587 -35.905  -3.644  0.00  0.00    +0.000 A 
ATOM     27  C   UNL     1      -3.629 -36.145  -2.758  0.00  0.00    +0.000 A 
ATOM     28  H   UNL     1      -7.036 -33.966  -3.918  0.00  0.00    +0.000 HD
ENDBRANCH   4  20
TORSDOF 2
ENDMDL
