MODEL 1
REMARK VINA RESULT:      -4.0      0.000      0.000
REMARK  Name = 21574552_Mertensene.pdbqt.pdb
REMARK  1 active torsions:
REMARK  status: ('A' for Active; 'I' for Inactive)
REMARK    1  A    between atoms: C_4  and  C_13
REMARK                            x       y       z     vdW  Elec       q    Type
REMARK                         _______ _______ _______ _____ _____    ______ ____
ROOT
ATOM      1 BR   UNL     1      -0.125 -35.984 -10.005  0.00  0.00    +0.000 Br
ATOM      2 CL   UNL     1      -3.499 -31.544  -7.941  0.00  0.00    +0.000 Cl
ATOM      3 CL   UNL     1      -3.197 -34.223  -5.860  0.00  0.00    +0.000 Cl
ATOM      4  C   UNL     1      -2.355 -34.084 -10.596  0.00  0.00    +0.000 C 
ATOM      5  C   UNL     1      -3.350 -33.377  -9.782  0.00  0.00    +0.000 C 
ATOM      6  C   UNL     1      -3.885 -33.211  -8.433  0.00  0.00    +0.000 C 
ATOM      7  C   UNL     1      -1.657 -35.039  -9.595  0.00  0.00    +0.000 C 
ATOM      8  C   UNL     1      -3.130 -34.229  -7.569  0.00  0.00    +0.000 C 
ATOM      9  C   UNL     1      -2.129 -34.981  -8.251  0.00  0.00    +0.000 C 
ATOM     10  C   UNL     1      -3.060 -34.917 -11.690  0.00  0.00    +0.000 C 
ATOM     11  C   UNL     1      -5.403 -33.408  -8.365  0.00  0.00    +0.000 C 
ENDROOT
BRANCH   4  13
ATOM     12 CL   UNL     1       0.591 -31.249 -12.281  0.00  0.00    +0.000 Cl
ATOM     13  C   UNL     1      -1.381 -33.137 -11.159  0.00  0.00    +0.000 C 
ATOM     14  C   UNL     1      -0.582 -32.366 -11.617  0.00  0.00    +0.000 C 
ENDBRANCH   4  13
TORSDOF 1
ENDMDL
MODEL 2
REMARK VINA RESULT:      -3.8      2.927      5.610
REMARK  Name = 21574552_Mertensene.pdbqt.pdb
REMARK  1 active torsions:
REMARK  status: ('A' for Active; 'I' for Inactive)
REMARK    1  A    between atoms: C_4  and  C_13
REMARK                            x       y       z     vdW  Elec       q    Type
REMARK                         _______ _______ _______ _____ _____    ______ ____
ROOT
ATOM      1 BR   UNL     1      -2.529 -37.390  -5.729  0.00  0.00    +0.000 Br
ATOM      2 CL   UNL     1      -5.086 -33.242  -9.138  0.00  0.00    +0.000 Cl
ATOM      3 CL   UNL     1      -2.421 -34.832 -10.542  0.00  0.00    +0.000 Cl
ATOM      4  C   UNL     1      -3.557 -34.587  -5.872  0.00  0.00    +0.000 C 
ATOM      5  C   UNL     1      -3.726 -33.605  -6.949  0.00  0.00    +0.000 C 
ATOM      6  C   UNL     1      -3.485 -33.334  -8.363  0.00  0.00    +0.000 C 
ATOM      7  C   UNL     1      -2.782 -35.751  -6.540  0.00  0.00    +0.000 C 
ATOM      8  C   UNL     1      -2.693 -34.544  -8.879  0.00  0.00    +0.000 C 
ATOM      9  C   UNL     1      -2.466 -35.574  -7.920  0.00  0.00    +0.000 C 
ATOM     10  C   UNL     1      -2.697 -33.987  -4.737  0.00  0.00    +0.000 C 
ATOM     11  C   UNL     1      -2.744 -32.015  -8.601  0.00  0.00    +0.000 C 
ENDROOT
BRANCH   4  13
ATOM     12 CL   UNL     1      -7.494 -36.009  -4.446  0.00  0.00    +0.000 Cl
ATOM     13  C   UNL     1      -4.865 -35.057  -5.391  0.00  0.00    +0.000 C 
ATOM     14  C   UNL     1      -5.933 -35.442  -5.002  0.00  0.00    +0.000 C 
ENDBRANCH   4  13
TORSDOF 1
ENDMDL
MODEL 3
REMARK VINA RESULT:      -3.7      5.510      7.065
REMARK  Name = 21574552_Mertensene.pdbqt.pdb
REMARK  1 active torsions:
REMARK  status: ('A' for Active; 'I' for Inactive)
REMARK    1  A    between atoms: C_4  and  C_13
REMARK                            x       y       z     vdW  Elec       q    Type
REMARK                         _______ _______ _______ _____ _____    ______ ____
ROOT
ATOM      1 BR   UNL     1      -6.704 -36.790  -6.708  0.00  0.00    +0.000 Br
ATOM      2 CL   UNL     1      -6.802 -33.538  -1.731  0.00  0.00    +0.000 Cl
ATOM      3 CL   UNL     1      -9.831 -34.713  -2.754  0.00  0.00    +0.000 Cl
ATOM      4  C   UNL     1      -5.825 -34.259  -5.383  0.00  0.00    +0.000 C 
ATOM      5  C   UNL     1      -6.350 -33.431  -4.292  0.00  0.00    +0.000 C 
ATOM      6  C   UNL     1      -7.461 -33.251  -3.361  0.00  0.00    +0.000 C 
ATOM      7  C   UNL     1      -6.936 -35.311  -5.628  0.00  0.00    +0.000 C 
ATOM      8  C   UNL     1      -8.485 -34.330  -3.738  0.00  0.00    +0.000 C 
ATOM      9  C   UNL     1      -8.086 -35.205  -4.790  0.00  0.00    +0.000 C 
ATOM     10  C   UNL     1      -5.642 -33.404  -6.657  0.00  0.00    +0.000 C 
ATOM     11  C   UNL     1      -8.061 -31.842  -3.411  0.00  0.00    +0.000 C 
ENDROOT
BRANCH   4  13
ATOM     12 CL   UNL     1      -2.074 -36.264  -4.172  0.00  0.00    +0.000 Cl
ATOM     13  C   UNL     1      -4.578 -34.923  -4.973  0.00  0.00    +0.000 C 
ATOM     14  C   UNL     1      -3.560 -35.467  -4.642  0.00  0.00    +0.000 C 
ENDBRANCH   4  13
TORSDOF 1
ENDMDL
MODEL 4
REMARK VINA RESULT:      -3.6     19.517     20.807
REMARK  Name = 21574552_Mertensene.pdbqt.pdb
REMARK  1 active torsions:
REMARK  status: ('A' for Active; 'I' for Inactive)
REMARK    1  A    between atoms: C_4  and  C_13
REMARK                            x       y       z     vdW  Elec       q    Type
REMARK                         _______ _______ _______ _____ _____    ______ ____
ROOT
ATOM      1 BR   UNL     1       1.086 -16.527  -2.764  0.00  0.00    +0.000 Br
ATOM      2 CL   UNL     1      -0.467 -13.215  -7.452  0.00  0.00    +0.000 Cl
ATOM      3 CL   UNL     1       2.565 -14.748  -7.701  0.00  0.00    +0.000 Cl
ATOM      4  C   UNL     1       0.037 -13.889  -3.697  0.00  0.00    +0.000 C 
ATOM      5  C   UNL     1       0.167 -13.106  -4.930  0.00  0.00    +0.000 C 
ATOM      6  C   UNL     1       0.820 -13.037  -6.235  0.00  0.00    +0.000 C 
ATOM      7  C   UNL     1       1.027 -15.065  -3.890  0.00  0.00    +0.000 C 
ATOM      8  C   UNL     1       1.782 -14.233  -6.270  0.00  0.00    +0.000 C 
ATOM      9  C   UNL     1       1.746 -15.076  -5.121  0.00  0.00    +0.000 C 
ATOM     10  C   UNL     1       0.480 -13.042  -2.482  0.00  0.00    +0.000 C 
ATOM     11  C   UNL     1       1.544 -11.707  -6.471  0.00  0.00    +0.000 C 
ENDROOT
BRANCH   4  13
ATOM     12 CL   UNL     1      -4.092 -15.417  -3.278  0.00  0.00    +0.000 Cl
ATOM     13  C   UNL     1      -1.335 -14.398  -3.550  0.00  0.00    +0.000 C 
ATOM     14  C   UNL     1      -2.455 -14.813  -3.434  0.00  0.00    +0.000 C 
ENDBRANCH   4  13
TORSDOF 1
ENDMDL
MODEL 5
REMARK VINA RESULT:      -3.6     21.456     22.641
REMARK  Name = 21574552_Mertensene.pdbqt.pdb
REMARK  1 active torsions:
REMARK  status: ('A' for Active; 'I' for Inactive)
REMARK    1  A    between atoms: C_4  and  C_13
REMARK                            x       y       z     vdW  Elec       q    Type
REMARK                         _______ _______ _______ _____ _____    ______ ____
ROOT
ATOM      1 BR   UNL     1      -7.341 -11.549  -0.484  0.00  0.00    +0.000 Br
ATOM      2 CL   UNL     1      -7.425 -17.206   1.344  0.00  0.00    +0.000 Cl
ATOM      3 CL   UNL     1     -10.338 -15.497   1.785  0.00  0.00    +0.000 Cl
ATOM      4  C   UNL     1      -5.942 -13.664   1.098  0.00  0.00    +0.000 C 
ATOM      5  C   UNL     1      -6.372 -14.873   1.809  0.00  0.00    +0.000 C 
ATOM      6  C   UNL     1      -7.528 -15.662   2.225  0.00  0.00    +0.000 C 
ATOM      7  C   UNL     1      -7.268 -12.977   0.683  0.00  0.00    +0.000 C 
ATOM      8  C   UNL     1      -8.754 -14.854   1.779  0.00  0.00    +0.000 C 
ATOM      9  C   UNL     1      -8.463 -13.652   1.070  0.00  0.00    +0.000 C 
ATOM     10  C   UNL     1      -5.163 -12.733   2.055  0.00  0.00    +0.000 C 
ATOM     11  C   UNL     1      -7.543 -15.952   3.730  0.00  0.00    +0.000 C 
ENDROOT
BRANCH   4  13
ATOM     12 CL   UNL     1      -3.603 -14.736  -2.499  0.00  0.00    +0.000 Cl
ATOM     13  C   UNL     1      -5.158 -14.018  -0.095  0.00  0.00    +0.000 C 
ATOM     14  C   UNL     1      -4.521 -14.308  -1.071  0.00  0.00    +0.000 C 
ENDBRANCH   4  13
TORSDOF 1
ENDMDL
MODEL 6
REMARK VINA RESULT:      -3.6     17.009     18.056
REMARK  Name = 21574552_Mertensene.pdbqt.pdb
REMARK  1 active torsions:
REMARK  status: ('A' for Active; 'I' for Inactive)
REMARK    1  A    between atoms: C_4  and  C_13
REMARK                            x       y       z     vdW  Elec       q    Type
REMARK                         _______ _______ _______ _____ _____    ______ ____
ROOT
ATOM      1 BR   UNL     1      -2.167 -20.644   0.783  0.00  0.00    +0.000 Br
ATOM      2 CL   UNL     1       2.400 -18.522  -2.379  0.00  0.00    +0.000 Cl
ATOM      3 CL   UNL     1       2.952 -21.526  -0.872  0.00  0.00    +0.000 Cl
ATOM      4  C   UNL     1      -0.428 -18.279   0.220  0.00  0.00    +0.000 C 
ATOM      5  C   UNL     1       0.946 -18.102  -0.262  0.00  0.00    +0.000 C 
ATOM      6  C   UNL     1       2.177 -18.794  -0.633  0.00  0.00    +0.000 C 
ATOM      7  C   UNL     1      -0.558 -19.808   0.440  0.00  0.00    +0.000 C 
ATOM      8  C   UNL     1       1.914 -20.277  -0.337  0.00  0.00    +0.000 C 
ATOM      9  C   UNL     1       0.604 -20.578   0.138  0.00  0.00    +0.000 C 
ATOM     10  C   UNL     1      -0.616 -17.551   1.570  0.00  0.00    +0.000 C 
ATOM     11  C   UNL     1       3.408 -18.266   0.111  0.00  0.00    +0.000 C 
ENDROOT
BRANCH   4  13
ATOM     12 CL   UNL     1      -3.343 -16.916  -2.814  0.00  0.00    +0.000 Cl
ATOM     13  C   UNL     1      -1.393 -17.828  -0.795  0.00  0.00    +0.000 C 
ATOM     14  C   UNL     1      -2.183 -17.459  -1.620  0.00  0.00    +0.000 C 
ENDBRANCH   4  13
TORSDOF 1
ENDMDL
MODEL 7
REMARK VINA RESULT:      -3.5     19.620     20.450
REMARK  Name = 21574552_Mertensene.pdbqt.pdb
REMARK  1 active torsions:
REMARK  status: ('A' for Active; 'I' for Inactive)
REMARK    1  A    between atoms: C_4  and  C_13
REMARK                            x       y       z     vdW  Elec       q    Type
REMARK                         _______ _______ _______ _____ _____    ______ ____
ROOT
ATOM      1 BR   UNL     1       0.690 -12.366  -2.713  0.00  0.00    +0.000 Br
ATOM      2 CL   UNL     1      -4.551 -15.165  -2.936  0.00  0.00    +0.000 Cl
ATOM      3 CL   UNL     1      -3.935 -13.471  -0.046  0.00  0.00    +0.000 Cl
ATOM      4  C   UNL     1      -0.730 -14.921  -3.331  0.00  0.00    +0.000 C 
ATOM      5  C   UNL     1      -1.977 -15.544  -2.873  0.00  0.00    +0.000 C 
ATOM      6  C   UNL     1      -3.096 -15.426  -1.942  0.00  0.00    +0.000 C 
ATOM      7  C   UNL     1      -0.566 -13.684  -2.412  0.00  0.00    +0.000 C 
ATOM      8  C   UNL     1      -2.784 -14.190  -1.088  0.00  0.00    +0.000 C 
ATOM      9  C   UNL     1      -1.592 -13.493  -1.441  0.00  0.00    +0.000 C 
ATOM     10  C   UNL     1       0.457 -15.884  -3.108  0.00  0.00    +0.000 C 
ATOM     11  C   UNL     1      -3.299 -16.682  -1.089  0.00  0.00    +0.000 C 
ENDROOT
BRANCH   4  13
ATOM     12 CL   UNL     1      -1.109 -13.663  -7.554  0.00  0.00    +0.000 Cl
ATOM     13  C   UNL     1      -0.850 -14.499  -4.735  0.00  0.00    +0.000 C 
ATOM     14  C   UNL     1      -0.951 -14.156  -5.881  0.00  0.00    +0.000 C 
ENDBRANCH   4  13
TORSDOF 1
ENDMDL
MODEL 8
REMARK VINA RESULT:      -3.4      4.624      6.569
REMARK  Name = 21574552_Mertensene.pdbqt.pdb
REMARK  1 active torsions:
REMARK  status: ('A' for Active; 'I' for Inactive)
REMARK    1  A    between atoms: C_4  and  C_13
REMARK                            x       y       z     vdW  Elec       q    Type
REMARK                         _______ _______ _______ _____ _____    ______ ____
ROOT
ATOM      1 BR   UNL     1      -4.713 -39.315  -4.744  0.00  0.00    +0.000 Br
ATOM      2 CL   UNL     1      -2.952 -33.669  -4.123  0.00  0.00    +0.000 Cl
ATOM      3 CL   UNL     1      -6.176 -34.078  -5.143  0.00  0.00    +0.000 Cl
ATOM      4  C   UNL     1      -2.602 -37.294  -5.370  0.00  0.00    +0.000 C 
ATOM      5  C   UNL     1      -2.584 -35.834  -5.519  0.00  0.00    +0.000 C 
ATOM      6  C   UNL     1      -3.409 -34.630  -5.551  0.00  0.00    +0.000 C 
ATOM      7  C   UNL     1      -4.106 -37.642  -5.234  0.00  0.00    +0.000 C 
ATOM      8  C   UNL     1      -4.857 -35.127  -5.439  0.00  0.00    +0.000 C 
ATOM      9  C   UNL     1      -5.005 -36.536  -5.285  0.00  0.00    +0.000 C 
ATOM     10  C   UNL     1      -2.035 -37.965  -6.641  0.00  0.00    +0.000 C 
ATOM     11  C   UNL     1      -3.185 -33.784  -6.809  0.00  0.00    +0.000 C 
ENDROOT
BRANCH   4  13
ATOM     12 CL   UNL     1      -0.422 -38.526  -1.724  0.00  0.00    +0.000 Cl
ATOM     13  C   UNL     1      -1.875 -37.697  -4.155  0.00  0.00    +0.000 C 
ATOM     14  C   UNL     1      -1.283 -38.029  -3.166  0.00  0.00    +0.000 C 
ENDBRANCH   4  13
TORSDOF 1
ENDMDL
MODEL 9
REMARK VINA RESULT:      -3.4      8.943      9.718
REMARK  Name = 21574552_Mertensene.pdbqt.pdb
REMARK  1 active torsions:
REMARK  status: ('A' for Active; 'I' for Inactive)
REMARK    1  A    between atoms: C_4  and  C_13
REMARK                            x       y       z     vdW  Elec       q    Type
REMARK                         _______ _______ _______ _____ _____    ______ ____
ROOT
ATOM      1 BR   UNL     1      -3.295 -29.539 -16.700  0.00  0.00    +0.000 Br
ATOM      2 CL   UNL     1      -8.308 -26.713 -15.201  0.00  0.00    +0.000 Cl
ATOM      3 CL   UNL     1      -7.190 -28.988 -12.926  0.00  0.00    +0.000 Cl
ATOM      4  C   UNL     1      -6.021 -28.688 -17.584  0.00  0.00    +0.000 C 
ATOM      5  C   UNL     1      -7.284 -28.401 -16.897  0.00  0.00    +0.000 C 
ATOM      6  C   UNL     1      -7.968 -28.413 -15.607  0.00  0.00    +0.000 C 
ATOM      7  C   UNL     1      -5.105 -29.258 -16.471  0.00  0.00    +0.000 C 
ATOM      8  C   UNL     1      -6.963 -29.024 -14.621  0.00  0.00    +0.000 C 
ATOM      9  C   UNL     1      -5.689 -29.345 -15.173  0.00  0.00    +0.000 C 
ATOM     10  C   UNL     1      -6.239 -29.767 -18.669  0.00  0.00    +0.000 C 
ATOM     11  C   UNL     1      -9.290 -29.188 -15.638  0.00  0.00    +0.000 C 
ENDROOT
BRANCH   4  13
ATOM     12 CL   UNL     1      -4.298 -24.966 -19.239  0.00  0.00    +0.000 Cl
ATOM     13  C   UNL     1      -5.441 -27.453 -18.136  0.00  0.00    +0.000 C 
ATOM     14  C   UNL     1      -4.971 -26.444 -18.585  0.00  0.00    +0.000 C 
ENDBRANCH   4  13
TORSDOF 1
ENDMDL
