MODEL 1
REMARK VINA RESULT:      -7.0      0.000      0.000
REMARK  Name = 222284_BetaSitosterol.pdbqt.pdb
REMARK  5 active torsions:
REMARK  status: ('A' for Active; 'I' for Inactive)
REMARK    1  A    between atoms: C_5  and  C_22
REMARK    2  A    between atoms: C_19  and  O_20
REMARK    3  A    between atoms: C_22  and  C_24
REMARK    4  A    between atoms: C_25  and  C_26
REMARK    5  A    between atoms: C_26  and  C_30
REMARK                            x       y       z     vdW  Elec       q    Type
REMARK                         _______ _______ _______ _____ _____    ______ ____
ROOT
ATOM      1  C   UNL     1       0.355 -34.968 -11.119  0.00  0.00    +0.000 C 
ATOM      2  C   UNL     1       1.926 -35.234 -10.871  0.00  0.00    +0.000 C 
ATOM      3  C   UNL     1       2.869 -34.136 -10.572  0.00  0.00    +0.000 C 
ATOM      4  C   UNL     1       2.493 -32.729 -10.178  0.00  0.00    +0.000 C 
ATOM      5  C   UNL     1      -0.325 -36.090 -10.349  0.00  0.00    +0.000 C 
ATOM      6  C   UNL     1       0.102 -33.636 -10.566  0.00  0.00    +0.000 C 
ATOM      7  C   UNL     1       3.526 -31.593  -9.951  0.00  0.00    +0.000 C 
ATOM      8  C   UNL     1       2.037 -36.478 -10.173  0.00  0.00    +0.000 C 
ATOM      9  C   UNL     1       1.081 -32.568 -10.144  0.00  0.00    +0.000 C 
ATOM     10  C   UNL     1       0.660 -36.974  -9.822  0.00  0.00    +0.000 C 
ATOM     11  C   UNL     1       4.264 -34.369 -10.503  0.00  0.00    +0.000 C 
ATOM     12  C   UNL     1       0.081 -35.077 -12.641  0.00  0.00    +0.000 C 
ATOM     13  C   UNL     1       5.075 -32.127  -9.734  0.00  0.00    +0.000 C 
ATOM     14  C   UNL     1       3.219 -30.861  -8.687  0.00  0.00    +0.000 C 
ATOM     15  C   UNL     1       5.290 -33.357 -10.089  0.00  0.00    +0.000 C 
ATOM     16  C   UNL     1       3.533 -30.657 -11.194  0.00  0.00    +0.000 C 
ATOM     17  C   UNL     1       5.733 -31.648  -8.541  0.00  0.00    +0.000 C 
ATOM     18  C   UNL     1       4.037 -30.479  -7.441  0.00  0.00    +0.000 C 
ATOM     19  C   UNL     1       5.403 -30.883  -7.377  0.00  0.00    +0.000 C 
ENDROOT
BRANCH  19  20
ATOM     20  O   UNL     1       6.333 -30.141  -6.710  0.00  0.00    +0.000 OA
ATOM     21  H   UNL     1       7.234 -30.340  -7.016  0.00  0.00    +0.000 HD
ENDBRANCH  19  20
BRANCH   5  22
ATOM     22  C   UNL     1      -1.735 -36.200 -10.141  0.00  0.00    +0.000 C 
ATOM     23  C   UNL     1      -2.642 -36.916 -11.109  0.00  0.00    +0.000 C 
BRANCH  22  24
ATOM     24  C   UNL     1      -2.375 -35.657  -8.994  0.00  0.00    +0.000 C 
ATOM     25  C   UNL     1      -3.092 -35.069  -7.769  0.00  0.00    +0.000 C 
BRANCH  25  26
ATOM     26  C   UNL     1      -3.767 -34.510  -6.641  0.00  0.00    +0.000 C 
ATOM     27  C   UNL     1      -5.044 -33.849  -6.801  0.00  0.00    +0.000 C 
ATOM     28  C   UNL     1      -5.735 -33.730  -8.147  0.00  0.00    +0.000 C 
ATOM     29  C   UNL     1      -5.794 -33.193  -5.664  0.00  0.00    +0.000 C 
BRANCH  26  30
ATOM     30  C   UNL     1      -3.188 -34.609  -5.348  0.00  0.00    +0.000 C 
ATOM     31  C   UNL     1      -2.604 -34.749  -3.938  0.00  0.00    +0.000 C 
ENDBRANCH  26  30
ENDBRANCH  25  26
ENDBRANCH  22  24
ENDBRANCH   5  22
TORSDOF 5
ENDMDL
MODEL 2
REMARK VINA RESULT:      -7.0     19.977     24.418
REMARK  Name = 222284_BetaSitosterol.pdbqt.pdb
REMARK  5 active torsions:
REMARK  status: ('A' for Active; 'I' for Inactive)
REMARK    1  A    between atoms: C_5  and  C_22
REMARK    2  A    between atoms: C_19  and  O_20
REMARK    3  A    between atoms: C_22  and  C_24
REMARK    4  A    between atoms: C_25  and  C_26
REMARK    5  A    between atoms: C_26  and  C_30
REMARK                            x       y       z     vdW  Elec       q    Type
REMARK                         _______ _______ _______ _____ _____    ______ ____
ROOT
ATOM      1  C   UNL     1      -9.364 -14.608   2.097  0.00  0.00    +0.000 C 
ATOM      2  C   UNL     1      -9.753 -16.155   2.333  0.00  0.00    +0.000 C 
ATOM      3  C   UNL     1     -11.030 -16.724   1.857  0.00  0.00    +0.000 C 
ATOM      4  C   UNL     1     -11.977 -16.076   0.878  0.00  0.00    +0.000 C 
ATOM      5  C   UNL     1      -7.901 -14.664   1.686  0.00  0.00    +0.000 C 
ATOM      6  C   UNL     1     -10.259 -14.149   1.032  0.00  0.00    +0.000 C 
ATOM      7  C   UNL     1     -13.346 -16.685   0.471  0.00  0.00    +0.000 C 
ATOM      8  C   UNL     1      -8.546 -16.915   2.213  0.00  0.00    +0.000 C 
ATOM      9  C   UNL     1     -11.494 -14.804   0.465  0.00  0.00    +0.000 C 
ATOM     10  C   UNL     1      -7.429 -16.005   1.778  0.00  0.00    +0.000 C 
ATOM     11  C   UNL     1     -11.418 -18.042   2.201  0.00  0.00    +0.000 C 
ATOM     12  C   UNL     1      -9.549 -13.853   3.438  0.00  0.00    +0.000 C 
ATOM     13  C   UNL     1     -13.502 -18.290   0.834  0.00  0.00    +0.000 C 
ATOM     14  C   UNL     1     -13.514 -16.635  -1.011  0.00  0.00    +0.000 C 
ATOM     15  C   UNL     1     -12.627 -18.754   1.674  0.00  0.00    +0.000 C 
ATOM     16  C   UNL     1     -14.481 -15.932   1.224  0.00  0.00    +0.000 C 
ATOM     17  C   UNL     1     -13.889 -19.139  -0.269  0.00  0.00    +0.000 C 
ATOM     18  C   UNL     1     -13.874 -17.674  -2.087  0.00  0.00    +0.000 C 
ATOM     19  C   UNL     1     -14.101 -19.021  -1.679  0.00  0.00    +0.000 C 
ENDROOT
BRANCH  19  20
ATOM     20  O   UNL     1     -14.971 -19.829  -2.351  0.00  0.00    +0.000 OA
ATOM     21  H   UNL     1     -15.861 -19.440  -2.392  0.00  0.00    +0.000 HD
ENDBRANCH  19  20
BRANCH   5  22
ATOM     22  C   UNL     1      -7.140 -13.546   1.222  0.00  0.00    +0.000 C 
ATOM     23  C   UNL     1      -7.464 -12.128   1.617  0.00  0.00    +0.000 C 
BRANCH  22  24
ATOM     24  C   UNL     1      -6.012 -13.699   0.371  0.00  0.00    +0.000 C 
ATOM     25  C   UNL     1      -4.778 -13.846  -0.532  0.00  0.00    +0.000 C 
BRANCH  25  26
ATOM     26  C   UNL     1      -3.628 -13.965  -1.370  0.00  0.00    +0.000 C 
ATOM     27  C   UNL     1      -2.417 -13.235  -1.065  0.00  0.00    +0.000 C 
ATOM     28  C   UNL     1      -2.294 -12.335   0.150  0.00  0.00    +0.000 C 
ATOM     29  C   UNL     1      -1.177 -13.273  -1.931  0.00  0.00    +0.000 C 
BRANCH  26  30
ATOM     30  C   UNL     1      -3.666 -14.810  -2.510  0.00  0.00    +0.000 C 
ATOM     31  C   UNL     1      -3.703 -15.767  -3.708  0.00  0.00    +0.000 C 
ENDBRANCH  26  30
ENDBRANCH  25  26
ENDBRANCH  22  24
ENDBRANCH   5  22
TORSDOF 5
ENDMDL
MODEL 3
REMARK VINA RESULT:      -6.5      3.541      8.258
REMARK  Name = 222284_BetaSitosterol.pdbqt.pdb
REMARK  5 active torsions:
REMARK  status: ('A' for Active; 'I' for Inactive)
REMARK    1  A    between atoms: C_5  and  C_22
REMARK    2  A    between atoms: C_19  and  O_20
REMARK    3  A    between atoms: C_22  and  C_24
REMARK    4  A    between atoms: C_25  and  C_26
REMARK    5  A    between atoms: C_26  and  C_30
REMARK                            x       y       z     vdW  Elec       q    Type
REMARK                         _______ _______ _______ _____ _____    ______ ____
ROOT
ATOM      1  C   UNL     1      -1.688 -34.521 -10.175  0.00  0.00    +0.000 C 
ATOM      2  C   UNL     1      -2.758 -33.462  -9.597  0.00  0.00    +0.000 C 
ATOM      3  C   UNL     1      -3.696 -33.809  -8.510  0.00  0.00    +0.000 C 
ATOM      4  C   UNL     1      -3.609 -35.024  -7.621  0.00  0.00    +0.000 C 
ATOM      5  C   UNL     1      -0.416 -33.700 -10.326  0.00  0.00    +0.000 C 
ATOM      6  C   UNL     1      -1.598 -35.566  -9.155  0.00  0.00    +0.000 C 
ATOM      7  C   UNL     1      -4.669 -35.381  -6.543  0.00  0.00    +0.000 C 
ATOM      8  C   UNL     1      -2.128 -32.177  -9.610  0.00  0.00    +0.000 C 
ATOM      9  C   UNL     1      -2.495 -35.835  -7.970  0.00  0.00    +0.000 C 
ATOM     10  C   UNL     1      -0.687 -32.337 -10.016  0.00  0.00    +0.000 C 
ATOM     11  C   UNL     1      -4.724 -32.917  -8.118  0.00  0.00    +0.000 C 
ATOM     12  C   UNL     1      -2.203 -35.027 -11.547  0.00  0.00    +0.000 C 
ATOM     13  C   UNL     1      -5.657 -34.123  -6.130  0.00  0.00    +0.000 C 
ATOM     14  C   UNL     1      -3.998 -35.747  -5.261  0.00  0.00    +0.000 C 
ATOM     15  C   UNL     1      -5.647 -33.119  -6.953  0.00  0.00    +0.000 C 
ATOM     16  C   UNL     1      -5.579 -36.522  -7.084  0.00  0.00    +0.000 C 
ATOM     17  C   UNL     1      -5.730 -33.832  -4.717  0.00  0.00    +0.000 C 
ATOM     18  C   UNL     1      -4.146 -35.283  -3.802  0.00  0.00    +0.000 C 
ATOM     19  C   UNL     1      -5.101 -34.266  -3.507  0.00  0.00    +0.000 C 
ENDROOT
BRANCH  19  20
ATOM     20  O   UNL     1      -5.738 -34.217  -2.302  0.00  0.00    +0.000 OA
ATOM     21  H   UNL     1      -6.471 -33.579  -2.311  0.00  0.00    +0.000 HD
ENDBRANCH  19  20
BRANCH   5  22
ATOM     22  C   UNL     1       0.865 -34.235 -10.667  0.00  0.00    +0.000 C 
ATOM     23  C   UNL     1       1.905 -33.433 -11.407  0.00  0.00    +0.000 C 
BRANCH  22  24
ATOM     24  C   UNL     1       1.252 -35.556 -10.314  0.00  0.00    +0.000 C 
ATOM     25  C   UNL     1       1.644 -36.989  -9.924  0.00  0.00    +0.000 C 
BRANCH  25  26
ATOM     26  C   UNL     1       1.998 -38.320  -9.545  0.00  0.00    +0.000 C 
ATOM     27  C   UNL     1       0.982 -39.264  -9.135  0.00  0.00    +0.000 C 
ATOM     28  C   UNL     1      -0.493 -38.908  -9.103  0.00  0.00    +0.000 C 
ATOM     29  C   UNL     1       1.285 -40.673  -8.676  0.00  0.00    +0.000 C 
BRANCH  26  30
ATOM     30  C   UNL     1       3.358 -38.728  -9.576  0.00  0.00    +0.000 C 
ATOM     31  C   UNL     1       4.828 -39.165  -9.556  0.00  0.00    +0.000 C 
ENDBRANCH  26  30
ENDBRANCH  25  26
ENDBRANCH  22  24
ENDBRANCH   5  22
TORSDOF 5
ENDMDL
MODEL 4
REMARK VINA RESULT:      -6.4      6.884     11.075
REMARK  Name = 222284_BetaSitosterol.pdbqt.pdb
REMARK  5 active torsions:
REMARK  status: ('A' for Active; 'I' for Inactive)
REMARK    1  A    between atoms: C_5  and  C_22
REMARK    2  A    between atoms: C_19  and  O_20
REMARK    3  A    between atoms: C_22  and  C_24
REMARK    4  A    between atoms: C_25  and  C_26
REMARK    5  A    between atoms: C_26  and  C_30
REMARK                            x       y       z     vdW  Elec       q    Type
REMARK                         _______ _______ _______ _____ _____    ______ ____
ROOT
ATOM      1  C   UNL     1      -5.293 -35.480  -5.562  0.00  0.00    +0.000 C 
ATOM      2  C   UNL     1      -5.763 -33.959  -5.303  0.00  0.00    +0.000 C 
ATOM      3  C   UNL     1      -6.784 -33.616  -4.292  0.00  0.00    +0.000 C 
ATOM      4  C   UNL     1      -7.296 -34.529  -3.205  0.00  0.00    +0.000 C 
ATOM      5  C   UNL     1      -3.782 -35.370  -5.698  0.00  0.00    +0.000 C 
ATOM      6  C   UNL     1      -5.727 -36.220  -4.376  0.00  0.00    +0.000 C 
ATOM      7  C   UNL     1      -8.428 -34.141  -2.216  0.00  0.00    +0.000 C 
ATOM      8  C   UNL     1      -4.608 -33.129  -5.459  0.00  0.00    +0.000 C 
ATOM      9  C   UNL     1      -6.677 -35.807  -3.278  0.00  0.00    +0.000 C 
ATOM     10  C   UNL     1      -3.397 -33.999  -5.658  0.00  0.00    +0.000 C 
ATOM     11  C   UNL     1      -7.290 -32.298  -4.181  0.00  0.00    +0.000 C 
ATOM     12  C   UNL     1      -5.947 -35.970  -6.880  0.00  0.00    +0.000 C 
ATOM     13  C   UNL     1      -8.729 -32.519  -2.142  0.00  0.00    +0.000 C 
ATOM     14  C   UNL     1      -8.039 -34.498  -0.820  0.00  0.00    +0.000 C 
ATOM     15  C   UNL     1      -8.231 -31.819  -3.116  0.00  0.00    +0.000 C 
ATOM     16  C   UNL     1      -9.749 -34.834  -2.660  0.00  0.00    +0.000 C 
ATOM     17  C   UNL     1      -8.696 -31.943  -0.818  0.00  0.00    +0.000 C 
ATOM     18  C   UNL     1      -7.992 -33.729   0.511  0.00  0.00    +0.000 C 
ATOM     19  C   UNL     1      -8.373 -32.355   0.514  0.00  0.00    +0.000 C 
ENDROOT
BRANCH  19  20
ATOM     20  O   UNL     1      -8.946 -31.779   1.610  0.00  0.00    +0.000 OA
ATOM     21  H   UNL     1      -8.336 -31.766   2.366  0.00  0.00    +0.000 HD
ENDBRANCH  19  20
BRANCH   5  22
ATOM     22  C   UNL     1      -2.888 -36.482  -5.790  0.00  0.00    +0.000 C 
ATOM     23  C   UNL     1      -2.474 -37.079  -7.111  0.00  0.00    +0.000 C 
BRANCH  22  24
ATOM     24  C   UNL     1      -2.312 -37.087  -4.640  0.00  0.00    +0.000 C 
ATOM     25  C   UNL     1      -1.676 -37.716  -3.392  0.00  0.00    +0.000 C 
BRANCH  25  26
ATOM     26  C   UNL     1      -1.068 -38.294  -2.235  0.00  0.00    +0.000 C 
ATOM     27  C   UNL     1      -1.688 -38.163  -0.935  0.00  0.00    +0.000 C 
ATOM     28  C   UNL     1      -3.003 -37.435  -0.730  0.00  0.00    +0.000 C 
ATOM     29  C   UNL     1      -1.080 -38.705   0.340  0.00  0.00    +0.000 C 
BRANCH  26  30
ATOM     30  C   UNL     1       0.152 -39.010  -2.359  0.00  0.00    +0.000 C 
ATOM     31  C   UNL     1       1.492 -39.739  -2.513  0.00  0.00    +0.000 C 
ENDBRANCH  26  30
ENDBRANCH  25  26
ENDBRANCH  22  24
ENDBRANCH   5  22
TORSDOF 5
ENDMDL
MODEL 5
REMARK VINA RESULT:      -6.3     17.134     19.887
REMARK  Name = 222284_BetaSitosterol.pdbqt.pdb
REMARK  5 active torsions:
REMARK  status: ('A' for Active; 'I' for Inactive)
REMARK    1  A    between atoms: C_5  and  C_22
REMARK    2  A    between atoms: C_19  and  O_20
REMARK    3  A    between atoms: C_22  and  C_24
REMARK    4  A    between atoms: C_25  and  C_26
REMARK    5  A    between atoms: C_26  and  C_30
REMARK                            x       y       z     vdW  Elec       q    Type
REMARK                         _______ _______ _______ _____ _____    ______ ____
ROOT
ATOM      1  C   UNL     1      -4.015 -15.554 -16.086  0.00  0.00    +0.000 C 
ATOM      2  C   UNL     1      -3.710 -17.133 -16.199  0.00  0.00    +0.000 C 
ATOM      3  C   UNL     1      -2.400 -17.707 -15.828  0.00  0.00    +0.000 C 
ATOM      4  C   UNL     1      -1.313 -17.004 -15.053  0.00  0.00    +0.000 C 
ATOM      5  C   UNL     1      -5.413 -15.500 -15.490  0.00  0.00    +0.000 C 
ATOM      6  C   UNL     1      -2.975 -15.028 -15.199  0.00  0.00    +0.000 C 
ATOM      7  C   UNL     1       0.077 -17.630 -14.759  0.00  0.00    +0.000 C 
ATOM      8  C   UNL     1      -4.914 -17.820 -15.846  0.00  0.00    +0.000 C 
ATOM      9  C   UNL     1      -1.698 -15.676 -14.724  0.00  0.00    +0.000 C 
ATOM     10  C   UNL     1      -5.935 -16.820 -15.375  0.00  0.00    +0.000 C 
ATOM     11  C   UNL     1      -2.103 -19.070 -16.073  0.00  0.00    +0.000 C 
ATOM     12  C   UNL     1      -3.983 -14.951 -17.514  0.00  0.00    +0.000 C 
ATOM     13  C   UNL     1       0.133 -19.268 -14.961  0.00  0.00    +0.000 C 
ATOM     14  C   UNL     1       0.438 -17.433 -13.324  0.00  0.00    +0.000 C 
ATOM     15  C   UNL     1      -0.858 -19.777 -15.628  0.00  0.00    +0.000 C 
ATOM     16  C   UNL     1       1.127 -17.012 -15.726  0.00  0.00    +0.000 C 
ATOM     17  C   UNL     1       0.633 -20.015 -13.830  0.00  0.00    +0.000 C 
ATOM     18  C   UNL     1       0.902 -18.370 -12.195  0.00  0.00    +0.000 C 
ATOM     19  C   UNL     1       1.031 -19.761 -12.479  0.00  0.00    +0.000 C 
ENDROOT
BRANCH  19  20
ATOM     20  O   UNL     1       1.955 -20.534 -11.838  0.00  0.00    +0.000 OA
ATOM     21  H   UNL     1       2.708 -20.005 -11.528  0.00  0.00    +0.000 HD
ENDBRANCH  19  20
BRANCH   5  22
ATOM     22  C   UNL     1      -6.072 -14.306 -15.058  0.00  0.00    +0.000 C 
ATOM     23  C   UNL     1      -7.534 -14.050 -15.319  0.00  0.00    +0.000 C 
BRANCH  22  24
ATOM     24  C   UNL     1      -5.394 -13.287 -14.335  0.00  0.00    +0.000 C 
ATOM     25  C   UNL     1      -4.651 -12.177 -13.578  0.00  0.00    +0.000 C 
BRANCH  25  26
ATOM     26  C   UNL     1      -3.943 -11.148 -12.884  0.00  0.00    +0.000 C 
ATOM     27  C   UNL     1      -2.706 -10.619 -13.415  0.00  0.00    +0.000 C 
ATOM     28  C   UNL     1      -2.109 -11.104 -14.723  0.00  0.00    +0.000 C 
ATOM     29  C   UNL     1      -1.878  -9.565 -12.714  0.00  0.00    +0.000 C 
BRANCH  26  30
ATOM     30  C   UNL     1      -4.459 -10.631 -11.666  0.00  0.00    +0.000 C 
ATOM     31  C   UNL     1      -4.974 -10.096 -10.325  0.00  0.00    +0.000 C 
ENDBRANCH  26  30
ENDBRANCH  25  26
ENDBRANCH  22  24
ENDBRANCH   5  22
TORSDOF 5
ENDMDL
MODEL 6
REMARK VINA RESULT:      -6.1     14.944     18.854
REMARK  Name = 222284_BetaSitosterol.pdbqt.pdb
REMARK  5 active torsions:
REMARK  status: ('A' for Active; 'I' for Inactive)
REMARK    1  A    between atoms: C_5  and  C_22
REMARK    2  A    between atoms: C_19  and  O_20
REMARK    3  A    between atoms: C_22  and  C_24
REMARK    4  A    between atoms: C_25  and  C_26
REMARK    5  A    between atoms: C_26  and  C_30
REMARK                            x       y       z     vdW  Elec       q    Type
REMARK                         _______ _______ _______ _____ _____    ______ ____
ROOT
ATOM      1  C   UNL     1      -0.350 -17.820   0.498  0.00  0.00    +0.000 C 
ATOM      2  C   UNL     1      -1.685 -17.451  -0.328  0.00  0.00    +0.000 C 
ATOM      3  C   UNL     1      -1.690 -16.428  -1.393  0.00  0.00    +0.000 C 
ATOM      4  C   UNL     1      -0.471 -15.821  -2.043  0.00  0.00    +0.000 C 
ATOM      5  C   UNL     1      -0.387 -19.339   0.581  0.00  0.00    +0.000 C 
ATOM      6  C   UNL     1       0.754 -17.301  -0.311  0.00  0.00    +0.000 C 
ATOM      7  C   UNL     1      -0.534 -14.690  -3.105  0.00  0.00    +0.000 C 
ATOM      8  C   UNL     1      -2.420 -18.666  -0.504  0.00  0.00    +0.000 C 
ATOM      9  C   UNL     1       0.724 -16.350  -1.483  0.00  0.00    +0.000 C 
ATOM     10  C   UNL     1      -1.603 -19.819   0.015  0.00  0.00    +0.000 C 
ATOM     11  C   UNL     1      -2.899 -16.013  -2.004  0.00  0.00    +0.000 C 
ATOM     12  C   UNL     1      -0.456 -17.172   1.902  0.00  0.00    +0.000 C 
ATOM     13  C   UNL     1      -2.022 -14.502  -3.799  0.00  0.00    +0.000 C 
ATOM     14  C   UNL     1       0.360 -15.012  -4.256  0.00  0.00    +0.000 C 
ATOM     15  C   UNL     1      -3.002 -15.077  -3.170  0.00  0.00    +0.000 C 
ATOM     16  C   UNL     1      -0.169 -13.337  -2.429  0.00  0.00    +0.000 C 
ATOM     17  C   UNL     1      -2.040 -14.537  -5.244  0.00  0.00    +0.000 C 
ATOM     18  C   UNL     1       0.168 -15.073  -5.781  0.00  0.00    +0.000 C 
ATOM     19  C   UNL     1      -1.124 -14.791  -6.313  0.00  0.00    +0.000 C 
ENDROOT
BRANCH  19  20
ATOM     20  O   UNL     1      -1.276 -14.228  -7.546  0.00  0.00    +0.000 OA
ATOM     21  H   UNL     1      -2.199 -14.274  -7.848  0.00  0.00    +0.000 HD
ENDBRANCH  19  20
BRANCH   5  22
ATOM     22  C   UNL     1       0.669 -20.155   1.094  0.00  0.00    +0.000 C 
ATOM     23  C   UNL     1       0.743 -20.563   2.544  0.00  0.00    +0.000 C 
BRANCH  22  24
ATOM     24  C   UNL     1       1.711 -20.653   0.267  0.00  0.00    +0.000 C 
ATOM     25  C   UNL     1       2.827 -21.176  -0.650  0.00  0.00    +0.000 C 
BRANCH  25  26
ATOM     26  C   UNL     1       3.852 -21.665  -1.516  0.00  0.00    +0.000 C 
ATOM     27  C   UNL     1       4.661 -20.748  -2.289  0.00  0.00    +0.000 C 
ATOM     28  C   UNL     1       4.484 -19.244  -2.213  0.00  0.00    +0.000 C 
ATOM     29  C   UNL     1       5.732 -21.193  -3.261  0.00  0.00    +0.000 C 
BRANCH  26  30
ATOM     30  C   UNL     1       4.089 -23.061  -1.616  0.00  0.00    +0.000 C 
ATOM     31  C   UNL     1       4.292 -24.578  -1.713  0.00  0.00    +0.000 C 
ENDBRANCH  26  30
ENDBRANCH  25  26
ENDBRANCH  22  24
ENDBRANCH   5  22
TORSDOF 5
ENDMDL
MODEL 7
REMARK VINA RESULT:      -6.1     16.443     18.706
REMARK  Name = 222284_BetaSitosterol.pdbqt.pdb
REMARK  5 active torsions:
REMARK  status: ('A' for Active; 'I' for Inactive)
REMARK    1  A    between atoms: C_5  and  C_22
REMARK    2  A    between atoms: C_19  and  O_20
REMARK    3  A    between atoms: C_22  and  C_24
REMARK    4  A    between atoms: C_25  and  C_26
REMARK    5  A    between atoms: C_26  and  C_30
REMARK                            x       y       z     vdW  Elec       q    Type
REMARK                         _______ _______ _______ _____ _____    ______ ____
ROOT
ATOM      1  C   UNL     1      -4.085 -18.061 -17.159  0.00  0.00    +0.000 C 
ATOM      2  C   UNL     1      -3.211 -19.247 -16.502  0.00  0.00    +0.000 C 
ATOM      3  C   UNL     1      -1.883 -19.002 -15.902  0.00  0.00    +0.000 C 
ATOM      4  C   UNL     1      -1.303 -17.653 -15.557  0.00  0.00    +0.000 C 
ATOM      5  C   UNL     1      -5.495 -18.337 -16.662  0.00  0.00    +0.000 C 
ATOM      6  C   UNL     1      -3.505 -16.824 -16.632  0.00  0.00    +0.000 C 
ATOM      7  C   UNL     1       0.132 -17.450 -14.999  0.00  0.00    +0.000 C 
ATOM      8  C   UNL     1      -4.128 -20.140 -15.863  0.00  0.00    +0.000 C 
ATOM      9  C   UNL     1      -2.201 -16.607 -15.904  0.00  0.00    +0.000 C 
ATOM     10  C   UNL     1      -5.514 -19.558 -15.929  0.00  0.00    +0.000 C 
ATOM     11  C   UNL     1      -1.069 -20.075 -15.464  0.00  0.00    +0.000 C 
ATOM     12  C   UNL     1      -3.991 -18.189 -18.701  0.00  0.00    +0.000 C 
ATOM     13  C   UNL     1       0.818 -18.824 -14.392  0.00  0.00    +0.000 C 
ATOM     14  C   UNL     1       0.105 -16.518 -13.834  0.00  0.00    +0.000 C 
ATOM     15  C   UNL     1       0.232 -19.932 -14.735  0.00  0.00    +0.000 C 
ATOM     16  C   UNL     1       1.055 -16.943 -16.144  0.00  0.00    +0.000 C 
ATOM     17  C   UNL     1       1.320 -18.722 -13.042  0.00  0.00    +0.000 C 
ATOM     18  C   UNL     1       0.643 -16.583 -12.394  0.00  0.00    +0.000 C 
ATOM     19  C   UNL     1       1.322 -17.765 -11.977  0.00  0.00    +0.000 C 
ENDROOT
BRANCH  19  20
ATOM     20  O   UNL     1       2.317 -17.721 -11.044  0.00  0.00    +0.000 OA
ATOM     21  H   UNL     1       2.060 -17.185 -10.275  0.00  0.00    +0.000 HD
ENDBRANCH  19  20
BRANCH   5  22
ATOM     22  C   UNL     1      -6.614 -17.467 -16.854  0.00  0.00    +0.000 C 
ATOM     23  C   UNL     1      -7.736 -17.792 -17.807  0.00  0.00    +0.000 C 
BRANCH  22  24
ATOM     24  C   UNL     1      -6.753 -16.244 -16.144  0.00  0.00    +0.000 C 
ATOM     25  C   UNL     1      -6.922 -14.913 -15.396  0.00  0.00    +0.000 C 
BRANCH  25  26
ATOM     26  C   UNL     1      -7.078 -13.666 -14.717  0.00  0.00    +0.000 C 
ATOM     27  C   UNL     1      -5.932 -12.986 -14.154  0.00  0.00    +0.000 C 
ATOM     28  C   UNL     1      -4.523 -13.537 -14.266  0.00  0.00    +0.000 C 
ATOM     29  C   UNL     1      -6.026 -11.689 -13.382  0.00  0.00    +0.000 C 
BRANCH  26  30
ATOM     30  C   UNL     1      -8.366 -13.081 -14.597  0.00  0.00    +0.000 C 
ATOM     31  C   UNL     1      -9.733 -12.401 -14.460  0.00  0.00    +0.000 C 
ENDBRANCH  26  30
ENDBRANCH  25  26
ENDBRANCH  22  24
ENDBRANCH   5  22
TORSDOF 5
ENDMDL
MODEL 8
REMARK VINA RESULT:      -6.0     20.833     23.040
REMARK  Name = 222284_BetaSitosterol.pdbqt.pdb
REMARK  5 active torsions:
REMARK  status: ('A' for Active; 'I' for Inactive)
REMARK    1  A    between atoms: C_5  and  C_22
REMARK    2  A    between atoms: C_19  and  O_20
REMARK    3  A    between atoms: C_22  and  C_24
REMARK    4  A    between atoms: C_25  and  C_26
REMARK    5  A    between atoms: C_26  and  C_30
REMARK                            x       y       z     vdW  Elec       q    Type
REMARK                         _______ _______ _______ _____ _____    ______ ____
ROOT
ATOM      1  C   UNL     1      -4.770 -12.773 -14.899  0.00  0.00    +0.000 C 
ATOM      2  C   UNL     1      -3.504 -11.800 -14.676  0.00  0.00    +0.000 C 
ATOM      3  C   UNL     1      -3.470 -10.793 -13.596  0.00  0.00    +0.000 C 
ATOM      4  C   UNL     1      -4.416 -10.721 -12.423  0.00  0.00    +0.000 C 
ATOM      5  C   UNL     1      -4.137 -14.129 -15.175  0.00  0.00    +0.000 C 
ATOM      6  C   UNL     1      -5.519 -12.717 -13.642  0.00  0.00    +0.000 C 
ATOM      7  C   UNL     1      -4.383  -9.592 -11.357  0.00  0.00    +0.000 C 
ATOM      8  C   UNL     1      -2.330 -12.561 -14.977  0.00  0.00    +0.000 C 
ATOM      9  C   UNL     1      -5.388 -11.756 -12.486  0.00  0.00    +0.000 C 
ATOM     10  C   UNL     1      -2.721 -13.990 -15.240  0.00  0.00    +0.000 C 
ATOM     11  C   UNL     1      -2.417  -9.850 -13.507  0.00  0.00    +0.000 C 
ATOM     12  C   UNL     1      -5.566 -12.258 -16.126  0.00  0.00    +0.000 C 
ATOM     13  C   UNL     1      -2.976  -8.727 -11.339  0.00  0.00    +0.000 C 
ATOM     14  C   UNL     1      -4.463 -10.175  -9.985  0.00  0.00    +0.000 C 
ATOM     15  C   UNL     1      -2.224  -8.871 -12.389  0.00  0.00    +0.000 C 
ATOM     16  C   UNL     1      -5.536  -8.588 -11.645  0.00  0.00    +0.000 C 
ATOM     17  C   UNL     1      -2.322  -8.634 -10.054  0.00  0.00    +0.000 C 
ATOM     18  C   UNL     1      -3.625 -10.025  -8.704  0.00  0.00    +0.000 C 
ATOM     19  C   UNL     1      -2.483  -9.171  -8.737  0.00  0.00    +0.000 C 
ENDROOT
BRANCH  19  20
ATOM     20  O   UNL     1      -2.065  -8.501  -7.625  0.00  0.00    +0.000 OA
ATOM     21  H   UNL     1      -2.608  -8.724  -6.850  0.00  0.00    +0.000 HD
ENDBRANCH  19  20
BRANCH   5  22
ATOM     22  C   UNL     1      -4.857 -15.358 -15.290  0.00  0.00    +0.000 C 
ATOM     23  C   UNL     1      -4.173 -16.702 -15.257  0.00  0.00    +0.000 C 
BRANCH  22  24
ATOM     24  C   UNL     1      -6.272 -15.398 -15.424  0.00  0.00    +0.000 C 
ATOM     25  C   UNL     1      -7.802 -15.418 -15.550  0.00  0.00    +0.000 C 
BRANCH  25  26
ATOM     26  C   UNL     1      -9.227 -15.435 -15.648  0.00  0.00    +0.000 C 
ATOM     27  C   UNL     1     -10.017 -14.373 -15.064  0.00  0.00    +0.000 C 
ATOM     28  C   UNL     1      -9.390 -13.193 -14.345  0.00  0.00    +0.000 C 
ATOM     29  C   UNL     1     -11.530 -14.347 -15.087  0.00  0.00    +0.000 C 
BRANCH  26  30
ATOM     30  C   UNL     1      -9.878 -16.497 -16.330  0.00  0.00    +0.000 C 
ATOM     31  C   UNL     1     -10.577 -17.673 -17.020  0.00  0.00    +0.000 C 
ENDBRANCH  26  30
ENDBRANCH  25  26
ENDBRANCH  22  24
ENDBRANCH   5  22
TORSDOF 5
ENDMDL
MODEL 9
REMARK VINA RESULT:      -6.0     13.102     18.471
REMARK  Name = 222284_BetaSitosterol.pdbqt.pdb
REMARK  5 active torsions:
REMARK  status: ('A' for Active; 'I' for Inactive)
REMARK    1  A    between atoms: C_5  and  C_22
REMARK    2  A    between atoms: C_19  and  O_20
REMARK    3  A    between atoms: C_22  and  C_24
REMARK    4  A    between atoms: C_25  and  C_26
REMARK    5  A    between atoms: C_26  and  C_30
REMARK                            x       y       z     vdW  Elec       q    Type
REMARK                         _______ _______ _______ _____ _____    ______ ____
ROOT
ATOM      1  C   UNL     1      -9.416 -30.758   7.156  0.00  0.00    +0.000 C 
ATOM      2  C   UNL     1      -8.465 -29.869   8.108  0.00  0.00    +0.000 C 
ATOM      3  C   UNL     1      -7.230 -30.413   8.710  0.00  0.00    +0.000 C 
ATOM      4  C   UNL     1      -6.546 -31.699   8.317  0.00  0.00    +0.000 C 
ATOM      5  C   UNL     1      -9.776 -29.810   6.022  0.00  0.00    +0.000 C 
ATOM      6  C   UNL     1      -8.586 -31.889   6.738  0.00  0.00    +0.000 C 
ATOM      7  C   UNL     1      -5.291 -32.262   9.038  0.00  0.00    +0.000 C 
ATOM      8  C   UNL     1      -8.477 -28.537   7.588  0.00  0.00    +0.000 C 
ATOM      9  C   UNL     1      -7.258 -32.361   7.280  0.00  0.00    +0.000 C 
ATOM     10  C   UNL     1      -9.244 -28.517   6.293  0.00  0.00    +0.000 C 
ATOM     11  C   UNL     1      -6.489 -29.667   9.658  0.00  0.00    +0.000 C 
ATOM     12  C   UNL     1     -10.669 -31.169   7.972  0.00  0.00    +0.000 C 
ATOM     13  C   UNL     1      -4.495 -31.152   9.966  0.00  0.00    +0.000 C 
ATOM     14  C   UNL     1      -4.271 -32.691   8.037  0.00  0.00    +0.000 C 
ATOM     15  C   UNL     1      -5.165 -30.072  10.234  0.00  0.00    +0.000 C 
ATOM     16  C   UNL     1      -5.725 -33.422   9.980  0.00  0.00    +0.000 C 
ATOM     17  C   UNL     1      -3.083 -31.014   9.692  0.00  0.00    +0.000 C 
ATOM     18  C   UNL     1      -2.775 -32.394   7.834  0.00  0.00    +0.000 C 
ATOM     19  C   UNL     1      -2.130 -31.507   8.746  0.00  0.00    +0.000 C 
ENDROOT
BRANCH  19  20
ATOM     20  O   UNL     1      -0.808 -31.642   9.052  0.00  0.00    +0.000 OA
ATOM     21  H   UNL     1      -0.681 -32.175   9.855  0.00  0.00    +0.000 HD
ENDBRANCH  19  20
BRANCH   5  22
ATOM     22  C   UNL     1     -10.488 -30.185   4.840  0.00  0.00    +0.000 C 
ATOM     23  C   UNL     1     -11.847 -29.625   4.504  0.00  0.00    +0.000 C 
BRANCH  22  24
ATOM     24  C   UNL     1      -9.952 -31.096   3.890  0.00  0.00    +0.000 C 
ATOM     25  C   UNL     1      -9.353 -32.063   2.858  0.00  0.00    +0.000 C 
BRANCH  25  26
ATOM     26  C   UNL     1      -8.792 -32.947   1.887  0.00  0.00    +0.000 C 
ATOM     27  C   UNL     1      -8.636 -32.525   0.512  0.00  0.00    +0.000 C 
ATOM     28  C   UNL     1      -9.033 -31.141   0.035  0.00  0.00    +0.000 C 
ATOM     29  C   UNL     1      -8.095 -33.420  -0.581  0.00  0.00    +0.000 C 
BRANCH  26  30
ATOM     30  C   UNL     1      -8.375 -34.249   2.270  0.00  0.00    +0.000 C 
ATOM     31  C   UNL     1      -7.890 -35.632   2.719  0.00  0.00    +0.000 C 
ENDBRANCH  26  30
ENDBRANCH  25  26
ENDBRANCH  22  24
ENDBRANCH   5  22
TORSDOF 5
ENDMDL
