MODEL 1
REMARK VINA RESULT:      -5.8      0.000      0.000
REMARK  Name = 25023738_BI-D-1870.pdbqt.pdb
REMARK  4 active torsions:
REMARK  status: ('A' for Active; 'I' for Inactive)
REMARK    1  A    between atoms: N_2  and  C_26
REMARK    2  A    between atoms: N_14  and  C_16
REMARK    3  A    between atoms: C_20  and  O_24
REMARK    4  A    between atoms: C_27  and  C_28
REMARK                            x       y       z     vdW  Elec       q    Type
REMARK                         _______ _______ _______ _____ _____    ______ ____
ROOT
ATOM      1  O   UNL     1      -1.824 -37.108  -8.086  0.00  0.00    +0.000 OA
ATOM      2  N   UNL     1      -3.820 -36.186  -5.212  0.00  0.00    +0.000 N 
ATOM      3  N   UNL     1      -3.339 -35.352  -7.860  0.00  0.00    +0.000 N 
ATOM      4  N   UNL     1      -5.380 -34.403  -4.933  0.00  0.00    +0.000 NA
ATOM      5  N   UNL     1      -5.850 -32.886  -6.657  0.00  0.00    +0.000 NA
ATOM      6  C   UNL     1      -2.916 -36.897  -5.971  0.00  0.00    +0.000 C 
ATOM      7  C   UNL     1      -4.502 -35.063  -5.723  0.00  0.00    +0.000 A 
ATOM      8  C   UNL     1      -2.632 -36.480  -7.394  0.00  0.00    +0.000 C 
ATOM      9  C   UNL     1      -4.257 -34.667  -7.019  0.00  0.00    +0.000 A 
ATOM     10  C   UNL     1      -2.201 -38.105  -5.374  0.00  0.00    +0.000 C 
ATOM     11  C   UNL     1      -3.197 -34.802  -9.204  0.00  0.00    +0.000 C 
ATOM     12  C   UNL     1      -4.973 -33.561  -7.423  0.00  0.00    +0.000 A 
ATOM     13  C   UNL     1      -6.030 -33.334  -5.416  0.00  0.00    +0.000 A 
ATOM     14  N   UNL     1      -6.938 -32.630  -4.636  0.00  0.00    +0.000 N 
ATOM     15  H   UNL     1      -7.337 -31.856  -5.154  0.00  0.00    +0.000 HD
ENDROOT
BRANCH  14  16
ATOM     16  C   UNL     1      -7.367 -32.815  -3.318  0.00  0.00    +0.000 A 
ATOM     17  C   UNL     1      -8.443 -32.058  -2.836  0.00  0.00    +0.000 A 
ATOM     18  C   UNL     1      -8.899 -32.215  -1.528  0.00  0.00    +0.000 A 
ATOM     19  F   UNL     1      -9.931 -31.471  -1.106  0.00  0.00    +0.000 F 
ATOM     20  C   UNL     1      -8.292 -33.127  -0.676  0.00  0.00    +0.000 A 
ATOM     21  C   UNL     1      -7.225 -33.881  -1.145  0.00  0.00    +0.000 A 
ATOM     22  F   UNL     1      -6.631 -34.767  -0.332  0.00  0.00    +0.000 F 
ATOM     23  C   UNL     1      -6.765 -33.731  -2.450  0.00  0.00    +0.000 A 
BRANCH  20  24
ATOM     24  O   UNL     1      -8.743 -33.276   0.605  0.00  0.00    +0.000 OA
ATOM     25  H   UNL     1      -9.202 -34.135   0.665  0.00  0.00    +0.000 HD
ENDBRANCH  20  24
ENDBRANCH  14  16
BRANCH   2  26
ATOM     26  C   UNL     1      -4.096 -36.585  -3.834  0.00  0.00    +0.000 C 
ATOM     27  C   UNL     1      -4.392 -37.004  -2.389  0.00  0.00    +0.000 C 
BRANCH  27  28
ATOM     28  C   UNL     1      -4.658 -37.390  -1.056  0.00  0.00    +0.000 C 
ATOM     29  C   UNL     1      -3.584 -37.278  -0.018  0.00  0.00    +0.000 C 
ATOM     30  C   UNL     1      -5.997 -37.957  -0.697  0.00  0.00    +0.000 C 
ENDBRANCH  27  28
ENDBRANCH   2  26
TORSDOF 4
ENDMDL
MODEL 2
REMARK VINA RESULT:      -5.4     11.335     14.222
REMARK  Name = 25023738_BI-D-1870.pdbqt.pdb
REMARK  4 active torsions:
REMARK  status: ('A' for Active; 'I' for Inactive)
REMARK    1  A    between atoms: N_2  and  C_26
REMARK    2  A    between atoms: N_14  and  C_16
REMARK    3  A    between atoms: C_20  and  O_24
REMARK    4  A    between atoms: C_27  and  C_28
REMARK                            x       y       z     vdW  Elec       q    Type
REMARK                         _______ _______ _______ _____ _____    ______ ____
ROOT
ATOM      1  O   UNL     1       3.905 -25.614 -15.134  0.00  0.00    +0.000 OA
ATOM      2  N   UNL     1       4.742 -27.249 -12.017  0.00  0.00    +0.000 N 
ATOM      3  N   UNL     1       3.115 -27.635 -14.285  0.00  0.00    +0.000 N 
ATOM      4  N   UNL     1       3.962 -29.312 -11.105  0.00  0.00    +0.000 NA
ATOM      5  N   UNL     1       2.407 -30.655 -12.233  0.00  0.00    +0.000 NA
ATOM      6  C   UNL     1       4.759 -26.292 -13.008  0.00  0.00    +0.000 C 
ATOM      7  C   UNL     1       3.939 -28.404 -12.109  0.00  0.00    +0.000 A 
ATOM      8  C   UNL     1       3.900 -26.463 -14.237  0.00  0.00    +0.000 C 
ATOM      9  C   UNL     1       3.148 -28.580 -13.223  0.00  0.00    +0.000 A 
ATOM     10  C   UNL     1       5.644 -25.059 -12.863  0.00  0.00    +0.000 C 
ATOM     11  C   UNL     1       2.224 -27.973 -15.390  0.00  0.00    +0.000 C 
ATOM     12  C   UNL     1       2.402 -29.738 -13.218  0.00  0.00    +0.000 A 
ATOM     13  C   UNL     1       3.199 -30.411 -11.190  0.00  0.00    +0.000 A 
ATOM     14  N   UNL     1       3.196 -31.365 -10.182  0.00  0.00    +0.000 N 
ATOM     15  H   UNL     1       2.567 -32.127 -10.405  0.00  0.00    +0.000 HD
ENDROOT
BRANCH  14  16
ATOM     16  C   UNL     1       3.891 -31.435  -8.969  0.00  0.00    +0.000 A 
ATOM     17  C   UNL     1       5.072 -32.187  -8.902  0.00  0.00    +0.000 A 
ATOM     18  C   UNL     1       5.792 -32.279  -7.711  0.00  0.00    +0.000 A 
ATOM     19  F   UNL     1       6.917 -33.008  -7.687  0.00  0.00    +0.000 F 
ATOM     20  C   UNL     1       5.349 -31.628  -6.568  0.00  0.00    +0.000 A 
ATOM     21  C   UNL     1       4.180 -30.883  -6.627  0.00  0.00    +0.000 A 
ATOM     22  F   UNL     1       3.743 -30.248  -5.530  0.00  0.00    +0.000 F 
ATOM     23  C   UNL     1       3.457 -30.784  -7.812  0.00  0.00    +0.000 A 
BRANCH  20  24
ATOM     24  O   UNL     1       6.059 -31.724  -5.405  0.00  0.00    +0.000 OA
ATOM     25  H   UNL     1       5.510 -31.358  -4.685  0.00  0.00    +0.000 HD
ENDBRANCH  20  24
ENDBRANCH  14  16
BRANCH   2  26
ATOM     26  C   UNL     1       5.570 -27.086 -10.824  0.00  0.00    +0.000 C 
ATOM     27  C   UNL     1       6.442 -26.912  -9.574  0.00  0.00    +0.000 C 
BRANCH  27  28
ATOM     28  C   UNL     1       7.241 -26.755  -8.421  0.00  0.00    +0.000 C 
ATOM     29  C   UNL     1       8.275 -25.671  -8.372  0.00  0.00    +0.000 C 
ATOM     30  C   UNL     1       7.088 -27.703  -7.272  0.00  0.00    +0.000 C 
ENDBRANCH  27  28
ENDBRANCH   2  26
TORSDOF 4
ENDMDL
MODEL 3
REMARK VINA RESULT:      -5.3     17.452     19.085
REMARK  Name = 25023738_BI-D-1870.pdbqt.pdb
REMARK  4 active torsions:
REMARK  status: ('A' for Active; 'I' for Inactive)
REMARK    1  A    between atoms: N_2  and  C_26
REMARK    2  A    between atoms: N_14  and  C_16
REMARK    3  A    between atoms: C_20  and  O_24
REMARK    4  A    between atoms: C_27  and  C_28
REMARK                            x       y       z     vdW  Elec       q    Type
REMARK                         _______ _______ _______ _____ _____    ______ ____
ROOT
ATOM      1  O   UNL     1       2.921 -21.234   0.126  0.00  0.00    +0.000 OA
ATOM      2  N   UNL     1       0.138 -18.945  -0.193  0.00  0.00    +0.000 N 
ATOM      3  N   UNL     1       2.790 -19.255  -1.095  0.00  0.00    +0.000 N 
ATOM      4  N   UNL     1      -0.046 -16.912  -1.428  0.00  0.00    +0.000 NA
ATOM      5  N   UNL     1       1.731 -16.073  -2.706  0.00  0.00    +0.000 NA
ATOM      6  C   UNL     1       0.849 -20.050   0.223  0.00  0.00    +0.000 C 
ATOM      7  C   UNL     1       0.699 -17.976  -1.050  0.00  0.00    +0.000 A 
ATOM      8  C   UNL     1       2.272 -20.249  -0.238  0.00  0.00    +0.000 C 
ATOM      9  C   UNL     1       1.996 -18.141  -1.483  0.00  0.00    +0.000 A 
ATOM     10  C   UNL     1       0.199 -21.070   1.152  0.00  0.00    +0.000 C 
ATOM     11  C   UNL     1       4.142 -19.276  -1.643  0.00  0.00    +0.000 C 
ATOM     12  C   UNL     1       2.452 -17.142  -2.316  0.00  0.00    +0.000 A 
ATOM     13  C   UNL     1       0.486 -15.989  -2.243  0.00  0.00    +0.000 A 
ATOM     14  N   UNL     1      -0.247 -14.883  -2.653  0.00  0.00    +0.000 N 
ATOM     15  H   UNL     1       0.303 -14.290  -3.263  0.00  0.00    +0.000 HD
ENDROOT
BRANCH  14  16
ATOM     16  C   UNL     1      -1.557 -14.482  -2.371  0.00  0.00    +0.000 A 
ATOM     17  C   UNL     1      -2.624 -15.149  -2.989  0.00  0.00    +0.000 A 
ATOM     18  C   UNL     1      -3.943 -14.777  -2.732  0.00  0.00    +0.000 A 
ATOM     19  F   UNL     1      -4.935 -15.440  -3.344  0.00  0.00    +0.000 F 
ATOM     20  C   UNL     1      -4.223 -13.737  -1.857  0.00  0.00    +0.000 A 
ATOM     21  C   UNL     1      -3.173 -13.071  -1.242  0.00  0.00    +0.000 A 
ATOM     22  F   UNL     1      -3.432 -12.065  -0.393  0.00  0.00    +0.000 F 
ATOM     23  C   UNL     1      -1.853 -13.437  -1.492  0.00  0.00    +0.000 A 
BRANCH  20  24
ATOM     24  O   UNL     1      -5.519 -13.378  -1.610  0.00  0.00    +0.000 OA
ATOM     25  H   UNL     1      -5.779 -12.711  -2.275  0.00  0.00    +0.000 HD
ENDBRANCH  20  24
ENDBRANCH  14  16
BRANCH   2  26
ATOM     26  C   UNL     1      -1.239 -18.747   0.253  0.00  0.00    +0.000 C 
ATOM     27  C   UNL     1      -2.685 -18.543   0.720  0.00  0.00    +0.000 C 
BRANCH  27  28
ATOM     28  C   UNL     1      -4.016 -18.351   1.152  0.00  0.00    +0.000 C 
ATOM     29  C   UNL     1      -5.030 -17.774   0.212  0.00  0.00    +0.000 C 
ATOM     30  C   UNL     1      -4.397 -18.675   2.564  0.00  0.00    +0.000 C 
ENDBRANCH  27  28
ENDBRANCH   2  26
TORSDOF 4
ENDMDL
MODEL 4
REMARK VINA RESULT:      -5.3      2.063      5.026
REMARK  Name = 25023738_BI-D-1870.pdbqt.pdb
REMARK  4 active torsions:
REMARK  status: ('A' for Active; 'I' for Inactive)
REMARK    1  A    between atoms: N_2  and  C_26
REMARK    2  A    between atoms: N_14  and  C_16
REMARK    3  A    between atoms: C_20  and  O_24
REMARK    4  A    between atoms: C_27  and  C_28
REMARK                            x       y       z     vdW  Elec       q    Type
REMARK                         _______ _______ _______ _____ _____    ______ ____
ROOT
ATOM      1  O   UNL     1      -3.986 -34.587  -8.625  0.00  0.00    +0.000 OA
ATOM      2  N   UNL     1      -4.789 -34.868  -5.108  0.00  0.00    +0.000 N 
ATOM      3  N   UNL     1      -3.149 -36.085  -7.050  0.00  0.00    +0.000 N 
ATOM      4  N   UNL     1      -3.963 -36.380  -3.459  0.00  0.00    +0.000 NA
ATOM      5  N   UNL     1      -2.375 -38.027  -3.973  0.00  0.00    +0.000 NA
ATOM      6  C   UNL     1      -4.827 -34.384  -6.398  0.00  0.00    +0.000 C 
ATOM      7  C   UNL     1      -3.959 -35.947  -4.741  0.00  0.00    +0.000 A 
ATOM      8  C   UNL     1      -3.963 -35.010  -7.465  0.00  0.00    +0.000 C 
ATOM      9  C   UNL     1      -3.163 -36.532  -5.700  0.00  0.00    +0.000 A 
ATOM     10  C   UNL     1      -5.742 -33.215  -6.748  0.00  0.00    +0.000 C 
ATOM     11  C   UNL     1      -2.249 -36.815  -7.936  0.00  0.00    +0.000 C 
ATOM     12  C   UNL     1      -2.390 -37.576  -5.241  0.00  0.00    +0.000 A 
ATOM     13  C   UNL     1      -3.174 -37.407  -3.107  0.00  0.00    +0.000 A 
ATOM     14  N   UNL     1      -3.149 -37.880  -1.802  0.00  0.00    +0.000 N 
ATOM     15  H   UNL     1      -2.503 -38.654  -1.710  0.00  0.00    +0.000 HD
ENDROOT
BRANCH  14  16
ATOM     16  C   UNL     1      -3.841 -37.475  -0.655  0.00  0.00    +0.000 A 
ATOM     17  C   UNL     1      -3.120 -37.197   0.515  0.00  0.00    +0.000 A 
ATOM     18  C   UNL     1      -3.774 -36.791   1.676  0.00  0.00    +0.000 A 
ATOM     19  F   UNL     1      -3.049 -36.534   2.775  0.00  0.00    +0.000 F 
ATOM     20  C   UNL     1      -5.156 -36.655   1.696  0.00  0.00    +0.000 A 
ATOM     21  C   UNL     1      -5.877 -36.930   0.542  0.00  0.00    +0.000 A 
ATOM     22  F   UNL     1      -7.212 -36.801   0.548  0.00  0.00    +0.000 F 
ATOM     23  C   UNL     1      -5.230 -37.335  -0.622  0.00  0.00    +0.000 A 
BRANCH  20  24
ATOM     24  O   UNL     1      -5.791 -36.257   2.838  0.00  0.00    +0.000 OA
ATOM     25  H   UNL     1      -6.220 -37.040   3.234  0.00  0.00    +0.000 HD
ENDBRANCH  20  24
ENDBRANCH  14  16
BRANCH   2  26
ATOM     26  C   UNL     1      -5.626 -34.266  -4.073  0.00  0.00    +0.000 C 
ATOM     27  C   UNL     1      -6.502 -33.629  -2.987  0.00  0.00    +0.000 C 
BRANCH  27  28
ATOM     28  C   UNL     1      -7.311 -33.048  -1.986  0.00  0.00    +0.000 C 
ATOM     29  C   UNL     1      -7.247 -33.564  -0.581  0.00  0.00    +0.000 C 
ATOM     30  C   UNL     1      -8.267 -31.952  -2.343  0.00  0.00    +0.000 C 
ENDBRANCH  27  28
ENDBRANCH   2  26
TORSDOF 4
ENDMDL
MODEL 5
REMARK VINA RESULT:      -5.3     18.011     19.407
REMARK  Name = 25023738_BI-D-1870.pdbqt.pdb
REMARK  4 active torsions:
REMARK  status: ('A' for Active; 'I' for Inactive)
REMARK    1  A    between atoms: N_2  and  C_26
REMARK    2  A    between atoms: N_14  and  C_16
REMARK    3  A    between atoms: C_20  and  O_24
REMARK    4  A    between atoms: C_27  and  C_28
REMARK                            x       y       z     vdW  Elec       q    Type
REMARK                         _______ _______ _______ _____ _____    ______ ____
ROOT
ATOM      1  O   UNL     1     -15.733 -18.532  -0.263  0.00  0.00    +0.000 OA
ATOM      2  N   UNL     1     -12.607 -18.321   1.546  0.00  0.00    +0.000 N 
ATOM      3  N   UNL     1     -15.005 -19.800   1.551  0.00  0.00    +0.000 N 
ATOM      4  N   UNL     1     -11.818 -19.592   3.404  0.00  0.00    +0.000 NA
ATOM      5  N   UNL     1     -13.101 -21.297   4.374  0.00  0.00    +0.000 NA
ATOM      6  C   UNL     1     -13.567 -18.020   0.604  0.00  0.00    +0.000 C 
ATOM      7  C   UNL     1     -12.794 -19.340   2.503  0.00  0.00    +0.000 A 
ATOM      8  C   UNL     1     -14.864 -18.790   0.576  0.00  0.00    +0.000 C 
ATOM      9  C   UNL     1     -13.972 -20.054   2.494  0.00  0.00    +0.000 A 
ATOM     10  C   UNL     1     -13.318 -16.908  -0.409  0.00  0.00    +0.000 C 
ATOM     11  C   UNL     1     -16.186 -20.648   1.680  0.00  0.00    +0.000 C 
ATOM     12  C   UNL     1     -14.057 -21.027   3.466  0.00  0.00    +0.000 A 
ATOM     13  C   UNL     1     -11.993 -20.561   4.315  0.00  0.00    +0.000 A 
ATOM     14  N   UNL     1     -11.015 -20.850   5.257  0.00  0.00    +0.000 N 
ATOM     15  H   UNL     1     -11.308 -21.605   5.864  0.00  0.00    +0.000 HD
ENDROOT
BRANCH  14  16
ATOM     16  C   UNL     1      -9.752 -20.292   5.483  0.00  0.00    +0.000 A 
ATOM     17  C   UNL     1      -8.769 -21.061   6.122  0.00  0.00    +0.000 A 
ATOM     18  C   UNL     1      -7.500 -20.538   6.364  0.00  0.00    +0.000 A 
ATOM     19  F   UNL     1      -6.588 -21.306   6.978  0.00  0.00    +0.000 F 
ATOM     20  C   UNL     1      -7.186 -19.243   5.976  0.00  0.00    +0.000 A 
ATOM     21  C   UNL     1      -8.153 -18.475   5.344  0.00  0.00    +0.000 A 
ATOM     22  F   UNL     1      -7.861 -17.223   4.963  0.00  0.00    +0.000 F 
ATOM     23  C   UNL     1      -9.422 -18.990   5.097  0.00  0.00    +0.000 A 
BRANCH  20  24
ATOM     24  O   UNL     1      -5.939 -18.737   6.217  0.00  0.00    +0.000 OA
ATOM     25  H   UNL     1      -5.771 -18.028   5.568  0.00  0.00    +0.000 HD
ENDBRANCH  20  24
ENDBRANCH  14  16
BRANCH   2  26
ATOM     26  C   UNL     1     -11.350 -17.576   1.579  0.00  0.00    +0.000 C 
ATOM     27  C   UNL     1     -10.029 -16.799   1.614  0.00  0.00    +0.000 C 
BRANCH  27  28
ATOM     28  C   UNL     1      -8.814 -16.079   1.645  0.00  0.00    +0.000 C 
ATOM     29  C   UNL     1      -8.826 -14.589   1.494  0.00  0.00    +0.000 C 
ATOM     30  C   UNL     1      -7.515 -16.812   1.776  0.00  0.00    +0.000 C 
ENDBRANCH  27  28
ENDBRANCH   2  26
TORSDOF 4
ENDMDL
MODEL 6
REMARK VINA RESULT:      -5.0      3.134      5.934
REMARK  Name = 25023738_BI-D-1870.pdbqt.pdb
REMARK  4 active torsions:
REMARK  status: ('A' for Active; 'I' for Inactive)
REMARK    1  A    between atoms: N_2  and  C_26
REMARK    2  A    between atoms: N_14  and  C_16
REMARK    3  A    between atoms: C_20  and  O_24
REMARK    4  A    between atoms: C_27  and  C_28
REMARK                            x       y       z     vdW  Elec       q    Type
REMARK                         _______ _______ _______ _____ _____    ______ ____
ROOT
ATOM      1  O   UNL     1      -5.298 -34.062  -7.005  0.00  0.00    +0.000 OA
ATOM      2  N   UNL     1      -5.173 -35.301  -3.608  0.00  0.00    +0.000 N 
ATOM      3  N   UNL     1      -3.702 -35.434  -6.008  0.00  0.00    +0.000 N 
ATOM      4  N   UNL     1      -3.565 -36.705  -2.543  0.00  0.00    +0.000 NA
ATOM      5  N   UNL     1      -1.691 -37.530  -3.684  0.00  0.00    +0.000 NA
ATOM      6  C   UNL     1      -5.647 -34.620  -4.709  0.00  0.00    +0.000 C 
ATOM      7  C   UNL     1      -3.983 -36.056  -3.654  0.00  0.00    +0.000 A 
ATOM      8  C   UNL     1      -4.886 -34.667  -6.011  0.00  0.00    +0.000 C 
ATOM      9  C   UNL     1      -3.274 -36.112  -4.834  0.00  0.00    +0.000 A 
ATOM     10  C   UNL     1      -6.940 -33.817  -4.611  0.00  0.00    +0.000 C 
ATOM     11  C   UNL     1      -2.835 -35.598  -7.170  0.00  0.00    +0.000 C 
ATOM     12  C   UNL     1      -2.127 -36.874  -4.775  0.00  0.00    +0.000 A 
ATOM     13  C   UNL     1      -2.434 -37.424  -2.584  0.00  0.00    +0.000 A 
ATOM     14  N   UNL     1      -1.972 -38.104  -1.465  0.00  0.00    +0.000 N 
ATOM     15  H   UNL     1      -1.109 -38.593  -1.668  0.00  0.00    +0.000 HD
ENDROOT
BRANCH  14  16
ATOM     16  C   UNL     1      -2.485 -38.211  -0.167  0.00  0.00    +0.000 A 
ATOM     17  C   UNL     1      -2.747 -39.482   0.361  0.00  0.00    +0.000 A 
ATOM     18  C   UNL     1      -3.258 -39.628   1.649  0.00  0.00    +0.000 A 
ATOM     19  F   UNL     1      -3.496 -40.862   2.118  0.00  0.00    +0.000 F 
ATOM     20  C   UNL     1      -3.519 -38.513   2.434  0.00  0.00    +0.000 A 
ATOM     21  C   UNL     1      -3.263 -37.251   1.918  0.00  0.00    +0.000 A 
ATOM     22  F   UNL     1      -3.509 -36.166   2.667  0.00  0.00    +0.000 F 
ATOM     23  C   UNL     1      -2.751 -37.097   0.633  0.00  0.00    +0.000 A 
BRANCH  20  24
ATOM     24  O   UNL     1      -4.021 -38.664   3.696  0.00  0.00    +0.000 OA
ATOM     25  H   UNL     1      -3.396 -39.216   4.205  0.00  0.00    +0.000 HD
ENDBRANCH  20  24
ENDBRANCH  14  16
BRANCH   2  26
ATOM     26  C   UNL     1      -5.907 -35.259  -2.346  0.00  0.00    +0.000 C 
ATOM     27  C   UNL     1      -6.682 -35.219  -1.023  0.00  0.00    +0.000 C 
BRANCH  27  28
ATOM     28  C   UNL     1      -7.391 -35.178   0.198  0.00  0.00    +0.000 C 
ATOM     29  C   UNL     1      -6.802 -35.806   1.424  0.00  0.00    +0.000 C 
ATOM     30  C   UNL     1      -8.752 -34.555   0.250  0.00  0.00    +0.000 C 
ENDBRANCH  27  28
ENDBRANCH   2  26
TORSDOF 4
ENDMDL
MODEL 7
REMARK VINA RESULT:      -4.9     13.702     16.532
REMARK  Name = 25023738_BI-D-1870.pdbqt.pdb
REMARK  4 active torsions:
REMARK  status: ('A' for Active; 'I' for Inactive)
REMARK    1  A    between atoms: N_2  and  C_26
REMARK    2  A    between atoms: N_14  and  C_16
REMARK    3  A    between atoms: C_20  and  O_24
REMARK    4  A    between atoms: C_27  and  C_28
REMARK                            x       y       z     vdW  Elec       q    Type
REMARK                         _______ _______ _______ _____ _____    ______ ____
ROOT
ATOM      1  O   UNL     1      -1.394 -24.523 -20.533  0.00  0.00    +0.000 OA
ATOM      2  N   UNL     1      -4.457 -25.803 -19.095  0.00  0.00    +0.000 N 
ATOM      3  N   UNL     1      -1.717 -26.442 -19.254  0.00  0.00    +0.000 N 
ATOM      4  N   UNL     1      -4.838 -27.758 -17.782  0.00  0.00    +0.000 NA
ATOM      5  N   UNL     1      -3.102 -29.226 -17.212  0.00  0.00    +0.000 NA
ATOM      6  C   UNL     1      -3.625 -24.960 -19.799  0.00  0.00    +0.000 C 
ATOM      7  C   UNL     1      -3.976 -26.966 -18.460  0.00  0.00    +0.000 A 
ATOM      8  C   UNL     1      -2.152 -25.269 -19.906  0.00  0.00    +0.000 C 
ATOM      9  C   UNL     1      -2.634 -27.266 -18.546  0.00  0.00    +0.000 A 
ATOM     10  C   UNL     1      -4.193 -23.714 -20.471  0.00  0.00    +0.000 C 
ATOM     11  C   UNL     1      -0.333 -26.904 -19.246  0.00  0.00    +0.000 C 
ATOM     12  C   UNL     1      -2.264 -28.421 -17.892  0.00  0.00    +0.000 A 
ATOM     13  C   UNL     1      -4.383 -28.865 -17.176  0.00  0.00    +0.000 A 
ATOM     14  N   UNL     1      -5.237 -29.703 -16.471  0.00  0.00    +0.000 N 
ATOM     15  H   UNL     1      -4.732 -30.488 -16.079  0.00  0.00    +0.000 HD
ENDROOT
BRANCH  14  16
ATOM     16  C   UNL     1      -6.613 -29.634 -16.229  0.00  0.00    +0.000 A 
ATOM     17  C   UNL     1      -7.457 -30.595 -16.801  0.00  0.00    +0.000 A 
ATOM     18  C   UNL     1      -8.833 -30.559 -16.582  0.00  0.00    +0.000 A 
ATOM     19  F   UNL     1      -9.606 -31.498 -17.147  0.00  0.00    +0.000 F 
ATOM     20  C   UNL     1      -9.394 -29.565 -15.791  0.00  0.00    +0.000 A 
ATOM     21  C   UNL     1      -8.565 -28.608 -15.222  0.00  0.00    +0.000 A 
ATOM     22  F   UNL     1      -9.095 -27.644 -14.456  0.00  0.00    +0.000 F 
ATOM     23  C   UNL     1      -7.190 -28.639 -15.435  0.00  0.00    +0.000 A 
BRANCH  20  24
ATOM     24  O   UNL     1     -10.744 -29.535 -15.582  0.00  0.00    +0.000 OA
ATOM     25  H   UNL     1     -11.008 -30.392 -15.195  0.00  0.00    +0.000 HD
ENDBRANCH  20  24
ENDBRANCH  14  16
BRANCH   2  26
ATOM     26  C   UNL     1      -5.884 -25.509 -18.991  0.00  0.00    +0.000 C 
ATOM     27  C   UNL     1      -7.383 -25.202 -18.876  0.00  0.00    +0.000 C 
BRANCH  27  28
ATOM     28  C   UNL     1      -8.762 -24.917 -18.775  0.00  0.00    +0.000 C 
ATOM     29  C   UNL     1      -9.638 -25.766 -17.906  0.00  0.00    +0.000 C 
ATOM     30  C   UNL     1      -9.354 -23.799 -19.578  0.00  0.00    +0.000 C 
ENDBRANCH  27  28
ENDBRANCH   2  26
TORSDOF 4
ENDMDL
MODEL 8
REMARK VINA RESULT:      -4.8      2.960      4.546
REMARK  Name = 25023738_BI-D-1870.pdbqt.pdb
REMARK  4 active torsions:
REMARK  status: ('A' for Active; 'I' for Inactive)
REMARK    1  A    between atoms: N_2  and  C_26
REMARK    2  A    between atoms: N_14  and  C_16
REMARK    3  A    between atoms: C_20  and  O_24
REMARK    4  A    between atoms: C_27  and  C_28
REMARK                            x       y       z     vdW  Elec       q    Type
REMARK                         _______ _______ _______ _____ _____    ______ ____
ROOT
ATOM      1  O   UNL     1       0.118 -37.961 -11.767  0.00  0.00    +0.000 OA
ATOM      2  N   UNL     1      -1.626 -37.067  -8.726  0.00  0.00    +0.000 N 
ATOM      3  N   UNL     1      -1.036 -36.001 -11.267  0.00  0.00    +0.000 N 
ATOM      4  N   UNL     1      -2.820 -35.078  -8.167  0.00  0.00    +0.000 NA
ATOM      5  N   UNL     1      -3.023 -33.291  -9.670  0.00  0.00    +0.000 NA
ATOM      6  C   UNL     1      -0.883 -37.828  -9.602  0.00  0.00    +0.000 C 
ATOM      7  C   UNL     1      -2.093 -35.781  -9.067  0.00  0.00    +0.000 A 
ATOM      8  C   UNL     1      -0.547 -37.291 -10.972  0.00  0.00    +0.000 C 
ATOM      9  C   UNL     1      -1.797 -35.272 -10.312  0.00  0.00    +0.000 A 
ATOM     10  C   UNL     1      -0.399 -39.213  -9.187  0.00  0.00    +0.000 C 
ATOM     11  C   UNL     1      -0.814 -35.317 -12.537  0.00  0.00    +0.000 C 
ATOM     12  C   UNL     1      -2.299 -34.011 -10.548  0.00  0.00    +0.000 A 
ATOM     13  C   UNL     1      -3.265 -33.855  -8.488  0.00  0.00    +0.000 A 
ATOM     14  N   UNL     1      -4.013 -33.103  -7.593  0.00  0.00    +0.000 N 
ATOM     15  H   UNL     1      -4.267 -32.208  -7.994  0.00  0.00    +0.000 HD
ENDROOT
BRANCH  14  16
ATOM     16  C   UNL     1      -4.450 -33.375  -6.291  0.00  0.00    +0.000 A 
ATOM     17  C   UNL     1      -3.513 -33.758  -5.323  0.00  0.00    +0.000 A 
ATOM     18  C   UNL     1      -3.910 -34.037  -4.016  0.00  0.00    +0.000 A 
ATOM     19  F   UNL     1      -2.983 -34.401  -3.118  0.00  0.00    +0.000 F 
ATOM     20  C   UNL     1      -5.246 -33.940  -3.651  0.00  0.00    +0.000 A 
ATOM     21  C   UNL     1      -6.180 -33.562  -4.605  0.00  0.00    +0.000 A 
ATOM     22  F   UNL     1      -7.474 -33.464  -4.263  0.00  0.00    +0.000 F 
ATOM     23  C   UNL     1      -5.791 -33.281  -5.911  0.00  0.00    +0.000 A 
BRANCH  20  24
ATOM     24  O   UNL     1      -5.629 -34.216  -2.368  0.00  0.00    +0.000 OA
ATOM     25  H   UNL     1      -6.579 -34.440  -2.378  0.00  0.00    +0.000 HD
ENDBRANCH  20  24
ENDBRANCH  14  16
BRANCH   2  26
ATOM     26  C   UNL     1      -1.952 -37.583  -7.399  0.00  0.00    +0.000 C 
ATOM     27  C   UNL     1      -2.294 -38.119  -6.003  0.00  0.00    +0.000 C 
BRANCH  27  28
ATOM     28  C   UNL     1      -2.610 -38.618  -4.720  0.00  0.00    +0.000 C 
ATOM     29  C   UNL     1      -2.728 -40.095  -4.502  0.00  0.00    +0.000 C 
ATOM     30  C   UNL     1      -2.877 -37.666  -3.595  0.00  0.00    +0.000 C 
ENDBRANCH  27  28
ENDBRANCH   2  26
TORSDOF 4
ENDMDL
MODEL 9
REMARK VINA RESULT:      -4.8     15.836     17.893
REMARK  Name = 25023738_BI-D-1870.pdbqt.pdb
REMARK  4 active torsions:
REMARK  status: ('A' for Active; 'I' for Inactive)
REMARK    1  A    between atoms: N_2  and  C_26
REMARK    2  A    between atoms: N_14  and  C_16
REMARK    3  A    between atoms: C_20  and  O_24
REMARK    4  A    between atoms: C_27  and  C_28
REMARK                            x       y       z     vdW  Elec       q    Type
REMARK                         _______ _______ _______ _____ _____    ______ ____
ROOT
ATOM      1  O   UNL     1     -14.434 -26.686   4.288  0.00  0.00    +0.000 OA
ATOM      2  N   UNL     1     -13.779 -23.290   3.226  0.00  0.00    +0.000 N 
ATOM      3  N   UNL     1     -15.414 -25.484   2.550  0.00  0.00    +0.000 N 
ATOM      4  N   UNL     1     -14.752 -22.018   1.458  0.00  0.00    +0.000 NA
ATOM      5  N   UNL     1     -16.412 -22.906   0.061  0.00  0.00    +0.000 NA
ATOM      6  C   UNL     1     -13.666 -24.447   3.966  0.00  0.00    +0.000 C 
ATOM      7  C   UNL     1     -14.683 -23.179   2.150  0.00  0.00    +0.000 A 
ATOM      8  C   UNL     1     -14.524 -25.643   3.634  0.00  0.00    +0.000 C 
ATOM      9  C   UNL     1     -15.476 -24.259   1.830  0.00  0.00    +0.000 A 
ATOM     10  C   UNL     1     -12.672 -24.520   5.121  0.00  0.00    +0.000 C 
ATOM     11  C   UNL     1     -16.322 -26.526   2.082  0.00  0.00    +0.000 C 
ATOM     12  C   UNL     1     -16.325 -24.050   0.765  0.00  0.00    +0.000 A 
ATOM     13  C   UNL     1     -15.611 -21.910   0.433  0.00  0.00    +0.000 A 
ATOM     14  N   UNL     1     -15.711 -20.736  -0.301  0.00  0.00    +0.000 N 
ATOM     15  H   UNL     1     -16.405 -20.824  -1.033  0.00  0.00    +0.000 HD
ENDROOT
BRANCH  14  16
ATOM     16  C   UNL     1     -15.041 -19.513  -0.190  0.00  0.00    +0.000 A 
ATOM     17  C   UNL     1     -14.460 -18.946  -1.333  0.00  0.00    +0.000 A 
ATOM     18  C   UNL     1     -13.784 -17.729  -1.262  0.00  0.00    +0.000 A 
ATOM     19  F   UNL     1     -13.242 -17.221  -2.378  0.00  0.00    +0.000 F 
ATOM     20  C   UNL     1     -13.673 -17.055  -0.053  0.00  0.00    +0.000 A 
ATOM     21  C   UNL     1     -14.245 -17.610   1.083  0.00  0.00    +0.000 A 
ATOM     22  F   UNL     1     -14.145 -16.967   2.256  0.00  0.00    +0.000 F 
ATOM     23  C   UNL     1     -14.922 -18.824   1.020  0.00  0.00    +0.000 A 
BRANCH  20  24
ATOM     24  O   UNL     1     -13.009 -15.863   0.010  0.00  0.00    +0.000 OA
ATOM     25  H   UNL     1     -13.005 -15.472  -0.885  0.00  0.00    +0.000 HD
ENDBRANCH  20  24
ENDBRANCH  14  16
BRANCH   2  26
ATOM     26  C   UNL     1     -12.948 -22.131   3.543  0.00  0.00    +0.000 C 
ATOM     27  C   UNL     1     -12.078 -20.912   3.871  0.00  0.00    +0.000 C 
BRANCH  27  28
ATOM     28  C   UNL     1     -11.275 -19.791   4.178  0.00  0.00    +0.000 C 
ATOM     29  C   UNL     1     -10.302 -19.859   5.315  0.00  0.00    +0.000 C 
ATOM     30  C   UNL     1     -11.436 -18.522   3.399  0.00  0.00    +0.000 C 
ENDBRANCH  27  28
ENDBRANCH   2  26
TORSDOF 4
ENDMDL
