MODEL 1
REMARK VINA RESULT:      -3.9      0.000      0.000
REMARK  Name = 26879_Levamisole.pdbqt.pdb
REMARK  1 active torsions:
REMARK  status: ('A' for Active; 'I' for Inactive)
REMARK    1  A    between atoms: C_5  and  C_9
REMARK                            x       y       z     vdW  Elec       q    Type
REMARK                         _______ _______ _______ _____ _____    ______ ____
ROOT
ATOM      1  S   UNL     1       0.243 -19.920   0.338  0.00  0.00    +0.000 S 
ATOM      2  N   UNL     1      -2.380 -19.477   1.260  0.00  0.00    +0.000 NA
ATOM      3  N   UNL     1      -1.289 -17.738  -0.055  0.00  0.00    +0.000 NA
ATOM      4  C   UNL     1      -3.255 -18.654   0.484  0.00  0.00    +0.000 C 
ATOM      5  C   UNL     1      -2.632 -17.583  -0.178  0.00  0.00    +0.000 C 
ATOM      6  C   UNL     1      -2.185 -20.825   0.793  0.00  0.00    +0.000 C 
ATOM      7  C   UNL     1      -1.124 -18.848   0.725  0.00  0.00    +0.000 C 
ATOM      8  C   UNL     1      -0.818 -21.230   0.337  0.00  0.00    +0.000 C 
ENDROOT
BRANCH   5   9
ATOM      9  C   UNL     1      -3.257 -16.509  -0.934  0.00  0.00    +0.000 A 
ATOM     10  C   UNL     1      -3.270 -16.512  -2.333  0.00  0.00    +0.000 A 
ATOM     11  C   UNL     1      -3.858 -15.439  -0.265  0.00  0.00    +0.000 A 
ATOM     12  C   UNL     1      -3.870 -15.476  -3.045  0.00  0.00    +0.000 A 
ATOM     13  C   UNL     1      -4.459 -14.400  -0.972  0.00  0.00    +0.000 A 
ATOM     14  C   UNL     1      -4.465 -14.419  -2.363  0.00  0.00    +0.000 A 
ENDBRANCH   5   9
TORSDOF 1
ENDMDL
MODEL 2
REMARK VINA RESULT:      -3.9     13.366     14.307
REMARK  Name = 26879_Levamisole.pdbqt.pdb
REMARK  1 active torsions:
REMARK  status: ('A' for Active; 'I' for Inactive)
REMARK    1  A    between atoms: C_5  and  C_9
REMARK                            x       y       z     vdW  Elec       q    Type
REMARK                         _______ _______ _______ _____ _____    ______ ____
ROOT
ATOM      1  S   UNL     1       1.282 -16.645 -12.742  0.00  0.00    +0.000 S 
ATOM      2  N   UNL     1       0.052 -18.580 -14.375  0.00  0.00    +0.000 NA
ATOM      3  N   UNL     1      -1.344 -16.903 -13.287  0.00  0.00    +0.000 NA
ATOM      4  C   UNL     1      -1.147 -18.233 -15.072  0.00  0.00    +0.000 C 
ATOM      5  C   UNL     1      -2.001 -17.355 -14.385  0.00  0.00    +0.000 C 
ATOM      6  C   UNL     1       1.286 -18.093 -14.938  0.00  0.00    +0.000 C 
ATOM      7  C   UNL     1      -0.143 -17.557 -13.291  0.00  0.00    +0.000 C 
ATOM      8  C   UNL     1       2.090 -17.109 -14.147  0.00  0.00    +0.000 C 
ENDROOT
BRANCH   5   9
ATOM      9  C   UNL     1      -3.335 -16.917 -14.767  0.00  0.00    +0.000 A 
ATOM     10  C   UNL     1      -4.184 -17.733 -15.521  0.00  0.00    +0.000 A 
ATOM     11  C   UNL     1      -3.794 -15.654 -14.383  0.00  0.00    +0.000 A 
ATOM     12  C   UNL     1      -5.459 -17.300 -15.883  0.00  0.00    +0.000 A 
ATOM     13  C   UNL     1      -5.067 -15.216 -14.742  0.00  0.00    +0.000 A 
ATOM     14  C   UNL     1      -5.900 -16.040 -15.492  0.00  0.00    +0.000 A 
ENDBRANCH   5   9
TORSDOF 1
ENDMDL
MODEL 3
REMARK VINA RESULT:      -3.9      9.814     10.622
REMARK  Name = 26879_Levamisole.pdbqt.pdb
REMARK  1 active torsions:
REMARK  status: ('A' for Active; 'I' for Inactive)
REMARK    1  A    between atoms: C_5  and  C_9
REMARK                            x       y       z     vdW  Elec       q    Type
REMARK                         _______ _______ _______ _____ _____    ______ ____
ROOT
ATOM      1  S   UNL     1     -15.241 -20.576   0.802  0.00  0.00    +0.000 S 
ATOM      2  N   UNL     1     -12.890 -20.386   2.338  0.00  0.00    +0.000 NA
ATOM      3  N   UNL     1     -13.224 -18.815   0.505  0.00  0.00    +0.000 NA
ATOM      4  C   UNL     1     -12.278 -19.105   2.508  0.00  0.00    +0.000 C 
ATOM      5  C   UNL     1     -12.376 -18.248   1.400  0.00  0.00    +0.000 C 
ATOM      6  C   UNL     1     -14.051 -20.656   3.147  0.00  0.00    +0.000 C 
ATOM      7  C   UNL     1     -13.569 -20.021   1.048  0.00  0.00    +0.000 C 
ATOM      8  C   UNL     1     -15.367 -20.853   2.460  0.00  0.00    +0.000 C 
ENDROOT
BRANCH   5   9
ATOM      9  C   UNL     1     -11.759 -16.944   1.216  0.00  0.00    +0.000 A 
ATOM     10  C   UNL     1     -10.407 -16.728   1.502  0.00  0.00    +0.000 A 
ATOM     11  C   UNL     1     -12.519 -15.868   0.749  0.00  0.00    +0.000 A 
ATOM     12  C   UNL     1      -9.828 -15.473   1.324  0.00  0.00    +0.000 A 
ATOM     13  C   UNL     1     -11.946 -14.611   0.569  0.00  0.00    +0.000 A 
ATOM     14  C   UNL     1     -10.600 -14.414   0.857  0.00  0.00    +0.000 A 
ENDBRANCH   5   9
TORSDOF 1
ENDMDL
MODEL 4
REMARK VINA RESULT:      -3.8      2.750      4.279
REMARK  Name = 26879_Levamisole.pdbqt.pdb
REMARK  1 active torsions:
REMARK  status: ('A' for Active; 'I' for Inactive)
REMARK    1  A    between atoms: C_5  and  C_9
REMARK                            x       y       z     vdW  Elec       q    Type
REMARK                         _______ _______ _______ _____ _____    ______ ____
ROOT
ATOM      1  S   UNL     1      -1.832 -17.436  -0.118  0.00  0.00    +0.000 S 
ATOM      2  N   UNL     1      -2.736 -16.049  -2.396  0.00  0.00    +0.000 NA
ATOM      3  N   UNL     1      -4.064 -15.944  -0.354  0.00  0.00    +0.000 NA
ATOM      4  C   UNL     1      -3.495 -14.850  -2.218  0.00  0.00    +0.000 C 
ATOM      5  C   UNL     1      -4.346 -14.846  -1.100  0.00  0.00    +0.000 C 
ATOM      6  C   UNL     1      -1.311 -15.938  -2.217  0.00  0.00    +0.000 C 
ATOM      7  C   UNL     1      -3.107 -16.621  -1.056  0.00  0.00    +0.000 C 
ATOM      8  C   UNL     1      -0.675 -16.684  -1.085  0.00  0.00    +0.000 C 
ENDROOT
BRANCH   5   9
ATOM      9  C   UNL     1      -5.326 -13.839  -0.721  0.00  0.00    +0.000 A 
ATOM     10  C   UNL     1      -5.922 -13.841   0.544  0.00  0.00    +0.000 A 
ATOM     11  C   UNL     1      -5.694 -12.844  -1.630  0.00  0.00    +0.000 A 
ATOM     12  C   UNL     1      -6.862 -12.872   0.893  0.00  0.00    +0.000 A 
ATOM     13  C   UNL     1      -6.633 -11.873  -1.286  0.00  0.00    +0.000 A 
ATOM     14  C   UNL     1      -7.216 -11.887  -0.024  0.00  0.00    +0.000 A 
ENDBRANCH   5   9
TORSDOF 1
ENDMDL
MODEL 5
REMARK VINA RESULT:      -3.7      4.735      6.008
REMARK  Name = 26879_Levamisole.pdbqt.pdb
REMARK  1 active torsions:
REMARK  status: ('A' for Active; 'I' for Inactive)
REMARK    1  A    between atoms: C_5  and  C_9
REMARK                            x       y       z     vdW  Elec       q    Type
REMARK                         _______ _______ _______ _____ _____    ______ ____
ROOT
ATOM      1  S   UNL     1       3.135 -14.292  -3.402  0.00  0.00    +0.000 S 
ATOM      2  N   UNL     1       1.179 -15.060  -5.275  0.00  0.00    +0.000 NA
ATOM      3  N   UNL     1       0.559 -14.921  -2.921  0.00  0.00    +0.000 NA
ATOM      4  C   UNL     1      -0.189 -14.731  -5.018  0.00  0.00    +0.000 C 
ATOM      5  C   UNL     1      -0.565 -14.768  -3.666  0.00  0.00    +0.000 C 
ATOM      6  C   UNL     1       2.014 -13.993  -5.763  0.00  0.00    +0.000 C 
ATOM      7  C   UNL     1       1.577 -15.040  -3.826  0.00  0.00    +0.000 C 
ATOM      8  C   UNL     1       3.147 -13.525  -4.902  0.00  0.00    +0.000 C 
ENDROOT
BRANCH   5   9
ATOM      9  C   UNL     1      -1.896 -14.608  -3.099  0.00  0.00    +0.000 A 
ATOM     10  C   UNL     1      -2.977 -15.375  -3.544  0.00  0.00    +0.000 A 
ATOM     11  C   UNL     1      -2.118 -13.667  -2.089  0.00  0.00    +0.000 A 
ATOM     12  C   UNL     1      -4.247 -15.209  -2.994  0.00  0.00    +0.000 A 
ATOM     13  C   UNL     1      -3.386 -13.497  -1.536  0.00  0.00    +0.000 A 
ATOM     14  C   UNL     1      -4.450 -14.269  -1.989  0.00  0.00    +0.000 A 
ENDBRANCH   5   9
TORSDOF 1
ENDMDL
MODEL 6
REMARK VINA RESULT:      -3.7     16.012     18.223
REMARK  Name = 26879_Levamisole.pdbqt.pdb
REMARK  1 active torsions:
REMARK  status: ('A' for Active; 'I' for Inactive)
REMARK    1  A    between atoms: C_5  and  C_9
REMARK                            x       y       z     vdW  Elec       q    Type
REMARK                         _______ _______ _______ _____ _____    ______ ____
ROOT
ATOM      1  S   UNL     1     -16.428  -2.633  -5.988  0.00  0.00    +0.000 S 
ATOM      2  N   UNL     1     -16.175  -5.201  -4.863  0.00  0.00    +0.000 NA
ATOM      3  N   UNL     1     -14.512  -4.462  -6.485  0.00  0.00    +0.000 NA
ATOM      4  C   UNL     1     -14.868  -5.758  -4.699  0.00  0.00    +0.000 C 
ATOM      5  C   UNL     1     -13.948  -5.418  -5.705  0.00  0.00    +0.000 C 
ATOM      6  C   UNL     1     -16.579  -4.216  -3.892  0.00  0.00    +0.000 C 
ATOM      7  C   UNL     1     -15.773  -4.288  -5.987  0.00  0.00    +0.000 C 
ATOM      8  C   UNL     1     -16.823  -2.815  -4.359  0.00  0.00    +0.000 C 
ENDROOT
BRANCH   5   9
ATOM      9  C   UNL     1     -12.594  -5.918  -5.888  0.00  0.00    +0.000 A 
ATOM     10  C   UNL     1     -11.531  -5.452  -5.108  0.00  0.00    +0.000 A 
ATOM     11  C   UNL     1     -12.329  -6.881  -6.866  0.00  0.00    +0.000 A 
ATOM     12  C   UNL     1     -10.238  -5.936  -5.296  0.00  0.00    +0.000 A 
ATOM     13  C   UNL     1     -11.038  -7.369  -7.058  0.00  0.00    +0.000 A 
ATOM     14  C   UNL     1      -9.993  -6.896  -6.272  0.00  0.00    +0.000 A 
ENDBRANCH   5   9
TORSDOF 1
ENDMDL
MODEL 7
REMARK VINA RESULT:      -3.6     17.194     19.065
REMARK  Name = 26879_Levamisole.pdbqt.pdb
REMARK  1 active torsions:
REMARK  status: ('A' for Active; 'I' for Inactive)
REMARK    1  A    between atoms: C_5  and  C_9
REMARK                            x       y       z     vdW  Elec       q    Type
REMARK                         _______ _______ _______ _____ _____    ______ ____
ROOT
ATOM      1  S   UNL     1      -6.017 -38.560  -6.918  0.00  0.00    +0.000 S 
ATOM      2  N   UNL     1      -6.596 -36.045  -5.793  0.00  0.00    +0.000 NA
ATOM      3  N   UNL     1      -4.536 -36.314  -7.070  0.00  0.00    +0.000 NA
ATOM      4  C   UNL     1      -6.126 -34.868  -6.455  0.00  0.00    +0.000 C 
ATOM      5  C   UNL     1      -4.880 -35.001  -7.090  0.00  0.00    +0.000 C 
ATOM      6  C   UNL     1      -7.763 -36.675  -6.355  0.00  0.00    +0.000 C 
ATOM      7  C   UNL     1      -5.533 -36.937  -6.372  0.00  0.00    +0.000 C 
ATOM      8  C   UNL     1      -7.624 -38.051  -6.928  0.00  0.00    +0.000 C 
ENDROOT
BRANCH   5   9
ATOM      9  C   UNL     1      -4.085 -33.967  -7.734  0.00  0.00    +0.000 A 
ATOM     10  C   UNL     1      -3.029 -34.285  -8.593  0.00  0.00    +0.000 A 
ATOM     11  C   UNL     1      -4.366 -32.618  -7.496  0.00  0.00    +0.000 A 
ATOM     12  C   UNL     1      -2.274 -33.284  -9.202  0.00  0.00    +0.000 A 
ATOM     13  C   UNL     1      -3.615 -31.613  -8.102  0.00  0.00    +0.000 A 
ATOM     14  C   UNL     1      -2.568 -31.947  -8.955  0.00  0.00    +0.000 A 
ENDBRANCH   5   9
TORSDOF 1
ENDMDL
MODEL 8
REMARK VINA RESULT:      -3.5     15.792     16.225
REMARK  Name = 26879_Levamisole.pdbqt.pdb
REMARK  1 active torsions:
REMARK  status: ('A' for Active; 'I' for Inactive)
REMARK    1  A    between atoms: C_5  and  C_9
REMARK                            x       y       z     vdW  Elec       q    Type
REMARK                         _______ _______ _______ _____ _____    ______ ____
ROOT
ATOM      1  S   UNL     1      -3.164 -18.912 -18.199  0.00  0.00    +0.000 S 
ATOM      2  N   UNL     1      -4.694 -19.591 -15.935  0.00  0.00    +0.000 NA
ATOM      3  N   UNL     1      -4.620 -17.260 -16.646  0.00  0.00    +0.000 NA
ATOM      4  C   UNL     1      -5.860 -18.820 -15.633  0.00  0.00    +0.000 C 
ATOM      5  C   UNL     1      -5.763 -17.453 -15.940  0.00  0.00    +0.000 C 
ATOM      6  C   UNL     1      -4.822 -20.561 -16.993  0.00  0.00    +0.000 C 
ATOM      7  C   UNL     1      -4.017 -18.486 -16.696  0.00  0.00    +0.000 C 
ATOM      8  C   UNL     1      -4.010 -20.370 -18.236  0.00  0.00    +0.000 C 
ENDROOT
BRANCH   5   9
ATOM      9  C   UNL     1      -6.718 -16.396 -15.642  0.00  0.00    +0.000 A 
ATOM     10  C   UNL     1      -8.085 -16.662 -15.511  0.00  0.00    +0.000 A 
ATOM     11  C   UNL     1      -6.278 -15.079 -15.484  0.00  0.00    +0.000 A 
ATOM     12  C   UNL     1      -8.989 -15.640 -15.228  0.00  0.00    +0.000 A 
ATOM     13  C   UNL     1      -7.178 -14.053 -15.202  0.00  0.00    +0.000 A 
ATOM     14  C   UNL     1      -8.534 -14.334 -15.073  0.00  0.00    +0.000 A 
ENDBRANCH   5   9
TORSDOF 1
ENDMDL
MODEL 9
REMARK VINA RESULT:      -3.4     12.185     13.591
REMARK  Name = 26879_Levamisole.pdbqt.pdb
REMARK  1 active torsions:
REMARK  status: ('A' for Active; 'I' for Inactive)
REMARK    1  A    between atoms: C_5  and  C_9
REMARK                            x       y       z     vdW  Elec       q    Type
REMARK                         _______ _______ _______ _____ _____    ______ ____
ROOT
ATOM      1  S   UNL     1      -5.236  -7.313  -8.211  0.00  0.00    +0.000 S 
ATOM      2  N   UNL     1      -3.453  -9.492  -8.182  0.00  0.00    +0.000 NA
ATOM      3  N   UNL     1      -5.048  -9.305 -10.016  0.00  0.00    +0.000 NA
ATOM      4  C   UNL     1      -3.025 -10.050  -9.427  0.00  0.00    +0.000 C 
ATOM      5  C   UNL     1      -3.993 -10.043 -10.445  0.00  0.00    +0.000 C 
ATOM      6  C   UNL     1      -2.820  -8.262  -7.779  0.00  0.00    +0.000 C 
ATOM      7  C   UNL     1      -4.735  -8.938  -8.737  0.00  0.00    +0.000 C 
ATOM      8  C   UNL     1      -3.662  -7.028  -7.678  0.00  0.00    +0.000 C 
ENDROOT
BRANCH   5   9
ATOM      9  C   UNL     1      -3.909 -10.643 -11.768  0.00  0.00    +0.000 A 
ATOM     10  C   UNL     1      -2.842 -10.366 -12.629  0.00  0.00    +0.000 A 
ATOM     11  C   UNL     1      -4.909 -11.514 -12.207  0.00  0.00    +0.000 A 
ATOM     12  C   UNL     1      -2.776 -10.945 -13.895  0.00  0.00    +0.000 A 
ATOM     13  C   UNL     1      -4.848 -12.096 -13.471  0.00  0.00    +0.000 A 
ATOM     14  C   UNL     1      -3.780 -11.811 -14.315  0.00  0.00    +0.000 A 
ENDBRANCH   5   9
TORSDOF 1
ENDMDL
