MODEL 1
REMARK VINA RESULT:      -3.9      0.000      0.000
REMARK  Name = 27924_Phorbol.pdbqt.pdb
REMARK  26 active torsions:
REMARK  status: ('A' for Active; 'I' for Inactive)
REMARK    1  A    between atoms: O_1  and  C_10
REMARK    2  A    between atoms: O_1  and  C_26
REMARK    3  A    between atoms: O_2  and  C_13
REMARK    4  A    between atoms: O_2  and  C_28
REMARK    5  A    between atoms: O_3  and  C_14
REMARK    6  A    between atoms: O_4  and  C_20
REMARK    7  A    between atoms: O_7  and  C_29
REMARK    8  A    between atoms: C_11  and  C_16
REMARK    9  A    between atoms: C_11  and  C_17
REMARK   10  A    between atoms: C_15  and  C_21
REMARK   11  A    between atoms: C_22  and  C_29
REMARK   12  A    between atoms: C_26  and  C_30
REMARK   13  A    between atoms: C_27  and  C_31
REMARK   14  A    between atoms: C_28  and  C_32
REMARK   15  A    between atoms: C_32  and  C_33
REMARK   16  A    between atoms: C_33  and  C_34
REMARK   17  A    between atoms: C_34  and  C_35
REMARK   18  A    between atoms: C_35  and  C_36
REMARK   19  A    between atoms: C_36  and  C_37
REMARK   20  A    between atoms: C_37  and  C_38
REMARK   21  A    between atoms: C_38  and  C_39
REMARK   22  A    between atoms: C_39  and  C_40
REMARK   23  A    between atoms: C_40  and  C_41
REMARK   24  A    between atoms: C_41  and  C_42
REMARK   25  A    between atoms: C_42  and  C_43
REMARK   26  A    between atoms: C_43  and  C_44
REMARK                            x       y       z     vdW  Elec       q    Type
REMARK                         _______ _______ _______ _____ _____    ______ ____
ROOT
ATOM      1  O   UNL     1     -17.097 -15.970 -14.689  0.00  0.00    +0.000 OA
ATOM      2  C   UNL     1     -17.323 -15.733  -7.601  0.00  0.00    +0.000 C 
ATOM      3  C   UNL     1     -18.261 -14.762  -6.907  0.00  0.00    +0.000 C 
ATOM      4  C   UNL     1     -16.724 -14.521  -6.915  0.00  0.00    +0.000 C 
ATOM      5  C   UNL     1     -17.489 -16.055  -9.055  0.00  0.00    +0.000 C 
ATOM      6  C   UNL     1     -19.259 -13.995  -7.795  0.00  0.00    +0.000 C 
ATOM      7  C   UNL     1     -18.392 -15.084  -9.946  0.00  0.00    +0.000 C 
ATOM      8  C   UNL     1     -19.672 -14.835  -9.054  0.00  0.00    +0.000 C 
ATOM      9  C   UNL     1     -15.904 -14.846  -5.678  0.00  0.00    +0.000 C 
ATOM     10  C   UNL     1     -16.092 -13.408  -7.714  0.00  0.00    +0.000 C 
ATOM     11  C   UNL     1     -18.579 -15.745 -11.404  0.00  0.00    +0.000 C 
ATOM     12  C   UNL     1     -16.195 -16.461  -9.736  0.00  0.00    +0.000 C 
ATOM     13  C   UNL     1     -17.244 -15.868 -12.264  0.00  0.00    +0.000 C 
ATOM     14  C   UNL     1     -20.861 -14.182  -9.759  0.00  0.00    +0.000 C 
ATOM     15  C   UNL     1     -16.273 -17.502 -10.593  0.00  0.00    +0.000 C 
ATOM     16  C   UNL     1     -16.412 -17.154 -12.065  0.00  0.00    +0.000 C 
ATOM     17  C   UNL     1     -19.489 -15.074 -12.426  0.00  0.00    +0.000 C 
ATOM     18  C   UNL     1     -17.750 -15.734 -13.684  0.00  0.00    +0.000 C 
ATOM     19  C   UNL     1     -19.083 -15.121 -13.701  0.00  0.00    +0.000 C 
ATOM     20  C   UNL     1     -19.743 -14.661 -14.941  0.00  0.00    +0.000 C 
ENDROOT
BRANCH   7  21
ATOM     21  O   UNL     1     -17.782 -13.800 -10.132  0.00  0.00    +0.000 OA
ATOM     22  H   UNL     1     -16.892 -13.943 -10.526  0.00  0.00    +0.000 HD
ENDBRANCH   7  21
BRANCH  13  23
ATOM     23  O   UNL     1     -16.398 -14.704 -12.098  0.00  0.00    +0.000 OA
ATOM     24  H   UNL     1     -15.602 -15.014 -11.617  0.00  0.00    +0.000 HD
ENDBRANCH  13  23
BRANCH   3  25
ATOM     25  O   UNL     1     -18.860 -15.405  -5.752  0.00  0.00    +0.000 OA
BRANCH  25  27
ATOM     26  O   UNL     1     -20.190 -17.108  -6.360  0.00  0.00    +0.000 OA
ATOM     27  C   UNL     1     -19.237 -16.707  -5.695  0.00  0.00    +0.000 C 
ATOM     28  C   UNL     1     -18.420 -17.660  -4.875  0.00  0.00    +0.000 C 
ENDBRANCH  25  27
ENDBRANCH   3  25
BRANCH  15  29
ATOM     29  C   UNL     1     -16.795 -18.860 -10.206  0.00  0.00    +0.000 C 
BRANCH  29  30
ATOM     30  O   UNL     1     -16.056 -19.315  -9.084  0.00  0.00    +0.000 OA
ATOM     31  H   UNL     1     -15.738 -18.522  -8.618  0.00  0.00    +0.000 HD
ENDBRANCH  29  30
ENDBRANCH  15  29
BRANCH   6  32
ATOM     32  O   UNL     1     -20.433 -13.696  -6.991  0.00  0.00    +0.000 OA
BRANCH  32  34
ATOM     33  O   UNL     1     -21.906 -12.265  -6.105  0.00  0.00    +0.000 OA
ATOM     34  C   UNL     1     -20.764 -12.477  -6.508  0.00  0.00    +0.000 C 
BRANCH  34  35
ATOM     35  C   UNL     1     -19.722 -11.387  -6.469  0.00  0.00    +0.000 C 
BRANCH  35  36
ATOM     36  C   UNL     1     -19.268 -11.092  -5.044  0.00  0.00    +0.000 C 
BRANCH  36  37
ATOM     37  C   UNL     1     -17.924 -11.725  -4.670  0.00  0.00    +0.000 C 
BRANCH  37  38
ATOM     38  C   UNL     1     -18.021 -12.857  -3.638  0.00  0.00    +0.000 C 
BRANCH  38  39
ATOM     39  C   UNL     1     -19.455 -13.081  -3.147  0.00  0.00    +0.000 C 
BRANCH  39  40
ATOM     40  C   UNL     1     -19.541 -13.934  -1.878  0.00  0.00    +0.000 C 
BRANCH  40  41
ATOM     41  C   UNL     1     -18.186 -14.495  -1.440  0.00  0.00    +0.000 C 
BRANCH  41  42
ATOM     42  C   UNL     1     -18.083 -16.015  -1.587  0.00  0.00    +0.000 C 
BRANCH  42  43
ATOM     43  C   UNL     1     -16.703 -16.620  -1.312  0.00  0.00    +0.000 C 
BRANCH  43  44
ATOM     44  C   UNL     1     -15.744 -16.650  -2.506  0.00  0.00    +0.000 C 
BRANCH  44  45
ATOM     45  C   UNL     1     -14.514 -17.548  -2.343  0.00  0.00    +0.000 C 
BRANCH  45  46
ATOM     46  C   UNL     1     -14.793 -18.988  -1.910  0.00  0.00    +0.000 C 
ATOM     47  C   UNL     1     -15.585 -19.786  -2.934  0.00  0.00    +0.000 C 
ENDBRANCH  45  46
ENDBRANCH  44  45
ENDBRANCH  43  44
ENDBRANCH  42  43
ENDBRANCH  41  42
ENDBRANCH  40  41
ENDBRANCH  39  40
ENDBRANCH  38  39
ENDBRANCH  37  38
ENDBRANCH  36  37
ENDBRANCH  35  36
ENDBRANCH  34  35
ENDBRANCH  32  34
ENDBRANCH   6  32
TORSDOF 20
ENDMDL
MODEL 2
REMARK VINA RESULT:      -3.8     18.245     23.363
REMARK  Name = 27924_Phorbol.pdbqt.pdb
REMARK  26 active torsions:
REMARK  status: ('A' for Active; 'I' for Inactive)
REMARK    1  A    between atoms: O_1  and  C_10
REMARK    2  A    between atoms: O_1  and  C_26
REMARK    3  A    between atoms: O_2  and  C_13
REMARK    4  A    between atoms: O_2  and  C_28
REMARK    5  A    between atoms: O_3  and  C_14
REMARK    6  A    between atoms: O_4  and  C_20
REMARK    7  A    between atoms: O_7  and  C_29
REMARK    8  A    between atoms: C_11  and  C_16
REMARK    9  A    between atoms: C_11  and  C_17
REMARK   10  A    between atoms: C_15  and  C_21
REMARK   11  A    between atoms: C_22  and  C_29
REMARK   12  A    between atoms: C_26  and  C_30
REMARK   13  A    between atoms: C_27  and  C_31
REMARK   14  A    between atoms: C_28  and  C_32
REMARK   15  A    between atoms: C_32  and  C_33
REMARK   16  A    between atoms: C_33  and  C_34
REMARK   17  A    between atoms: C_34  and  C_35
REMARK   18  A    between atoms: C_35  and  C_36
REMARK   19  A    between atoms: C_36  and  C_37
REMARK   20  A    between atoms: C_37  and  C_38
REMARK   21  A    between atoms: C_38  and  C_39
REMARK   22  A    between atoms: C_39  and  C_40
REMARK   23  A    between atoms: C_40  and  C_41
REMARK   24  A    between atoms: C_41  and  C_42
REMARK   25  A    between atoms: C_42  and  C_43
REMARK   26  A    between atoms: C_43  and  C_44
REMARK                            x       y       z     vdW  Elec       q    Type
REMARK                         _______ _______ _______ _____ _____    ______ ____
ROOT
ATOM      1  O   UNL     1       7.521 -23.837   4.126  0.00  0.00    +0.000 OA
ATOM      2  C   UNL     1       3.397 -19.248   0.620  0.00  0.00    +0.000 C 
ATOM      3  C   UNL     1       1.911 -19.519   0.486  0.00  0.00    +0.000 C 
ATOM      4  C   UNL     1       2.863 -19.670  -0.734  0.00  0.00    +0.000 C 
ATOM      5  C   UNL     1       4.226 -19.992   1.624  0.00  0.00    +0.000 C 
ATOM      6  C   UNL     1       1.338 -20.705   1.285  0.00  0.00    +0.000 C 
ATOM      7  C   UNL     1       3.625 -21.329   2.258  0.00  0.00    +0.000 C 
ATOM      8  C   UNL     1       2.136 -20.940   2.616  0.00  0.00    +0.000 C 
ATOM      9  C   UNL     1       2.913 -18.580  -1.791  0.00  0.00    +0.000 C 
ATOM     10  C   UNL     1       3.208 -21.017  -1.321  0.00  0.00    +0.000 C 
ATOM     11  C   UNL     1       4.602 -21.825   3.440  0.00  0.00    +0.000 C 
ATOM     12  C   UNL     1       5.685 -20.121   1.225  0.00  0.00    +0.000 C 
ATOM     13  C   UNL     1       6.052 -22.284   2.967  0.00  0.00    +0.000 C 
ATOM     14  C   UNL     1       1.387 -21.923   3.516  0.00  0.00    +0.000 C 
ATOM     15  C   UNL     1       6.591 -19.931   2.208  0.00  0.00    +0.000 C 
ATOM     16  C   UNL     1       7.130 -21.181   2.881  0.00  0.00    +0.000 C 
ATOM     17  C   UNL     1       4.210 -23.028   4.289  0.00  0.00    +0.000 C 
ATOM     18  C   UNL     1       6.410 -23.349   3.980  0.00  0.00    +0.000 C 
ATOM     19  C   UNL     1       5.207 -23.842   4.659  0.00  0.00    +0.000 C 
ATOM     20  C   UNL     1       5.206 -25.031   5.537  0.00  0.00    +0.000 C 
ENDROOT
BRANCH   7  21
ATOM     21  O   UNL     1       3.539 -22.390   1.298  0.00  0.00    +0.000 OA
ATOM     22  H   UNL     1       4.405 -22.855   1.285  0.00  0.00    +0.000 HD
ENDBRANCH   7  21
BRANCH  13  23
ATOM     23  O   UNL     1       5.995 -23.015   1.718  0.00  0.00    +0.000 OA
ATOM     24  H   UNL     1       5.205 -22.682   1.244  0.00  0.00    +0.000 HD
ENDBRANCH  13  23
BRANCH   3  25
ATOM     25  O   UNL     1       1.172 -18.280   0.645  0.00  0.00    +0.000 OA
BRANCH  25  27
ATOM     26  O   UNL     1       2.050 -16.242   0.993  0.00  0.00    +0.000 OA
ATOM     27  C   UNL     1       1.537 -17.257   1.460  0.00  0.00    +0.000 C 
ATOM     28  C   UNL     1       1.228 -17.355   2.923  0.00  0.00    +0.000 C 
ENDBRANCH  25  27
ENDBRANCH   3  25
BRANCH  15  29
ATOM     29  C   UNL     1       6.664 -18.676   3.039  0.00  0.00    +0.000 C 
BRANCH  29  30
ATOM     30  O   UNL     1       6.758 -17.568   2.160  0.00  0.00    +0.000 OA
ATOM     31  H   UNL     1       7.138 -17.902   1.328  0.00  0.00    +0.000 HD
ENDBRANCH  29  30
ENDBRANCH  15  29
BRANCH   6  32
ATOM     32  O   UNL     1      -0.053 -20.411   1.586  0.00  0.00    +0.000 OA
BRANCH  32  34
ATOM     33  O   UNL     1      -1.284 -22.139   0.880  0.00  0.00    +0.000 OA
ATOM     34  C   UNL     1      -1.123 -20.922   0.936  0.00  0.00    +0.000 C 
BRANCH  34  35
ATOM     35  C   UNL     1      -2.110 -19.987   0.284  0.00  0.00    +0.000 C 
BRANCH  35  36
ATOM     36  C   UNL     1      -2.901 -19.193   1.317  0.00  0.00    +0.000 C 
BRANCH  36  37
ATOM     37  C   UNL     1      -4.422 -19.343   1.195  0.00  0.00    +0.000 C 
BRANCH  37  38
ATOM     38  C   UNL     1      -5.120 -18.175   0.487  0.00  0.00    +0.000 C 
BRANCH  38  39
ATOM     39  C   UNL     1      -4.571 -16.812   0.924  0.00  0.00    +0.000 C 
BRANCH  39  40
ATOM     40  C   UNL     1      -3.930 -16.017  -0.216  0.00  0.00    +0.000 C 
BRANCH  40  41
ATOM     41  C   UNL     1      -4.018 -16.729  -1.568  0.00  0.00    +0.000 C 
BRANCH  41  42
ATOM     42  C   UNL     1      -2.667 -17.243  -2.072  0.00  0.00    +0.000 C 
BRANCH  42  43
ATOM     43  C   UNL     1      -1.443 -16.803  -1.262  0.00  0.00    +0.000 C 
BRANCH  43  44
ATOM     44  C   UNL     1      -0.167 -16.558  -2.073  0.00  0.00    +0.000 C 
BRANCH  44  45
ATOM     45  C   UNL     1       0.301 -15.102  -2.146  0.00  0.00    +0.000 C 
BRANCH  45  46
ATOM     46  C   UNL     1      -0.183 -14.190  -1.017  0.00  0.00    +0.000 C 
ATOM     47  C   UNL     1      -1.200 -13.153  -1.470  0.00  0.00    +0.000 C 
ENDBRANCH  45  46
ENDBRANCH  44  45
ENDBRANCH  43  44
ENDBRANCH  42  43
ENDBRANCH  41  42
ENDBRANCH  40  41
ENDBRANCH  39  40
ENDBRANCH  38  39
ENDBRANCH  37  38
ENDBRANCH  36  37
ENDBRANCH  35  36
ENDBRANCH  34  35
ENDBRANCH  32  34
ENDBRANCH   6  32
TORSDOF 20
ENDMDL
MODEL 3
REMARK VINA RESULT:      -3.8     12.175     16.550
REMARK  Name = 27924_Phorbol.pdbqt.pdb
REMARK  26 active torsions:
REMARK  status: ('A' for Active; 'I' for Inactive)
REMARK    1  A    between atoms: O_1  and  C_10
REMARK    2  A    between atoms: O_1  and  C_26
REMARK    3  A    between atoms: O_2  and  C_13
REMARK    4  A    between atoms: O_2  and  C_28
REMARK    5  A    between atoms: O_3  and  C_14
REMARK    6  A    between atoms: O_4  and  C_20
REMARK    7  A    between atoms: O_7  and  C_29
REMARK    8  A    between atoms: C_11  and  C_16
REMARK    9  A    between atoms: C_11  and  C_17
REMARK   10  A    between atoms: C_15  and  C_21
REMARK   11  A    between atoms: C_22  and  C_29
REMARK   12  A    between atoms: C_26  and  C_30
REMARK   13  A    between atoms: C_27  and  C_31
REMARK   14  A    between atoms: C_28  and  C_32
REMARK   15  A    between atoms: C_32  and  C_33
REMARK   16  A    between atoms: C_33  and  C_34
REMARK   17  A    between atoms: C_34  and  C_35
REMARK   18  A    between atoms: C_35  and  C_36
REMARK   19  A    between atoms: C_36  and  C_37
REMARK   20  A    between atoms: C_37  and  C_38
REMARK   21  A    between atoms: C_38  and  C_39
REMARK   22  A    between atoms: C_39  and  C_40
REMARK   23  A    between atoms: C_40  and  C_41
REMARK   24  A    between atoms: C_41  and  C_42
REMARK   25  A    between atoms: C_42  and  C_43
REMARK   26  A    between atoms: C_43  and  C_44
REMARK                            x       y       z     vdW  Elec       q    Type
REMARK                         _______ _______ _______ _____ _____    ______ ____
ROOT
ATOM      1  O   UNL     1       1.946 -18.353  -1.762  0.00  0.00    +0.000 OA
ATOM      2  C   UNL     1      -3.370 -13.875  -0.334  0.00  0.00    +0.000 C 
ATOM      3  C   UNL     1      -4.666 -14.403   0.253  0.00  0.00    +0.000 C 
ATOM      4  C   UNL     1      -4.596 -13.926  -1.226  0.00  0.00    +0.000 C 
ATOM      5  C   UNL     1      -2.126 -14.711  -0.328  0.00  0.00    +0.000 C 
ATOM      6  C   UNL     1      -4.690 -15.882   0.681  0.00  0.00    +0.000 C 
ATOM      7  C   UNL     1      -2.272 -16.280  -0.067  0.00  0.00    +0.000 C 
ATOM      8  C   UNL     1      -3.274 -16.368   1.152  0.00  0.00    +0.000 C 
ATOM      9  C   UNL     1      -5.148 -12.562  -1.605  0.00  0.00    +0.000 C 
ATOM     10  C   UNL     1      -4.676 -14.890  -2.384  0.00  0.00    +0.000 C 
ATOM     11  C   UNL     1      -0.800 -16.917   0.093  0.00  0.00    +0.000 C 
ATOM     12  C   UNL     1      -1.168 -14.378  -1.457  0.00  0.00    +0.000 C 
ATOM     13  C   UNL     1       0.102 -16.863  -1.219  0.00  0.00    +0.000 C 
ATOM     14  C   UNL     1      -3.381 -17.734   1.831  0.00  0.00    +0.000 C 
ATOM     15  C   UNL     1       0.142 -14.334  -1.134  0.00  0.00    +0.000 C 
ATOM     16  C   UNL     1       0.950 -15.587  -1.420  0.00  0.00    +0.000 C 
ATOM     17  C   UNL     1      -0.649 -18.389   0.455  0.00  0.00    +0.000 C 
ATOM     18  C   UNL     1       0.963 -18.100  -1.081  0.00  0.00    +0.000 C 
ATOM     19  C   UNL     1       0.365 -19.042  -0.129  0.00  0.00    +0.000 C 
ATOM     20  C   UNL     1       0.853 -20.425   0.052  0.00  0.00    +0.000 C 
ENDROOT
BRANCH   7  21
ATOM     21  O   UNL     1      -2.914 -16.952  -1.159  0.00  0.00    +0.000 OA
ATOM     22  H   UNL     1      -3.365 -17.748  -0.800  0.00  0.00    +0.000 HD
ENDBRANCH   7  21
BRANCH  13  23
ATOM     23  O   UNL     1      -0.678 -17.128  -2.410  0.00  0.00    +0.000 OA
ATOM     24  H   UNL     1      -0.866 -16.254  -2.812  0.00  0.00    +0.000 HD
ENDBRANCH  13  23
BRANCH   3  25
ATOM     25  O   UNL     1      -5.156 -13.481   1.261  0.00  0.00    +0.000 OA
BRANCH  25  27
ATOM     26  O   UNL     1      -4.225 -11.529   1.866  0.00  0.00    +0.000 OA
ATOM     27  C   UNL     1      -4.371 -12.732   2.076  0.00  0.00    +0.000 C 
ATOM     28  C   UNL     1      -3.754 -13.379   3.280  0.00  0.00    +0.000 C 
ENDBRANCH  25  27
ENDBRANCH   3  25
BRANCH  15  29
ATOM     29  C   UNL     1       0.702 -13.445  -0.055  0.00  0.00    +0.000 C 
BRANCH  29  30
ATOM     30  O   UNL     1       1.151 -14.268   1.009  0.00  0.00    +0.000 OA
ATOM     31  H   UNL     1       0.866 -15.176   0.800  0.00  0.00    +0.000 HD
ENDBRANCH  29  30
ENDBRANCH  15  29
BRANCH   6  32
ATOM     32  O   UNL     1      -5.646 -16.017   1.768  0.00  0.00    +0.000 OA
BRANCH  32  34
ATOM     33  O   UNL     1      -6.951 -17.731   1.166  0.00  0.00    +0.000 OA
ATOM     34  C   UNL     1      -6.854 -16.620   1.681  0.00  0.00    +0.000 C 
BRANCH  34  35
ATOM     35  C   UNL     1      -8.074 -15.916   2.222  0.00  0.00    +0.000 C 
BRANCH  35  36
ATOM     36  C   UNL     1      -8.267 -14.548   1.578  0.00  0.00    +0.000 C 
BRANCH  36  37
ATOM     37  C   UNL     1      -9.733 -14.149   1.380  0.00  0.00    +0.000 C 
BRANCH  37  38
ATOM     38  C   UNL     1     -10.652 -15.301   0.952  0.00  0.00    +0.000 C 
BRANCH  38  39
ATOM     39  C   UNL     1     -11.776 -15.560   1.961  0.00  0.00    +0.000 C 
BRANCH  39  40
ATOM     40  C   UNL     1     -11.634 -16.890   2.706  0.00  0.00    +0.000 C 
BRANCH  40  41
ATOM     41  C   UNL     1     -12.213 -18.077   1.932  0.00  0.00    +0.000 C 
BRANCH  41  42
ATOM     42  C   UNL     1     -13.304 -17.676   0.936  0.00  0.00    +0.000 C 
BRANCH  42  43
ATOM     43  C   UNL     1     -13.050 -18.064  -0.524  0.00  0.00    +0.000 C 
BRANCH  43  44
ATOM     44  C   UNL     1     -13.756 -17.197  -1.571  0.00  0.00    +0.000 C 
BRANCH  44  45
ATOM     45  C   UNL     1     -15.254 -17.462  -1.747  0.00  0.00    +0.000 C 
BRANCH  45  46
ATOM     46  C   UNL     1     -15.676 -18.020  -3.108  0.00  0.00    +0.000 C 
ATOM     47  C   UNL     1     -16.065 -19.489  -3.066  0.00  0.00    +0.000 C 
ENDBRANCH  45  46
ENDBRANCH  44  45
ENDBRANCH  43  44
ENDBRANCH  42  43
ENDBRANCH  41  42
ENDBRANCH  40  41
ENDBRANCH  39  40
ENDBRANCH  38  39
ENDBRANCH  37  38
ENDBRANCH  36  37
ENDBRANCH  35  36
ENDBRANCH  34  35
ENDBRANCH  32  34
ENDBRANCH   6  32
TORSDOF 20
ENDMDL
MODEL 4
REMARK VINA RESULT:      -3.7     25.493     28.747
REMARK  Name = 27924_Phorbol.pdbqt.pdb
REMARK  26 active torsions:
REMARK  status: ('A' for Active; 'I' for Inactive)
REMARK    1  A    between atoms: O_1  and  C_10
REMARK    2  A    between atoms: O_1  and  C_26
REMARK    3  A    between atoms: O_2  and  C_13
REMARK    4  A    between atoms: O_2  and  C_28
REMARK    5  A    between atoms: O_3  and  C_14
REMARK    6  A    between atoms: O_4  and  C_20
REMARK    7  A    between atoms: O_7  and  C_29
REMARK    8  A    between atoms: C_11  and  C_16
REMARK    9  A    between atoms: C_11  and  C_17
REMARK   10  A    between atoms: C_15  and  C_21
REMARK   11  A    between atoms: C_22  and  C_29
REMARK   12  A    between atoms: C_26  and  C_30
REMARK   13  A    between atoms: C_27  and  C_31
REMARK   14  A    between atoms: C_28  and  C_32
REMARK   15  A    between atoms: C_32  and  C_33
REMARK   16  A    between atoms: C_33  and  C_34
REMARK   17  A    between atoms: C_34  and  C_35
REMARK   18  A    between atoms: C_35  and  C_36
REMARK   19  A    between atoms: C_36  and  C_37
REMARK   20  A    between atoms: C_37  and  C_38
REMARK   21  A    between atoms: C_38  and  C_39
REMARK   22  A    between atoms: C_39  and  C_40
REMARK   23  A    between atoms: C_40  and  C_41
REMARK   24  A    between atoms: C_41  and  C_42
REMARK   25  A    between atoms: C_42  and  C_43
REMARK   26  A    between atoms: C_43  and  C_44
REMARK                            x       y       z     vdW  Elec       q    Type
REMARK                         _______ _______ _______ _____ _____    ______ ____
ROOT
ATOM      1  O   UNL     1       0.728 -31.573 -12.838  0.00  0.00    +0.000 OA
ATOM      2  C   UNL     1       6.106 -29.523  -8.686  0.00  0.00    +0.000 C 
ATOM      3  C   UNL     1       7.028 -30.563  -8.076  0.00  0.00    +0.000 C 
ATOM      4  C   UNL     1       5.995 -29.797  -7.199  0.00  0.00    +0.000 C 
ATOM      5  C   UNL     1       5.192 -29.877  -9.821  0.00  0.00    +0.000 C 
ATOM      6  C   UNL     1       6.850 -32.019  -8.544  0.00  0.00    +0.000 C 
ATOM      7  C   UNL     1       4.911 -31.423 -10.109  0.00  0.00    +0.000 C 
ATOM      8  C   UNL     1       6.342 -32.089 -10.027  0.00  0.00    +0.000 C 
ATOM      9  C   UNL     1       6.459 -28.650  -6.317  0.00  0.00    +0.000 C 
ATOM     10  C   UNL     1       4.776 -30.474  -6.622  0.00  0.00    +0.000 C 
ATOM     11  C   UNL     1       4.075 -31.550 -11.482  0.00  0.00    +0.000 C 
ATOM     12  C   UNL     1       3.942 -29.020  -9.879  0.00  0.00    +0.000 C 
ATOM     13  C   UNL     1       2.609 -30.929 -11.436  0.00  0.00    +0.000 C 
ATOM     14  C   UNL     1       6.444 -33.520 -10.555  0.00  0.00    +0.000 C 
ATOM     15  C   UNL     1       3.559 -28.607 -11.107  0.00  0.00    +0.000 C 
ATOM     16  C   UNL     1       2.482 -29.431 -11.791  0.00  0.00    +0.000 C 
ATOM     17  C   UNL     1       3.761 -32.927 -12.050  0.00  0.00    +0.000 C 
ATOM     18  C   UNL     1       1.847 -31.808 -12.404  0.00  0.00    +0.000 C 
ATOM     19  C   UNL     1       2.561 -33.069 -12.629  0.00  0.00    +0.000 C 
ATOM     20  C   UNL     1       1.967 -34.216 -13.348  0.00  0.00    +0.000 C 
ENDROOT
BRANCH   7  21
ATOM     21  O   UNL     1       4.129 -32.032  -9.073  0.00  0.00    +0.000 OA
ATOM     22  H   UNL     1       4.002 -31.367  -8.360  0.00  0.00    +0.000 HD
ENDBRANCH   7  21
BRANCH  13  23
ATOM     23  O   UNL     1       1.962 -31.190 -10.166  0.00  0.00    +0.000 OA
ATOM     24  H   UNL     1       2.187 -30.433  -9.586  0.00  0.00    +0.000 HD
ENDBRANCH  13  23
BRANCH   3  25
ATOM     25  O   UNL     1       8.397 -30.085  -8.118  0.00  0.00    +0.000 OA
BRANCH  25  27
ATOM     26  O   UNL     1       9.131 -29.954 -10.236  0.00  0.00    +0.000 OA
ATOM     27  C   UNL     1       8.951 -29.403  -9.152  0.00  0.00    +0.000 C 
ATOM     28  C   UNL     1       9.261 -27.947  -8.973  0.00  0.00    +0.000 C 
ENDBRANCH  25  27
ENDBRANCH   3  25
BRANCH  15  29
ATOM     29  C   UNL     1       4.449 -27.823 -12.035  0.00  0.00    +0.000 C 
BRANCH  29  30
ATOM     30  O   UNL     1       4.485 -26.479 -11.585  0.00  0.00    +0.000 OA
ATOM     31  H   UNL     1       5.419 -26.204 -11.599  0.00  0.00    +0.000 HD
ENDBRANCH  29  30
ENDBRANCH  15  29
BRANCH   6  32
ATOM     32  O   UNL     1       8.137 -32.685  -8.429  0.00  0.00    +0.000 OA
BRANCH  32  34
ATOM     33  O   UNL     1       7.935 -34.459  -7.082  0.00  0.00    +0.000 OA
ATOM     34  C   UNL     1       8.544 -33.434  -7.378  0.00  0.00    +0.000 C 
BRANCH  34  35
ATOM     35  C   UNL     1       9.746 -32.996  -6.579  0.00  0.00    +0.000 C 
BRANCH  35  36
ATOM     36  C   UNL     1       9.389 -32.736  -5.121  0.00  0.00    +0.000 C 
BRANCH  36  37
ATOM     37  C   UNL     1       9.023 -31.279  -4.814  0.00  0.00    +0.000 C 
BRANCH  37  38
ATOM     38  C   UNL     1       7.844 -31.112  -3.846  0.00  0.00    +0.000 C 
BRANCH  38  39
ATOM     39  C   UNL     1       7.947 -29.830  -3.013  0.00  0.00    +0.000 C 
BRANCH  39  40
ATOM     40  C   UNL     1       8.895 -28.787  -3.611  0.00  0.00    +0.000 C 
BRANCH  40  41
ATOM     41  C   UNL     1       8.464 -27.347  -3.318  0.00  0.00    +0.000 C 
BRANCH  41  42
ATOM     42  C   UNL     1       7.590 -27.219  -2.067  0.00  0.00    +0.000 C 
BRANCH  42  43
ATOM     43  C   UNL     1       6.290 -26.428  -2.241  0.00  0.00    +0.000 C 
BRANCH  43  44
ATOM     44  C   UNL     1       4.998 -27.228  -2.047  0.00  0.00    +0.000 C 
BRANCH  44  45
ATOM     45  C   UNL     1       4.492 -27.978  -3.283  0.00  0.00    +0.000 C 
BRANCH  45  46
ATOM     46  C   UNL     1       4.388 -29.498  -3.143  0.00  0.00    +0.000 C 
ATOM     47  C   UNL     1       4.525 -29.985  -1.709  0.00  0.00    +0.000 C 
ENDBRANCH  45  46
ENDBRANCH  44  45
ENDBRANCH  43  44
ENDBRANCH  42  43
ENDBRANCH  41  42
ENDBRANCH  40  41
ENDBRANCH  39  40
ENDBRANCH  38  39
ENDBRANCH  37  38
ENDBRANCH  36  37
ENDBRANCH  35  36
ENDBRANCH  34  35
ENDBRANCH  32  34
ENDBRANCH   6  32
TORSDOF 20
ENDMDL
MODEL 5
REMARK VINA RESULT:      -3.5     13.699     17.250
REMARK  Name = 27924_Phorbol.pdbqt.pdb
REMARK  26 active torsions:
REMARK  status: ('A' for Active; 'I' for Inactive)
REMARK    1  A    between atoms: O_1  and  C_10
REMARK    2  A    between atoms: O_1  and  C_26
REMARK    3  A    between atoms: O_2  and  C_13
REMARK    4  A    between atoms: O_2  and  C_28
REMARK    5  A    between atoms: O_3  and  C_14
REMARK    6  A    between atoms: O_4  and  C_20
REMARK    7  A    between atoms: O_7  and  C_29
REMARK    8  A    between atoms: C_11  and  C_16
REMARK    9  A    between atoms: C_11  and  C_17
REMARK   10  A    between atoms: C_15  and  C_21
REMARK   11  A    between atoms: C_22  and  C_29
REMARK   12  A    between atoms: C_26  and  C_30
REMARK   13  A    between atoms: C_27  and  C_31
REMARK   14  A    between atoms: C_28  and  C_32
REMARK   15  A    between atoms: C_32  and  C_33
REMARK   16  A    between atoms: C_33  and  C_34
REMARK   17  A    between atoms: C_34  and  C_35
REMARK   18  A    between atoms: C_35  and  C_36
REMARK   19  A    between atoms: C_36  and  C_37
REMARK   20  A    between atoms: C_37  and  C_38
REMARK   21  A    between atoms: C_38  and  C_39
REMARK   22  A    between atoms: C_39  and  C_40
REMARK   23  A    between atoms: C_40  and  C_41
REMARK   24  A    between atoms: C_41  and  C_42
REMARK   25  A    between atoms: C_42  and  C_43
REMARK   26  A    between atoms: C_43  and  C_44
REMARK                            x       y       z     vdW  Elec       q    Type
REMARK                         _______ _______ _______ _____ _____    ______ ____
ROOT
ATOM      1  O   UNL     1       1.959 -18.328  -1.667  0.00  0.00    +0.000 OA
ATOM      2  C   UNL     1      -3.464 -13.954  -0.318  0.00  0.00    +0.000 C 
ATOM      3  C   UNL     1      -4.765 -14.511   0.228  0.00  0.00    +0.000 C 
ATOM      4  C   UNL     1      -4.664 -14.011  -1.242  0.00  0.00    +0.000 C 
ATOM      5  C   UNL     1      -2.207 -14.771  -0.290  0.00  0.00    +0.000 C 
ATOM      6  C   UNL     1      -4.777 -15.996   0.635  0.00  0.00    +0.000 C 
ATOM      7  C   UNL     1      -2.335 -16.345  -0.055  0.00  0.00    +0.000 C 
ATOM      8  C   UNL     1      -3.367 -16.467   1.135  0.00  0.00    +0.000 C 
ATOM      9  C   UNL     1      -5.229 -12.651  -1.616  0.00  0.00    +0.000 C 
ATOM     10  C   UNL     1      -4.699 -14.960  -2.415  0.00  0.00    +0.000 C 
ATOM     11  C   UNL     1      -0.857 -16.961   0.134  0.00  0.00    +0.000 C 
ATOM     12  C   UNL     1      -1.226 -14.407  -1.389  0.00  0.00    +0.000 C 
ATOM     13  C   UNL     1       0.078 -16.874  -1.152  0.00  0.00    +0.000 C 
ATOM     14  C   UNL     1      -3.469 -17.843   1.793  0.00  0.00    +0.000 C 
ATOM     15  C   UNL     1       0.075 -14.347  -1.031  0.00  0.00    +0.000 C 
ATOM     16  C   UNL     1       0.911 -15.583  -1.313  0.00  0.00    +0.000 C 
ATOM     17  C   UNL     1      -0.692 -18.436   0.479  0.00  0.00    +0.000 C 
ATOM     18  C   UNL     1       0.955 -18.099  -1.009  0.00  0.00    +0.000 C 
ATOM     19  C   UNL     1       0.347 -19.064  -0.086  0.00  0.00    +0.000 C 
ATOM     20  C   UNL     1       0.852 -20.442   0.088  0.00  0.00    +0.000 C 
ENDROOT
BRANCH   7  21
ATOM     21  O   UNL     1      -2.937 -17.011  -1.173  0.00  0.00    +0.000 OA
ATOM     22  H   UNL     1      -2.480 -17.874  -1.292  0.00  0.00    +0.000 HD
ENDBRANCH   7  21
BRANCH  13  23
ATOM     23  O   UNL     1      -0.666 -17.135  -2.368  0.00  0.00    +0.000 OA
ATOM     24  H   UNL     1      -1.586 -17.324  -2.087  0.00  0.00    +0.000 HD
ENDBRANCH  13  23
BRANCH   3  25
ATOM     25  O   UNL     1      -5.296 -13.611   1.235  0.00  0.00    +0.000 OA
BRANCH  25  27
ATOM     26  O   UNL     1      -4.520 -11.609   1.893  0.00  0.00    +0.000 OA
ATOM     27  C   UNL     1      -4.546 -12.828   2.051  0.00  0.00    +0.000 C 
ATOM     28  C   UNL     1      -3.817 -13.467   3.194  0.00  0.00    +0.000 C 
ENDBRANCH  25  27
ENDBRANCH   3  25
BRANCH  15  29
ATOM     29  C   UNL     1       0.592 -13.465   0.075  0.00  0.00    +0.000 C 
BRANCH  29  30
ATOM     30  O   UNL     1       0.206 -12.130  -0.205  0.00  0.00    +0.000 OA
ATOM     31  H   UNL     1      -0.755 -12.144  -0.360  0.00  0.00    +0.000 HD
ENDBRANCH  29  30
ENDBRANCH  15  29
BRANCH   6  32
ATOM     32  O   UNL     1      -5.760 -16.162   1.693  0.00  0.00    +0.000 OA
BRANCH  32  34
ATOM     33  O   UNL     1      -6.982 -17.904   1.007  0.00  0.00    +0.000 OA
ATOM     34  C   UNL     1      -6.937 -16.817   1.578  0.00  0.00    +0.000 C 
BRANCH  34  35
ATOM     35  C   UNL     1      -8.187 -16.200   2.154  0.00  0.00    +0.000 C 
BRANCH  35  36
ATOM     36  C   UNL     1      -8.610 -14.957   1.381  0.00  0.00    +0.000 C 
BRANCH  36  37
ATOM     37  C   UNL     1      -9.750 -14.168   2.035  0.00  0.00    +0.000 C 
BRANCH  37  38
ATOM     38  C   UNL     1      -9.874 -14.372   3.551  0.00  0.00    +0.000 C 
BRANCH  38  39
ATOM     39  C   UNL     1      -9.375 -13.162   4.348  0.00  0.00    +0.000 C 
BRANCH  39  40
ATOM     40  C   UNL     1      -7.890 -12.856   4.129  0.00  0.00    +0.000 C 
BRANCH  40  41
ATOM     41  C   UNL     1      -6.976 -13.579   5.122  0.00  0.00    +0.000 C 
BRANCH  41  42
ATOM     42  C   UNL     1      -7.671 -13.934   6.439  0.00  0.00    +0.000 C 
BRANCH  42  43
ATOM     43  C   UNL     1      -7.222 -15.240   7.099  0.00  0.00    +0.000 C 
BRANCH  43  44
ATOM     44  C   UNL     1      -8.087 -16.467   6.794  0.00  0.00    +0.000 C 
BRANCH  44  45
ATOM     45  C   UNL     1      -7.759 -17.200   5.490  0.00  0.00    +0.000 C 
BRANCH  45  46
ATOM     46  C   UNL     1      -6.273 -17.301   5.139  0.00  0.00    +0.000 C 
ATOM     47  C   UNL     1      -5.707 -18.703   5.300  0.00  0.00    +0.000 C 
ENDBRANCH  45  46
ENDBRANCH  44  45
ENDBRANCH  43  44
ENDBRANCH  42  43
ENDBRANCH  41  42
ENDBRANCH  40  41
ENDBRANCH  39  40
ENDBRANCH  38  39
ENDBRANCH  37  38
ENDBRANCH  36  37
ENDBRANCH  35  36
ENDBRANCH  34  35
ENDBRANCH  32  34
ENDBRANCH   6  32
TORSDOF 20
ENDMDL
MODEL 6
REMARK VINA RESULT:      -3.3     24.588     29.453
REMARK  Name = 27924_Phorbol.pdbqt.pdb
REMARK  26 active torsions:
REMARK  status: ('A' for Active; 'I' for Inactive)
REMARK    1  A    between atoms: O_1  and  C_10
REMARK    2  A    between atoms: O_1  and  C_26
REMARK    3  A    between atoms: O_2  and  C_13
REMARK    4  A    between atoms: O_2  and  C_28
REMARK    5  A    between atoms: O_3  and  C_14
REMARK    6  A    between atoms: O_4  and  C_20
REMARK    7  A    between atoms: O_7  and  C_29
REMARK    8  A    between atoms: C_11  and  C_16
REMARK    9  A    between atoms: C_11  and  C_17
REMARK   10  A    between atoms: C_15  and  C_21
REMARK   11  A    between atoms: C_22  and  C_29
REMARK   12  A    between atoms: C_26  and  C_30
REMARK   13  A    between atoms: C_27  and  C_31
REMARK   14  A    between atoms: C_28  and  C_32
REMARK   15  A    between atoms: C_32  and  C_33
REMARK   16  A    between atoms: C_33  and  C_34
REMARK   17  A    between atoms: C_34  and  C_35
REMARK   18  A    between atoms: C_35  and  C_36
REMARK   19  A    between atoms: C_36  and  C_37
REMARK   20  A    between atoms: C_37  and  C_38
REMARK   21  A    between atoms: C_38  and  C_39
REMARK   22  A    between atoms: C_39  and  C_40
REMARK   23  A    between atoms: C_40  and  C_41
REMARK   24  A    between atoms: C_41  and  C_42
REMARK   25  A    between atoms: C_42  and  C_43
REMARK   26  A    between atoms: C_43  and  C_44
REMARK                            x       y       z     vdW  Elec       q    Type
REMARK                         _______ _______ _______ _____ _____    ______ ____
ROOT
ATOM      1  O   UNL     1       3.209 -33.983   4.851  0.00  0.00    +0.000 OA
ATOM      2  C   UNL     1       5.640 -30.964  -1.094  0.00  0.00    +0.000 C 
ATOM      3  C   UNL     1       6.194 -29.552  -1.052  0.00  0.00    +0.000 C 
ATOM      4  C   UNL     1       4.816 -29.851  -1.709  0.00  0.00    +0.000 C 
ATOM      5  C   UNL     1       5.443 -31.750   0.167  0.00  0.00    +0.000 C 
ATOM      6  C   UNL     1       6.365 -28.907   0.336  0.00  0.00    +0.000 C 
ATOM      7  C   UNL     1       5.441 -30.961   1.556  0.00  0.00    +0.000 C 
ATOM      8  C   UNL     1       6.675 -29.982   1.436  0.00  0.00    +0.000 C 
ATOM      9  C   UNL     1       4.702 -29.923  -3.223  0.00  0.00    +0.000 C 
ATOM     10  C   UNL     1       3.516 -29.408  -1.083  0.00  0.00    +0.000 C 
ATOM     11  C   UNL     1       5.416 -32.033   2.760  0.00  0.00    +0.000 C 
ATOM     12  C   UNL     1       4.340 -32.787   0.067  0.00  0.00    +0.000 C 
ATOM     13  C   UNL     1       4.089 -32.909   2.853  0.00  0.00    +0.000 C 
ATOM     14  C   UNL     1       7.117 -29.302   2.732  0.00  0.00    +0.000 C 
ATOM     15  C   UNL     1       4.599 -33.990   0.623  0.00  0.00    +0.000 C 
ATOM     16  C   UNL     1       4.065 -34.214   2.027  0.00  0.00    +0.000 C 
ATOM     17  C   UNL     1       5.515 -31.551   4.202  0.00  0.00    +0.000 C 
ATOM     18  C   UNL     1       3.971 -33.176   4.338  0.00  0.00    +0.000 C 
ATOM     19  C   UNL     1       4.779 -32.218   5.101  0.00  0.00    +0.000 C 
ATOM     20  C   UNL     1       4.698 -32.084   6.571  0.00  0.00    +0.000 C 
ENDROOT
BRANCH   7  21
ATOM     21  O   UNL     1       4.284 -30.126   1.701  0.00  0.00    +0.000 OA
ATOM     22  H   UNL     1       4.079 -29.739   0.821  0.00  0.00    +0.000 HD
ENDBRANCH   7  21
BRANCH  13  23
ATOM     23  O   UNL     1       2.910 -32.119   2.561  0.00  0.00    +0.000 OA
ATOM     24  H   UNL     1       2.929 -31.952   1.595  0.00  0.00    +0.000 HD
ENDBRANCH  13  23
BRANCH   3  25
ATOM     25  O   UNL     1       7.367 -29.463  -1.902  0.00  0.00    +0.000 OA
BRANCH  25  27
ATOM     26  O   UNL     1       8.234 -31.115  -3.150  0.00  0.00    +0.000 OA
ATOM     27  C   UNL     1       8.256 -30.467  -2.106  0.00  0.00    +0.000 C 
ATOM     28  C   UNL     1       9.315 -30.715  -1.074  0.00  0.00    +0.000 C 
ENDBRANCH  25  27
ENDBRANCH   3  25
BRANCH  15  29
ATOM     29  C   UNL     1       5.785 -34.841   0.248  0.00  0.00    +0.000 C 
BRANCH  29  30
ATOM     30  O   UNL     1       5.448 -36.198   0.481  0.00  0.00    +0.000 OA
ATOM     31  H   UNL     1       6.236 -36.724   0.254  0.00  0.00    +0.000 HD
ENDBRANCH  29  30
ENDBRANCH  15  29
BRANCH   6  32
ATOM     32  O   UNL     1       7.460 -27.953   0.253  0.00  0.00    +0.000 OA
BRANCH  32  34
ATOM     33  O   UNL     1       6.254 -26.203  -0.444  0.00  0.00    +0.000 OA
ATOM     34  C   UNL     1       7.357 -26.674  -0.175  0.00  0.00    +0.000 C 
BRANCH  34  35
ATOM     35  C   UNL     1       8.604 -25.838  -0.317  0.00  0.00    +0.000 C 
BRANCH  35  36
ATOM     36  C   UNL     1       8.277 -24.356  -0.454  0.00  0.00    +0.000 C 
BRANCH  36  37
ATOM     37  C   UNL     1       8.186 -23.865  -1.903  0.00  0.00    +0.000 C 
BRANCH  37  38
ATOM     38  C   UNL     1       8.126 -22.338  -2.052  0.00  0.00    +0.000 C 
BRANCH  38  39
ATOM     39  C   UNL     1       6.721 -21.839  -2.405  0.00  0.00    +0.000 C 
BRANCH  39  40
ATOM     40  C   UNL     1       5.841 -21.572  -1.181  0.00  0.00    +0.000 C 
BRANCH  40  41
ATOM     41  C   UNL     1       4.363 -21.892  -1.423  0.00  0.00    +0.000 C 
BRANCH  41  42
ATOM     42  C   UNL     1       4.143 -23.213  -2.165  0.00  0.00    +0.000 C 
BRANCH  42  43
ATOM     43  C   UNL     1       3.565 -23.095  -3.579  0.00  0.00    +0.000 C 
BRANCH  43  44
ATOM     44  C   UNL     1       3.923 -24.235  -4.537  0.00  0.00    +0.000 C 
BRANCH  44  45
ATOM     45  C   UNL     1       5.336 -24.805  -4.389  0.00  0.00    +0.000 C 
BRANCH  45  46
ATOM     46  C   UNL     1       5.424 -26.242  -3.869  0.00  0.00    +0.000 C 
ATOM     47  C   UNL     1       6.828 -26.823  -3.929  0.00  0.00    +0.000 C 
ENDBRANCH  45  46
ENDBRANCH  44  45
ENDBRANCH  43  44
ENDBRANCH  42  43
ENDBRANCH  41  42
ENDBRANCH  40  41
ENDBRANCH  39  40
ENDBRANCH  38  39
ENDBRANCH  37  38
ENDBRANCH  36  37
ENDBRANCH  35  36
ENDBRANCH  34  35
ENDBRANCH  32  34
ENDBRANCH   6  32
TORSDOF 20
ENDMDL
MODEL 7
REMARK VINA RESULT:      -3.2     32.000     36.808
REMARK  Name = 27924_Phorbol.pdbqt.pdb
REMARK  26 active torsions:
REMARK  status: ('A' for Active; 'I' for Inactive)
REMARK    1  A    between atoms: O_1  and  C_10
REMARK    2  A    between atoms: O_1  and  C_26
REMARK    3  A    between atoms: O_2  and  C_13
REMARK    4  A    between atoms: O_2  and  C_28
REMARK    5  A    between atoms: O_3  and  C_14
REMARK    6  A    between atoms: O_4  and  C_20
REMARK    7  A    between atoms: O_7  and  C_29
REMARK    8  A    between atoms: C_11  and  C_16
REMARK    9  A    between atoms: C_11  and  C_17
REMARK   10  A    between atoms: C_15  and  C_21
REMARK   11  A    between atoms: C_22  and  C_29
REMARK   12  A    between atoms: C_26  and  C_30
REMARK   13  A    between atoms: C_27  and  C_31
REMARK   14  A    between atoms: C_28  and  C_32
REMARK   15  A    between atoms: C_32  and  C_33
REMARK   16  A    between atoms: C_33  and  C_34
REMARK   17  A    between atoms: C_34  and  C_35
REMARK   18  A    between atoms: C_35  and  C_36
REMARK   19  A    between atoms: C_36  and  C_37
REMARK   20  A    between atoms: C_37  and  C_38
REMARK   21  A    between atoms: C_38  and  C_39
REMARK   22  A    between atoms: C_39  and  C_40
REMARK   23  A    between atoms: C_40  and  C_41
REMARK   24  A    between atoms: C_41  and  C_42
REMARK   25  A    between atoms: C_42  and  C_43
REMARK   26  A    between atoms: C_43  and  C_44
REMARK                            x       y       z     vdW  Elec       q    Type
REMARK                         _______ _______ _______ _____ _____    ______ ____
ROOT
ATOM      1  O   UNL     1       1.937 -31.803  10.624  0.00  0.00    +0.000 OA
ATOM      2  C   UNL     1       5.655 -37.389   8.315  0.00  0.00    +0.000 C 
ATOM      3  C   UNL     1       5.928 -38.553   9.250  0.00  0.00    +0.000 C 
ATOM      4  C   UNL     1       7.063 -37.569   8.846  0.00  0.00    +0.000 C 
ATOM      5  C   UNL     1       4.605 -36.371   8.643  0.00  0.00    +0.000 C 
ATOM      6  C   UNL     1       5.218 -38.537  10.617  0.00  0.00    +0.000 C 
ATOM      7  C   UNL     1       4.067 -36.298  10.145  0.00  0.00    +0.000 C 
ATOM      8  C   UNL     1       3.830 -37.810  10.535  0.00  0.00    +0.000 C 
ATOM      9  C   UNL     1       8.079 -37.980   7.794  0.00  0.00    +0.000 C 
ATOM     10  C   UNL     1       7.657 -36.586   9.825  0.00  0.00    +0.000 C 
ATOM     11  C   UNL     1       2.818 -35.279  10.198  0.00  0.00    +0.000 C 
ATOM     12  C   UNL     1       4.877 -35.006   8.037  0.00  0.00    +0.000 C 
ATOM     13  C   UNL     1       3.175 -33.760   9.879  0.00  0.00    +0.000 C 
ATOM     14  C   UNL     1       3.029 -38.053  11.815  0.00  0.00    +0.000 C 
ATOM     15  C   UNL     1       3.813 -34.366   7.507  0.00  0.00    +0.000 C 
ATOM     16  C   UNL     1       3.133 -33.338   8.394  0.00  0.00    +0.000 C 
ATOM     17  C   UNL     1       2.044 -35.100  11.498  0.00  0.00    +0.000 C 
ATOM     18  C   UNL     1       2.166 -33.000  10.713  0.00  0.00    +0.000 C 
ATOM     19  C   UNL     1       1.612 -33.861  11.764  0.00  0.00    +0.000 C 
ATOM     20  C   UNL     1       0.773 -33.348  12.867  0.00  0.00    +0.000 C 
ENDROOT
BRANCH   7  21
ATOM     21  O   UNL     1       5.061 -35.804  11.052  0.00  0.00    +0.000 OA
ATOM     22  H   UNL     1       4.707 -34.989  11.474  0.00  0.00    +0.000 HD
ENDBRANCH   7  21
BRANCH  13  23
ATOM     23  O   UNL     1       4.446 -33.380  10.462  0.00  0.00    +0.000 OA
ATOM     24  H   UNL     1       4.330 -32.464  10.791  0.00  0.00    +0.000 HD
ENDBRANCH  13  23
BRANCH   3  25
ATOM     25  O   UNL     1       5.797 -39.803   8.524  0.00  0.00    +0.000 OA
BRANCH  25  27
ATOM     26  O   UNL     1       3.654 -40.230   8.010  0.00  0.00    +0.000 OA
ATOM     27  C   UNL     1       4.814 -40.084   7.632  0.00  0.00    +0.000 C 
ATOM     28  C   UNL     1       5.155 -40.130   6.172  0.00  0.00    +0.000 C 
ENDBRANCH  25  27
ENDBRANCH   3  25
BRANCH  15  29
ATOM     29  C   UNL     1       2.942 -34.955   6.428  0.00  0.00    +0.000 C 
BRANCH  29  30
ATOM     30  O   UNL     1       2.953 -34.073   5.318  0.00  0.00    +0.000 OA
ATOM     31  H   UNL     1       3.344 -33.238   5.629  0.00  0.00    +0.000 HD
ENDBRANCH  29  30
ENDBRANCH  15  29
BRANCH   6  32
ATOM     32  O   UNL     1       5.032 -39.915  11.040  0.00  0.00    +0.000 OA
BRANCH  32  34
ATOM     33  O   UNL     1       6.998 -40.354  12.013  0.00  0.00    +0.000 OA
ATOM     34  C   UNL     1       5.789 -40.566  11.953  0.00  0.00    +0.000 C 
BRANCH  34  35
ATOM     35  C   UNL     1       5.134 -41.548  12.892  0.00  0.00    +0.000 C 
BRANCH  35  36
ATOM     36  C   UNL     1       4.278 -40.844  13.937  0.00  0.00    +0.000 C 
BRANCH  36  37
ATOM     37  C   UNL     1       2.987 -41.589  14.297  0.00  0.00    +0.000 C 
BRANCH  37  38
ATOM     38  C   UNL     1       1.706 -40.764  14.110  0.00  0.00    +0.000 C 
BRANCH  38  39
ATOM     39  C   UNL     1       0.439 -41.578  14.391  0.00  0.00    +0.000 C 
BRANCH  39  40
ATOM     40  C   UNL     1       0.655 -43.092  14.317  0.00  0.00    +0.000 C 
BRANCH  40  41
ATOM     41  C   UNL     1      -0.144 -43.758  13.194  0.00  0.00    +0.000 C 
BRANCH  41  42
ATOM     42  C   UNL     1      -0.838 -42.755  12.268  0.00  0.00    +0.000 C 
BRANCH  42  43
ATOM     43  C   UNL     1      -0.267 -42.651  10.850  0.00  0.00    +0.000 C 
BRANCH  43  44
ATOM     44  C   UNL     1       0.816 -41.587  10.650  0.00  0.00    +0.000 C 
BRANCH  44  45
ATOM     45  C   UNL     1       2.259 -42.102  10.655  0.00  0.00    +0.000 C 
BRANCH  45  46
ATOM     46  C   UNL     1       2.429 -43.606  10.428  0.00  0.00    +0.000 C 
ATOM     47  C   UNL     1       3.105 -44.321  11.587  0.00  0.00    +0.000 C 
ENDBRANCH  45  46
ENDBRANCH  44  45
ENDBRANCH  43  44
ENDBRANCH  42  43
ENDBRANCH  41  42
ENDBRANCH  40  41
ENDBRANCH  39  40
ENDBRANCH  38  39
ENDBRANCH  37  38
ENDBRANCH  36  37
ENDBRANCH  35  36
ENDBRANCH  34  35
ENDBRANCH  32  34
ENDBRANCH   6  32
TORSDOF 20
ENDMDL
MODEL 8
REMARK VINA RESULT:      -3.0     31.744     36.648
REMARK  Name = 27924_Phorbol.pdbqt.pdb
REMARK  26 active torsions:
REMARK  status: ('A' for Active; 'I' for Inactive)
REMARK    1  A    between atoms: O_1  and  C_10
REMARK    2  A    between atoms: O_1  and  C_26
REMARK    3  A    between atoms: O_2  and  C_13
REMARK    4  A    between atoms: O_2  and  C_28
REMARK    5  A    between atoms: O_3  and  C_14
REMARK    6  A    between atoms: O_4  and  C_20
REMARK    7  A    between atoms: O_7  and  C_29
REMARK    8  A    between atoms: C_11  and  C_16
REMARK    9  A    between atoms: C_11  and  C_17
REMARK   10  A    between atoms: C_15  and  C_21
REMARK   11  A    between atoms: C_22  and  C_29
REMARK   12  A    between atoms: C_26  and  C_30
REMARK   13  A    between atoms: C_27  and  C_31
REMARK   14  A    between atoms: C_28  and  C_32
REMARK   15  A    between atoms: C_32  and  C_33
REMARK   16  A    between atoms: C_33  and  C_34
REMARK   17  A    between atoms: C_34  and  C_35
REMARK   18  A    between atoms: C_35  and  C_36
REMARK   19  A    between atoms: C_36  and  C_37
REMARK   20  A    between atoms: C_37  and  C_38
REMARK   21  A    between atoms: C_38  and  C_39
REMARK   22  A    between atoms: C_39  and  C_40
REMARK   23  A    between atoms: C_40  and  C_41
REMARK   24  A    between atoms: C_41  and  C_42
REMARK   25  A    between atoms: C_42  and  C_43
REMARK   26  A    between atoms: C_43  and  C_44
REMARK                            x       y       z     vdW  Elec       q    Type
REMARK                         _______ _______ _______ _____ _____    ______ ____
ROOT
ATOM      1  O   UNL     1       2.372 -31.451  12.154  0.00  0.00    +0.000 OA
ATOM      2  C   UNL     1       5.025 -36.935   8.514  0.00  0.00    +0.000 C 
ATOM      3  C   UNL     1       5.310 -38.245   9.223  0.00  0.00    +0.000 C 
ATOM      4  C   UNL     1       6.470 -37.316   8.765  0.00  0.00    +0.000 C 
ATOM      5  C   UNL     1       4.161 -35.888   9.150  0.00  0.00    +0.000 C 
ATOM      6  C   UNL     1       4.832 -38.372  10.682  0.00  0.00    +0.000 C 
ATOM      7  C   UNL     1       3.879 -35.994  10.719  0.00  0.00    +0.000 C 
ATOM      8  C   UNL     1       3.538 -37.521  10.939  0.00  0.00    +0.000 C 
ATOM      9  C   UNL     1       7.254 -37.653   7.507  0.00  0.00    +0.000 C 
ATOM     10  C   UNL     1       7.318 -36.548   9.748  0.00  0.00    +0.000 C 
ATOM     11  C   UNL     1       2.777 -34.888  11.122  0.00  0.00    +0.000 C 
ATOM     12  C   UNL     1       4.486 -34.477   8.695  0.00  0.00    +0.000 C 
ATOM     13  C   UNL     1       3.248 -33.376  10.952  0.00  0.00    +0.000 C 
ATOM     14  C   UNL     1       2.928 -37.881  12.294  0.00  0.00    +0.000 C 
ATOM     15  C   UNL     1       3.430 -33.673   8.446  0.00  0.00    +0.000 C 
ATOM     16  C   UNL     1       3.019 -32.734   9.566  0.00  0.00    +0.000 C 
ATOM     17  C   UNL     1       2.244 -34.839  12.548  0.00  0.00    +0.000 C 
ATOM     18  C   UNL     1       2.476 -32.663  12.042  0.00  0.00    +0.000 C 
ATOM     19  C   UNL     1       2.002 -33.620  13.048  0.00  0.00    +0.000 C 
ATOM     20  C   UNL     1       1.411 -33.206  14.338  0.00  0.00    +0.000 C 
ENDROOT
BRANCH   7  21
ATOM     21  O   UNL     1       5.054 -35.732  11.498  0.00  0.00    +0.000 OA
ATOM     22  H   UNL     1       5.341 -36.579  11.905  0.00  0.00    +0.000 HD
ENDBRANCH   7  21
BRANCH  13  23
ATOM     23  O   UNL     1       4.630 -33.202  11.352  0.00  0.00    +0.000 OA
ATOM     24  H   UNL     1       5.130 -33.925  10.920  0.00  0.00    +0.000 HD
ENDBRANCH  13  23
BRANCH   3  25
ATOM     25  O   UNL     1       4.926 -39.355   8.370  0.00  0.00    +0.000 OA
BRANCH  25  27
ATOM     26  O   UNL     1       4.286 -39.459   6.221  0.00  0.00    +0.000 OA
ATOM     27  C   UNL     1       3.979 -39.298   7.400  0.00  0.00    +0.000 C 
ATOM     28  C   UNL     1       2.545 -39.118   7.800  0.00  0.00    +0.000 C 
ENDBRANCH  25  27
ENDBRANCH   3  25
BRANCH  15  29
ATOM     29  C   UNL     1       2.339 -34.013   7.465  0.00  0.00    +0.000 C 
BRANCH  29  30
ATOM     30  O   UNL     1       2.929 -34.187   6.188  0.00  0.00    +0.000 OA
ATOM     31  H   UNL     1       2.285 -34.677   5.647  0.00  0.00    +0.000 HD
ENDBRANCH  29  30
ENDBRANCH  15  29
BRANCH   6  32
ATOM     32  O   UNL     1       4.561 -39.776  10.943  0.00  0.00    +0.000 OA
BRANCH  32  34
ATOM     33  O   UNL     1       6.222 -40.132  12.397  0.00  0.00    +0.000 OA
ATOM     34  C   UNL     1       5.329 -40.598  11.694  0.00  0.00    +0.000 C 
BRANCH  34  35
ATOM     35  C   UNL     1       5.077 -42.085  11.658  0.00  0.00    +0.000 C 
BRANCH  35  36
ATOM     36  C   UNL     1       4.595 -42.607  13.006  0.00  0.00    +0.000 C 
BRANCH  36  37
ATOM     37  C   UNL     1       3.361 -41.883  13.556  0.00  0.00    +0.000 C 
BRANCH  37  38
ATOM     38  C   UNL     1       2.045 -42.253  12.858  0.00  0.00    +0.000 C 
BRANCH  38  39
ATOM     39  C   UNL     1       1.493 -41.107  12.003  0.00  0.00    +0.000 C 
BRANCH  39  40
ATOM     40  C   UNL     1       1.244 -41.498  10.544  0.00  0.00    +0.000 C 
BRANCH  40  41
ATOM     41  C   UNL     1       1.064 -43.006  10.349  0.00  0.00    +0.000 C 
BRANCH  41  42
ATOM     42  C   UNL     1       1.919 -43.577   9.214  0.00  0.00    +0.000 C 
BRANCH  42  43
ATOM     43  C   UNL     1       2.977 -42.632   8.636  0.00  0.00    +0.000 C 
BRANCH  43  44
ATOM     44  C   UNL     1       3.651 -43.105   7.345  0.00  0.00    +0.000 C 
BRANCH  44  45
ATOM     45  C   UNL     1       2.707 -43.629   6.259  0.00  0.00    +0.000 C 
BRANCH  45  46
ATOM     46  C   UNL     1       2.168 -42.581   5.283  0.00  0.00    +0.000 C 
ATOM     47  C   UNL     1       3.161 -42.196   4.198  0.00  0.00    +0.000 C 
ENDBRANCH  45  46
ENDBRANCH  44  45
ENDBRANCH  43  44
ENDBRANCH  42  43
ENDBRANCH  41  42
ENDBRANCH  40  41
ENDBRANCH  39  40
ENDBRANCH  38  39
ENDBRANCH  37  38
ENDBRANCH  36  37
ENDBRANCH  35  36
ENDBRANCH  34  35
ENDBRANCH  32  34
ENDBRANCH   6  32
TORSDOF 20
ENDMDL
MODEL 9
REMARK VINA RESULT:      -3.0     18.475     22.053
REMARK  Name = 27924_Phorbol.pdbqt.pdb
REMARK  26 active torsions:
REMARK  status: ('A' for Active; 'I' for Inactive)
REMARK    1  A    between atoms: O_1  and  C_10
REMARK    2  A    between atoms: O_1  and  C_26
REMARK    3  A    between atoms: O_2  and  C_13
REMARK    4  A    between atoms: O_2  and  C_28
REMARK    5  A    between atoms: O_3  and  C_14
REMARK    6  A    between atoms: O_4  and  C_20
REMARK    7  A    between atoms: O_7  and  C_29
REMARK    8  A    between atoms: C_11  and  C_16
REMARK    9  A    between atoms: C_11  and  C_17
REMARK   10  A    between atoms: C_15  and  C_21
REMARK   11  A    between atoms: C_22  and  C_29
REMARK   12  A    between atoms: C_26  and  C_30
REMARK   13  A    between atoms: C_27  and  C_31
REMARK   14  A    between atoms: C_28  and  C_32
REMARK   15  A    between atoms: C_32  and  C_33
REMARK   16  A    between atoms: C_33  and  C_34
REMARK   17  A    between atoms: C_34  and  C_35
REMARK   18  A    between atoms: C_35  and  C_36
REMARK   19  A    between atoms: C_36  and  C_37
REMARK   20  A    between atoms: C_37  and  C_38
REMARK   21  A    between atoms: C_38  and  C_39
REMARK   22  A    between atoms: C_39  and  C_40
REMARK   23  A    between atoms: C_40  and  C_41
REMARK   24  A    between atoms: C_41  and  C_42
REMARK   25  A    between atoms: C_42  and  C_43
REMARK   26  A    between atoms: C_43  and  C_44
REMARK                            x       y       z     vdW  Elec       q    Type
REMARK                         _______ _______ _______ _____ _____    ______ ____
ROOT
ATOM      1  O   UNL     1       8.390 -15.959 -17.307  0.00  0.00    +0.000 OA
ATOM      2  C   UNL     1       1.692 -15.914 -14.963  0.00  0.00    +0.000 C 
ATOM      3  C   UNL     1       0.712 -16.963 -15.456  0.00  0.00    +0.000 C 
ATOM      4  C   UNL     1       0.607 -15.485 -15.931  0.00  0.00    +0.000 C 
ATOM      5  C   UNL     1       3.168 -16.090 -15.157  0.00  0.00    +0.000 C 
ATOM      6  C   UNL     1       1.282 -18.106 -16.316  0.00  0.00    +0.000 C 
ATOM      7  C   UNL     1       3.666 -17.172 -16.222  0.00  0.00    +0.000 C 
ATOM      8  C   UNL     1       2.766 -18.436 -15.924  0.00  0.00    +0.000 C 
ATOM      9  C   UNL     1      -0.444 -14.571 -15.325  0.00  0.00    +0.000 C 
ATOM     10  C   UNL     1       0.944 -15.071 -17.343  0.00  0.00    +0.000 C 
ATOM     11  C   UNL     1       5.267 -17.315 -16.102  0.00  0.00    +0.000 C 
ATOM     12  C   UNL     1       3.927 -14.778 -15.237  0.00  0.00    +0.000 C 
ATOM     13  C   UNL     1       6.091 -16.016 -16.513  0.00  0.00    +0.000 C 
ATOM     14  C   UNL     1       3.210 -19.742 -16.583  0.00  0.00    +0.000 C 
ATOM     15  C   UNL     1       5.102 -14.728 -14.572  0.00  0.00    +0.000 C 
ATOM     16  C   UNL     1       6.353 -14.983 -15.394  0.00  0.00    +0.000 C 
ATOM     17  C   UNL     1       5.996 -18.362 -16.936  0.00  0.00    +0.000 C 
ATOM     18  C   UNL     1       7.377 -16.597 -17.059  0.00  0.00    +0.000 C 
ATOM     19  C   UNL     1       7.196 -18.009 -17.412  0.00  0.00    +0.000 C 
ATOM     20  C   UNL     1       8.200 -18.786 -18.170  0.00  0.00    +0.000 C 
ENDROOT
BRANCH   7  21
ATOM     21  O   UNL     1       3.370 -16.781 -17.569  0.00  0.00    +0.000 OA
ATOM     22  H   UNL     1       2.616 -17.328 -17.883  0.00  0.00    +0.000 HD
ENDBRANCH   7  21
BRANCH  13  23
ATOM     23  O   UNL     1       5.506 -15.357 -17.662  0.00  0.00    +0.000 OA
ATOM     24  H   UNL     1       5.746 -14.410 -17.584  0.00  0.00    +0.000 HD
ENDBRANCH  13  23
BRANCH   3  25
ATOM     25  O   UNL     1      -0.126 -17.403 -14.356  0.00  0.00    +0.000 OA
BRANCH  25  27
ATOM     26  O   UNL     1       0.170 -16.644 -12.264  0.00  0.00    +0.000 OA
ATOM     27  C   UNL     1       0.293 -17.560 -13.075  0.00  0.00    +0.000 C 
ATOM     28  C   UNL     1       0.829 -18.893 -12.649  0.00  0.00    +0.000 C 
ENDBRANCH  25  27
ENDBRANCH   3  25
BRANCH  15  29
ATOM     29  C   UNL     1       5.235 -15.011 -13.099  0.00  0.00    +0.000 C 
BRANCH  29  30
ATOM     30  O   UNL     1       6.143 -16.088 -12.935  0.00  0.00    +0.000 OA
ATOM     31  H   UNL     1       6.741 -16.068 -13.703  0.00  0.00    +0.000 HD
ENDBRANCH  29  30
ENDBRANCH  15  29
BRANCH   6  32
ATOM     32  O   UNL     1       0.445 -19.277 -16.114  0.00  0.00    +0.000 OA
BRANCH  32  34
ATOM     33  O   UNL     1      -0.373 -20.256 -17.951  0.00  0.00    +0.000 OA
ATOM     34  C   UNL     1      -0.588 -19.651 -16.904  0.00  0.00    +0.000 C 
BRANCH  34  35
ATOM     35  C   UNL     1      -1.998 -19.317 -16.486  0.00  0.00    +0.000 C 
BRANCH  35  36
ATOM     36  C   UNL     1      -2.931 -20.511 -16.648  0.00  0.00    +0.000 C 
BRANCH  36  37
ATOM     37  C   UNL     1      -4.226 -20.198 -17.406  0.00  0.00    +0.000 C 
BRANCH  37  38
ATOM     38  C   UNL     1      -5.485 -20.174 -16.529  0.00  0.00    +0.000 C 
BRANCH  38  39
ATOM     39  C   UNL     1      -5.592 -18.895 -15.692  0.00  0.00    +0.000 C 
BRANCH  39  40
ATOM     40  C   UNL     1      -6.827 -18.052 -16.020  0.00  0.00    +0.000 C 
BRANCH  40  41
ATOM     41  C   UNL     1      -7.318 -18.240 -17.457  0.00  0.00    +0.000 C 
BRANCH  41  42
ATOM     42  C   UNL     1      -6.582 -17.358 -18.469  0.00  0.00    +0.000 C 
BRANCH  42  43
ATOM     43  C   UNL     1      -5.953 -16.080 -17.906  0.00  0.00    +0.000 C 
BRANCH  43  44
ATOM     44  C   UNL     1      -4.437 -15.954 -18.086  0.00  0.00    +0.000 C 
BRANCH  44  45
ATOM     45  C   UNL     1      -3.613 -15.985 -16.796  0.00  0.00    +0.000 C 
BRANCH  45  46
ATOM     46  C   UNL     1      -3.970 -14.925 -15.752  0.00  0.00    +0.000 C 
ATOM     47  C   UNL     1      -4.527 -15.507 -14.463  0.00  0.00    +0.000 C 
ENDBRANCH  45  46
ENDBRANCH  44  45
ENDBRANCH  43  44
ENDBRANCH  42  43
ENDBRANCH  41  42
ENDBRANCH  40  41
ENDBRANCH  39  40
ENDBRANCH  38  39
ENDBRANCH  37  38
ENDBRANCH  36  37
ENDBRANCH  35  36
ENDBRANCH  34  35
ENDBRANCH  32  34
ENDBRANCH   6  32
TORSDOF 20
ENDMDL
