MODEL 1
REMARK VINA RESULT:      -3.2      0.000      0.000
REMARK  Name = 2Methylcholine.pdbqt.pdb
REMARK  3 active torsions:
REMARK  status: ('A' for Active; 'I' for Inactive)
REMARK    1  A    between atoms: C_1  and  N_2
REMARK    2  A    between atoms: C_1  and  C_6
REMARK    3  A    between atoms: C_6  and  O_8
REMARK                            x       y       z     vdW  Elec       q    Type
REMARK                         _______ _______ _______ _____ _____    ______ ____
ROOT
ATOM      1  C   UNL     1      -3.306 -33.194  -7.327  0.00  0.00    +0.000 C 
ENDROOT
BRANCH   1   2
ATOM      2  N   UNL     1      -3.591 -34.341  -6.487  0.00  0.00    +0.000 N 
ATOM      3  C   UNL     1      -2.729 -34.318  -5.301  0.00  0.00    +0.000 C 
ATOM      4  C   UNL     1      -4.993 -34.314  -6.063  0.00  0.00    +0.000 C 
ATOM      5  C   UNL     1      -3.342 -35.576  -7.235  0.00  0.00    +0.000 C 
ENDBRANCH   1   2
BRANCH   1   6
ATOM      6  C   UNL     1      -3.057 -32.077  -8.137  0.00  0.00    +0.000 C 
ATOM      7  C   UNL     1      -2.224 -32.177  -9.359  0.00  0.00    +0.000 C 
BRANCH   6   8
ATOM      8  O   UNL     1      -3.564 -30.847  -7.849  0.00  0.00    +0.000 OA
ATOM      9  H   UNL     1      -2.826 -30.209  -7.822  0.00  0.00    +0.000 HD
ENDBRANCH   6   8
ENDBRANCH   1   6
TORSDOF 3
ENDMDL
MODEL 2
REMARK VINA RESULT:      -3.1      1.569      2.121
REMARK  Name = 2Methylcholine.pdbqt.pdb
REMARK  3 active torsions:
REMARK  status: ('A' for Active; 'I' for Inactive)
REMARK    1  A    between atoms: C_1  and  N_2
REMARK    2  A    between atoms: C_1  and  C_6
REMARK    3  A    between atoms: C_6  and  O_8
REMARK                            x       y       z     vdW  Elec       q    Type
REMARK                         _______ _______ _______ _____ _____    ______ ____
ROOT
ATOM      1  C   UNL     1      -4.563 -33.041  -6.657  0.00  0.00    +0.000 C 
ENDROOT
BRANCH   1   2
ATOM      2  N   UNL     1      -4.946 -33.898  -5.552  0.00  0.00    +0.000 N 
ATOM      3  C   UNL     1      -6.176 -33.394  -4.933  0.00  0.00    +0.000 C 
ATOM      4  C   UNL     1      -5.174 -35.263  -6.034  0.00  0.00    +0.000 C 
ATOM      5  C   UNL     1      -3.879 -33.917  -4.549  0.00  0.00    +0.000 C 
ENDBRANCH   1   2
BRANCH   1   6
ATOM      6  C   UNL     1      -4.214 -32.222  -7.740  0.00  0.00    +0.000 C 
ATOM      7  C   UNL     1      -4.481 -32.633  -9.139  0.00  0.00    +0.000 C 
BRANCH   6   8
ATOM      8  O   UNL     1      -3.615 -31.012  -7.569  0.00  0.00    +0.000 OA
ATOM      9  H   UNL     1      -4.174 -30.472  -6.978  0.00  0.00    +0.000 HD
ENDBRANCH   6   8
ENDBRANCH   1   6
TORSDOF 3
ENDMDL
MODEL 3
REMARK VINA RESULT:      -3.0      2.144      3.523
REMARK  Name = 2Methylcholine.pdbqt.pdb
REMARK  3 active torsions:
REMARK  status: ('A' for Active; 'I' for Inactive)
REMARK    1  A    between atoms: C_1  and  N_2
REMARK    2  A    between atoms: C_1  and  C_6
REMARK    3  A    between atoms: C_6  and  O_8
REMARK                            x       y       z     vdW  Elec       q    Type
REMARK                         _______ _______ _______ _____ _____    ______ ____
ROOT
ATOM      1  C   UNL     1      -3.425 -33.749  -6.291  0.00  0.00    +0.000 C 
ENDROOT
BRANCH   1   2
ATOM      2  N   UNL     1      -4.049 -33.304  -7.522  0.00  0.00    +0.000 N 
ATOM      3  C   UNL     1      -3.607 -34.145  -8.638  0.00  0.00    +0.000 C 
ATOM      4  C   UNL     1      -5.507 -33.391  -7.402  0.00  0.00    +0.000 C 
ATOM      5  C   UNL     1      -3.673 -31.914  -7.793  0.00  0.00    +0.000 C 
ENDBRANCH   1   2
BRANCH   1   6
ATOM      6  C   UNL     1      -2.815 -34.152  -5.095  0.00  0.00    +0.000 C 
ATOM      7  C   UNL     1      -2.539 -35.580  -4.809  0.00  0.00    +0.000 C 
BRANCH   6   8
ATOM      8  O   UNL     1      -2.445 -33.261  -4.135  0.00  0.00    +0.000 OA
ATOM      9  H   UNL     1      -2.591 -33.671  -3.261  0.00  0.00    +0.000 HD
ENDBRANCH   6   8
ENDBRANCH   1   6
TORSDOF 3
ENDMDL
MODEL 4
REMARK VINA RESULT:      -3.0      2.129      3.588
REMARK  Name = 2Methylcholine.pdbqt.pdb
REMARK  3 active torsions:
REMARK  status: ('A' for Active; 'I' for Inactive)
REMARK    1  A    between atoms: C_1  and  N_2
REMARK    2  A    between atoms: C_1  and  C_6
REMARK    3  A    between atoms: C_6  and  O_8
REMARK                            x       y       z     vdW  Elec       q    Type
REMARK                         _______ _______ _______ _____ _____    ______ ____
ROOT
ATOM      1  C   UNL     1      -3.570 -33.872  -6.004  0.00  0.00    +0.000 C 
ENDROOT
BRANCH   1   2
ATOM      2  N   UNL     1      -4.355 -33.544  -7.177  0.00  0.00    +0.000 N 
ATOM      3  C   UNL     1      -3.874 -32.290  -7.765  0.00  0.00    +0.000 C 
ATOM      4  C   UNL     1      -4.242 -34.615  -8.170  0.00  0.00    +0.000 C 
ATOM      5  C   UNL     1      -5.763 -33.387  -6.802  0.00  0.00    +0.000 C 
ENDBRANCH   1   2
BRANCH   1   6
ATOM      6  C   UNL     1      -2.796 -34.208  -4.884  0.00  0.00    +0.000 C 
ATOM      7  C   UNL     1      -2.360 -35.603  -4.633  0.00  0.00    +0.000 C 
BRANCH   6   8
ATOM      8  O   UNL     1      -2.404 -33.279  -3.970  0.00  0.00    +0.000 OA
ATOM      9  H   UNL     1      -2.857 -32.438  -4.172  0.00  0.00    +0.000 HD
ENDBRANCH   6   8
ENDBRANCH   1   6
TORSDOF 3
ENDMDL
MODEL 5
REMARK VINA RESULT:      -2.5     16.303     17.488
REMARK  Name = 2Methylcholine.pdbqt.pdb
REMARK  3 active torsions:
REMARK  status: ('A' for Active; 'I' for Inactive)
REMARK    1  A    between atoms: C_1  and  N_2
REMARK    2  A    between atoms: C_1  and  C_6
REMARK    3  A    between atoms: C_6  and  O_8
REMARK                            x       y       z     vdW  Elec       q    Type
REMARK                         _______ _______ _______ _____ _____    ______ ____
ROOT
ATOM      1  C   UNL     1      -3.751 -17.906 -15.088  0.00  0.00    +0.000 C 
ENDROOT
BRANCH   1   2
ATOM      2  N   UNL     1      -4.455 -18.790 -15.996  0.00  0.00    +0.000 N 
ATOM      3  C   UNL     1      -5.902 -18.663 -15.794  0.00  0.00    +0.000 C 
ATOM      4  C   UNL     1      -4.131 -18.444 -17.382  0.00  0.00    +0.000 C 
ATOM      5  C   UNL     1      -4.057 -20.177 -15.744  0.00  0.00    +0.000 C 
ENDBRANCH   1   2
BRANCH   1   6
ATOM      6  C   UNL     1      -3.082 -17.029 -14.222  0.00  0.00    +0.000 C 
ATOM      7  C   UNL     1      -1.607 -17.049 -14.086  0.00  0.00    +0.000 C 
BRANCH   6   8
ATOM      8  O   UNL     1      -3.748 -16.117 -13.461  0.00  0.00    +0.000 OA
ATOM      9  H   UNL     1      -3.866 -16.489 -12.566  0.00  0.00    +0.000 HD
ENDBRANCH   6   8
ENDBRANCH   1   6
TORSDOF 3
ENDMDL
MODEL 6
REMARK VINA RESULT:      -2.4     18.841     19.426
REMARK  Name = 2Methylcholine.pdbqt.pdb
REMARK  3 active torsions:
REMARK  status: ('A' for Active; 'I' for Inactive)
REMARK    1  A    between atoms: C_1  and  N_2
REMARK    2  A    between atoms: C_1  and  C_6
REMARK    3  A    between atoms: C_6  and  O_8
REMARK                            x       y       z     vdW  Elec       q    Type
REMARK                         _______ _______ _______ _____ _____    ______ ____
ROOT
ATOM      1  C   UNL     1     -14.700 -19.034  -1.146  0.00  0.00    +0.000 C 
ENDROOT
BRANCH   1   2
ATOM      2  N   UNL     1     -14.430 -19.121   0.276  0.00  0.00    +0.000 N 
ATOM      3  C   UNL     1     -13.039 -19.527   0.496  0.00  0.00    +0.000 C 
ATOM      4  C   UNL     1     -14.656 -17.818   0.908  0.00  0.00    +0.000 C 
ATOM      5  C   UNL     1     -15.319 -20.110   0.889  0.00  0.00    +0.000 C 
ENDBRANCH   1   2
BRANCH   1   6
ATOM      6  C   UNL     1     -14.947 -18.925  -2.522  0.00  0.00    +0.000 C 
ATOM      7  C   UNL     1     -15.650 -17.752  -3.093  0.00  0.00    +0.000 C 
BRANCH   6   8
ATOM      8  O   UNL     1     -14.558 -19.886  -3.404  0.00  0.00    +0.000 OA
ATOM      9  H   UNL     1     -15.356 -20.337  -3.740  0.00  0.00    +0.000 HD
ENDBRANCH   6   8
ENDBRANCH   1   6
TORSDOF 3
ENDMDL
MODEL 7
REMARK VINA RESULT:      -2.4     18.724     19.255
REMARK  Name = 2Methylcholine.pdbqt.pdb
REMARK  3 active torsions:
REMARK  status: ('A' for Active; 'I' for Inactive)
REMARK    1  A    between atoms: C_1  and  N_2
REMARK    2  A    between atoms: C_1  and  C_6
REMARK    3  A    between atoms: C_6  and  O_8
REMARK                            x       y       z     vdW  Elec       q    Type
REMARK                         _______ _______ _______ _____ _____    ______ ____
ROOT
ATOM      1  C   UNL     1      -1.692 -14.461  -4.049  0.00  0.00    +0.000 C 
ENDROOT
BRANCH   1   2
ATOM      2  N   UNL     1      -2.438 -14.883  -2.880  0.00  0.00    +0.000 N 
ATOM      3  C   UNL     1      -2.665 -13.739  -1.992  0.00  0.00    +0.000 C 
ATOM      4  C   UNL     1      -3.731 -15.440  -3.286  0.00  0.00    +0.000 C 
ATOM      5  C   UNL     1      -1.684 -15.908  -2.155  0.00  0.00    +0.000 C 
ENDBRANCH   1   2
BRANCH   1   6
ATOM      6  C   UNL     1      -0.965 -14.028  -5.166  0.00  0.00    +0.000 C 
ATOM      7  C   UNL     1      -1.166 -14.634  -6.504  0.00  0.00    +0.000 C 
BRANCH   6   8
ATOM      8  O   UNL     1      -0.039 -13.033  -5.086  0.00  0.00    +0.000 OA
ATOM      9  H   UNL     1       0.777 -13.403  -4.699  0.00  0.00    +0.000 HD
ENDBRANCH   6   8
ENDBRANCH   1   6
TORSDOF 3
ENDMDL
MODEL 8
REMARK VINA RESULT:      -2.3     18.288     19.128
REMARK  Name = 2Methylcholine.pdbqt.pdb
REMARK  3 active torsions:
REMARK  status: ('A' for Active; 'I' for Inactive)
REMARK    1  A    between atoms: C_1  and  N_2
REMARK    2  A    between atoms: C_1  and  C_6
REMARK    3  A    between atoms: C_6  and  O_8
REMARK                            x       y       z     vdW  Elec       q    Type
REMARK                         _______ _______ _______ _____ _____    ______ ____
ROOT
ATOM      1  C   UNL     1      -1.845 -15.089  -3.543  0.00  0.00    +0.000 C 
ENDROOT
BRANCH   1   2
ATOM      2  N   UNL     1      -0.617 -14.480  -4.014  0.00  0.00    +0.000 N 
ATOM      3  C   UNL     1       0.490 -15.435  -3.899  0.00  0.00    +0.000 C 
ATOM      4  C   UNL     1      -0.763 -14.081  -5.416  0.00  0.00    +0.000 C 
ATOM      5  C   UNL     1      -0.310 -13.295  -3.209  0.00  0.00    +0.000 C 
ENDBRANCH   1   2
BRANCH   1   6
ATOM      6  C   UNL     1      -3.035 -15.691  -3.111  0.00  0.00    +0.000 C 
ATOM      7  C   UNL     1      -4.175 -14.886  -2.613  0.00  0.00    +0.000 C 
BRANCH   6   8
ATOM      8  O   UNL     1      -3.208 -17.041  -3.125  0.00  0.00    +0.000 OA
ATOM      9  H   UNL     1      -2.626 -17.433  -2.446  0.00  0.00    +0.000 HD
ENDBRANCH   6   8
ENDBRANCH   1   6
TORSDOF 3
ENDMDL
MODEL 9
REMARK VINA RESULT:      -2.3      7.773      9.082
REMARK  Name = 2Methylcholine.pdbqt.pdb
REMARK  3 active torsions:
REMARK  status: ('A' for Active; 'I' for Inactive)
REMARK    1  A    between atoms: C_1  and  N_2
REMARK    2  A    between atoms: C_1  and  C_6
REMARK    3  A    between atoms: C_6  and  O_8
REMARK                            x       y       z     vdW  Elec       q    Type
REMARK                         _______ _______ _______ _____ _____    ______ ____
ROOT
ATOM      1  C   UNL     1      -8.608 -32.039  -0.645  0.00  0.00    +0.000 C 
ENDROOT
BRANCH   1   2
ATOM      2  N   UNL     1      -9.560 -31.812   0.424  0.00  0.00    +0.000 N 
ATOM      3  C   UNL     1     -10.545 -32.897   0.454  0.00  0.00    +0.000 C 
ATOM      4  C   UNL     1      -8.863 -31.760   1.712  0.00  0.00    +0.000 C 
ATOM      5  C   UNL     1     -10.256 -30.541   0.206  0.00  0.00    +0.000 C 
ENDBRANCH   1   2
BRANCH   1   6
ATOM      6  C   UNL     1      -7.667 -32.262  -1.660  0.00  0.00    +0.000 C 
ATOM      7  C   UNL     1      -7.972 -31.962  -3.079  0.00  0.00    +0.000 C 
BRANCH   6   8
ATOM      8  O   UNL     1      -6.428 -32.763  -1.400  0.00  0.00    +0.000 OA
ATOM      9  H   UNL     1      -6.508 -33.727  -1.265  0.00  0.00    +0.000 HD
ENDBRANCH   6   8
ENDBRANCH   1   6
TORSDOF 3
ENDMDL
