MODEL 1
REMARK VINA RESULT:      -7.9      0.000      0.000
REMARK  Name = 3035817_K252a.pdbqt.pdb
REMARK  3 active torsions:
REMARK  status: ('A' for Active; 'I' for Inactive)
REMARK    1  A    between atoms: C_3  and  O_7
REMARK    2  A    between atoms: C_3  and  C_9
REMARK    3  A    between atoms: C_9  and  O_11
REMARK                            x       y       z     vdW  Elec       q    Type
REMARK                         _______ _______ _______ _____ _____    ______ ____
ROOT
ATOM      1  O   UNL     1     -15.932 -17.380  -0.436  0.00  0.00    +0.000 OA
ATOM      2  C   UNL     1     -15.980 -18.736  -1.006  0.00  0.00    +0.000 C 
ATOM      3  C   UNL     1     -15.160 -18.615  -2.363  0.00  0.00    +0.000 C 
ATOM      4  C   UNL     1     -14.639 -16.921  -0.746  0.00  0.00    +0.000 C 
ATOM      5  C   UNL     1     -14.316 -17.477  -2.007  0.00  0.00    +0.000 C 
ATOM      6  C   UNL     1     -17.501 -19.050  -1.191  0.00  0.00    +0.000 C 
ATOM      7  N   UNL     1     -15.343 -19.631  -0.018  0.00  0.00    +0.000 N 
ATOM      8  C   UNL     1     -14.361 -19.392   0.909  0.00  0.00    +0.000 A 
ATOM      9  C   UNL     1     -13.614 -18.224   1.064  0.00  0.00    +0.000 A 
ATOM     10  C   UNL     1     -13.965 -20.425   1.764  0.00  0.00    +0.000 A 
ATOM     11  N   UNL     1     -13.725 -17.121   0.275  0.00  0.00    +0.000 N 
ATOM     12  C   UNL     1     -12.605 -18.278   2.031  0.00  0.00    +0.000 A 
ATOM     13  C   UNL     1     -12.631 -16.369   0.738  0.00  0.00    +0.000 A 
ATOM     14  C   UNL     1     -11.953 -17.043   1.824  0.00  0.00    +0.000 A 
ATOM     15  C   UNL     1     -12.191 -15.115   0.281  0.00  0.00    +0.000 A 
ATOM     16  C   UNL     1     -10.834 -16.407   2.396  0.00  0.00    +0.000 A 
ATOM     17  C   UNL     1     -10.413 -15.161   1.931  0.00  0.00    +0.000 A 
ATOM     18  C   UNL     1     -11.081 -14.531   0.891  0.00  0.00    +0.000 A 
ATOM     19  C   UNL     1     -12.207 -19.304   2.912  0.00  0.00    +0.000 A 
ATOM     20  C   UNL     1     -12.975 -20.495   2.754  0.00  0.00    +0.000 A 
ATOM     21  C   UNL     1     -11.187 -19.489   3.916  0.00  0.00    +0.000 C 
ATOM     22  C   UNL     1     -12.412 -21.493   3.705  0.00  0.00    +0.000 C 
ATOM     23  N   UNL     1     -11.411 -20.815   4.309  0.00  0.00    +0.000 N 
ATOM     24  H   UNL     1     -10.830 -21.236   5.021  0.00  0.00    +0.000 HD
ATOM     25  O   UNL     1     -10.315 -18.771   4.382  0.00  0.00    +0.000 OA
ATOM     26  C   UNL     1     -14.752 -21.499   1.310  0.00  0.00    +0.000 A 
ATOM     27  C   UNL     1     -15.558 -21.013   0.212  0.00  0.00    +0.000 A 
ATOM     28  C   UNL     1     -14.858 -22.857   1.672  0.00  0.00    +0.000 A 
ATOM     29  C   UNL     1     -16.406 -21.898  -0.477  0.00  0.00    +0.000 A 
ATOM     30  C   UNL     1     -16.477 -23.233  -0.079  0.00  0.00    +0.000 A 
ATOM     31  C   UNL     1     -15.721 -23.706   0.982  0.00  0.00    +0.000 A 
ENDROOT
BRANCH   3  32
ATOM     32  O   UNL     1     -14.323 -19.741  -2.664  0.00  0.00    +0.000 OA
ATOM     33  H   UNL     1     -14.860 -20.551  -2.522  0.00  0.00    +0.000 HD
ENDBRANCH   3  32
BRANCH   3  34
ATOM     34  C   UNL     1     -16.069 -18.294  -3.547  0.00  0.00    +0.000 C 
ATOM     35  O   UNL     1     -16.580 -19.202  -4.207  0.00  0.00    +0.000 OA
BRANCH  34  36
ATOM     36  O   UNL     1     -16.162 -16.947  -3.763  0.00  0.00    +0.000 OA
ATOM     37  C   UNL     1     -17.439 -16.369  -3.738  0.00  0.00    +0.000 C 
ENDBRANCH  34  36
ENDBRANCH   3  34
TORSDOF 3
ENDMDL
MODEL 2
REMARK VINA RESULT:      -7.0     17.104     20.131
REMARK  Name = 3035817_K252a.pdbqt.pdb
REMARK  3 active torsions:
REMARK  status: ('A' for Active; 'I' for Inactive)
REMARK    1  A    between atoms: C_3  and  O_7
REMARK    2  A    between atoms: C_3  and  C_9
REMARK    3  A    between atoms: C_9  and  O_11
REMARK                            x       y       z     vdW  Elec       q    Type
REMARK                         _______ _______ _______ _____ _____    ______ ____
ROOT
ATOM      1  O   UNL     1      -4.305 -38.057  -2.654  0.00  0.00    +0.000 OA
ATOM      2  C   UNL     1      -4.172 -37.833  -1.205  0.00  0.00    +0.000 C 
ATOM      3  C   UNL     1      -2.682 -37.309  -1.031  0.00  0.00    +0.000 C 
ATOM      4  C   UNL     1      -3.578 -37.002  -3.235  0.00  0.00    +0.000 C 
ATOM      5  C   UNL     1      -2.487 -36.753  -2.367  0.00  0.00    +0.000 C 
ATOM      6  C   UNL     1      -4.454 -39.224  -0.548  0.00  0.00    +0.000 C 
ATOM      7  N   UNL     1      -5.191 -36.828  -0.839  0.00  0.00    +0.000 N 
ATOM      8  C   UNL     1      -5.748 -35.807  -1.566  0.00  0.00    +0.000 A 
ATOM      9  C   UNL     1      -5.382 -35.385  -2.844  0.00  0.00    +0.000 A 
ATOM     10  C   UNL     1      -6.741 -35.015  -0.979  0.00  0.00    +0.000 A 
ATOM     11  N   UNL     1      -4.363 -35.914  -3.575  0.00  0.00    +0.000 N 
ATOM     12  C   UNL     1      -6.053 -34.253  -3.320  0.00  0.00    +0.000 A 
ATOM     13  C   UNL     1      -4.318 -35.000  -4.642  0.00  0.00    +0.000 A 
ATOM     14  C   UNL     1      -5.355 -33.999  -4.520  0.00  0.00    +0.000 A 
ATOM     15  C   UNL     1      -3.433 -34.991  -5.733  0.00  0.00    +0.000 A 
ATOM     16  C   UNL     1      -5.438 -33.012  -5.523  0.00  0.00    +0.000 A 
ATOM     17  C   UNL     1      -4.552 -33.021  -6.600  0.00  0.00    +0.000 A 
ATOM     18  C   UNL     1      -3.567 -33.994  -6.699  0.00  0.00    +0.000 A 
ATOM     19  C   UNL     1      -7.067 -33.457  -2.749  0.00  0.00    +0.000 A 
ATOM     20  C   UNL     1      -7.442 -33.894  -1.445  0.00  0.00    +0.000 A 
ATOM     21  C   UNL     1      -7.808 -32.275  -3.119  0.00  0.00    +0.000 C 
ATOM     22  C   UNL     1      -8.473 -32.937  -0.956  0.00  0.00    +0.000 C 
ATOM     23  N   UNL     1      -8.602 -32.069  -1.983  0.00  0.00    +0.000 N 
ATOM     24  H   UNL     1      -9.243 -31.288  -1.951  0.00  0.00    +0.000 HD
ATOM     25  O   UNL     1      -7.827 -31.563  -4.111  0.00  0.00    +0.000 OA
ATOM     26  C   UNL     1      -6.811 -35.549   0.320  0.00  0.00    +0.000 A 
ATOM     27  C   UNL     1      -5.848 -36.625   0.401  0.00  0.00    +0.000 A 
ATOM     28  C   UNL     1      -7.558 -35.228   1.472  0.00  0.00    +0.000 A 
ATOM     29  C   UNL     1      -5.662 -37.306   1.616  0.00  0.00    +0.000 A 
ATOM     30  C   UNL     1      -6.427 -36.952   2.727  0.00  0.00    +0.000 A 
ATOM     31  C   UNL     1      -7.365 -35.934   2.658  0.00  0.00    +0.000 A 
ENDROOT
BRANCH   3  32
ATOM     32  O   UNL     1      -2.520 -36.262  -0.062  0.00  0.00    +0.000 OA
ATOM     33  H   UNL     1      -2.525 -35.409  -0.550  0.00  0.00    +0.000 HD
ENDBRANCH   3  32
BRANCH   3  34
ATOM     34  C   UNL     1      -1.709 -38.451  -0.748  0.00  0.00    +0.000 C 
ATOM     35  O   UNL     1      -1.434 -39.271  -1.628  0.00  0.00    +0.000 OA
BRANCH  34  36
ATOM     36  O   UNL     1      -1.281 -38.442   0.551  0.00  0.00    +0.000 OA
ATOM     37  C   UNL     1      -1.140 -39.676   1.200  0.00  0.00    +0.000 C 
ENDBRANCH  34  36
ENDBRANCH   3  34
TORSDOF 3
ENDMDL
MODEL 3
REMARK VINA RESULT:      -6.8     11.433     15.022
REMARK  Name = 3035817_K252a.pdbqt.pdb
REMARK  3 active torsions:
REMARK  status: ('A' for Active; 'I' for Inactive)
REMARK    1  A    between atoms: C_3  and  O_7
REMARK    2  A    between atoms: C_3  and  C_9
REMARK    3  A    between atoms: C_9  and  O_11
REMARK                            x       y       z     vdW  Elec       q    Type
REMARK                         _______ _______ _______ _____ _____    ______ ____
ROOT
ATOM      1  O   UNL     1       0.880 -20.135  -0.409  0.00  0.00    +0.000 OA
ATOM      2  C   UNL     1      -0.034 -19.877   0.714  0.00  0.00    +0.000 C 
ATOM      3  C   UNL     1       0.891 -19.210   1.821  0.00  0.00    +0.000 C 
ATOM      4  C   UNL     1       1.744 -19.025  -0.414  0.00  0.00    +0.000 C 
ATOM      5  C   UNL     1       1.920 -18.659   0.943  0.00  0.00    +0.000 C 
ATOM      6  C   UNL     1      -0.609 -21.278   1.105  0.00  0.00    +0.000 C 
ATOM      7  N   UNL     1      -1.082 -18.969   0.205  0.00  0.00    +0.000 N 
ATOM      8  C   UNL     1      -1.044 -18.018  -0.783  0.00  0.00    +0.000 A 
ATOM      9  C   UNL     1       0.076 -17.582  -1.491  0.00  0.00    +0.000 A 
ATOM     10  C   UNL     1      -2.212 -17.315  -1.099  0.00  0.00    +0.000 A 
ATOM     11  N   UNL     1       1.347 -18.022  -1.282  0.00  0.00    +0.000 N 
ATOM     12  C   UNL     1      -0.147 -16.528  -2.383  0.00  0.00    +0.000 A 
ATOM     13  C   UNL     1       2.062 -17.125  -2.095  0.00  0.00    +0.000 A 
ATOM     14  C   UNL     1       1.169 -16.226  -2.794  0.00  0.00    +0.000 A 
ATOM     15  C   UNL     1       3.452 -17.048  -2.281  0.00  0.00    +0.000 A 
ATOM     16  C   UNL     1       1.742 -15.267  -3.654  0.00  0.00    +0.000 A 
ATOM     17  C   UNL     1       3.124 -15.208  -3.827  0.00  0.00    +0.000 A 
ATOM     18  C   UNL     1       3.961 -16.083  -3.149  0.00  0.00    +0.000 A 
ATOM     19  C   UNL     1      -1.321 -15.824  -2.725  0.00  0.00    +0.000 A 
ATOM     20  C   UNL     1      -2.464 -16.275  -2.003  0.00  0.00    +0.000 A 
ATOM     21  C   UNL     1      -1.670 -14.724  -3.592  0.00  0.00    +0.000 C 
ATOM     22  C   UNL     1      -3.602 -15.414  -2.429  0.00  0.00    +0.000 C 
ATOM     23  N   UNL     1      -3.038 -14.578  -3.328  0.00  0.00    +0.000 N 
ATOM     24  H   UNL     1      -3.570 -13.862  -3.804  0.00  0.00    +0.000 HD
ATOM     25  O   UNL     1      -1.042 -14.033  -4.380  0.00  0.00    +0.000 OA
ATOM     26  C   UNL     1      -3.126 -17.834  -0.165  0.00  0.00    +0.000 A 
ATOM     27  C   UNL     1      -2.423 -18.810   0.637  0.00  0.00    +0.000 A 
ATOM     28  C   UNL     1      -4.478 -17.568   0.134  0.00  0.00    +0.000 A 
ATOM     29  C   UNL     1      -3.086 -19.453   1.698  0.00  0.00    +0.000 A 
ATOM     30  C   UNL     1      -4.425 -19.156   1.952  0.00  0.00    +0.000 A 
ATOM     31  C   UNL     1      -5.114 -18.234   1.180  0.00  0.00    +0.000 A 
ENDROOT
BRANCH   3  32
ATOM     32  O   UNL     1       0.279 -18.137   2.552  0.00  0.00    +0.000 OA
ATOM     33  H   UNL     1      -0.691 -18.292   2.540  0.00  0.00    +0.000 HD
ENDBRANCH   3  32
BRANCH   3  34
ATOM     34  C   UNL     1       1.466 -20.249   2.780  0.00  0.00    +0.000 C 
ATOM     35  O   UNL     1       2.385 -20.990   2.422  0.00  0.00    +0.000 OA
BRANCH  34  36
ATOM     36  O   UNL     1       0.805 -20.254   3.977  0.00  0.00    +0.000 OA
ATOM     37  C   UNL     1       1.179 -21.216   4.924  0.00  0.00    +0.000 C 
ENDBRANCH  34  36
ENDBRANCH   3  34
TORSDOF 3
ENDMDL
MODEL 4
REMARK VINA RESULT:      -6.6     17.705     19.300
REMARK  Name = 3035817_K252a.pdbqt.pdb
REMARK  3 active torsions:
REMARK  status: ('A' for Active; 'I' for Inactive)
REMARK    1  A    between atoms: C_3  and  O_7
REMARK    2  A    between atoms: C_3  and  C_9
REMARK    3  A    between atoms: C_9  and  O_11
REMARK                            x       y       z     vdW  Elec       q    Type
REMARK                         _______ _______ _______ _____ _____    ______ ____
ROOT
ATOM      1  O   UNL     1      -4.678 -13.835 -13.907  0.00  0.00    +0.000 OA
ATOM      2  C   UNL     1      -5.768 -13.733 -14.890  0.00  0.00    +0.000 C 
ATOM      3  C   UNL     1      -5.163 -12.827 -16.046  0.00  0.00    +0.000 C 
ATOM      4  C   UNL     1      -3.513 -13.920 -14.690  0.00  0.00    +0.000 C 
ATOM      5  C   UNL     1      -3.747 -13.113 -15.830  0.00  0.00    +0.000 C 
ATOM      6  C   UNL     1      -6.962 -13.085 -14.114  0.00  0.00    +0.000 C 
ATOM      7  N   UNL     1      -6.072 -15.111 -15.327  0.00  0.00    +0.000 N 
ATOM      8  C   UNL     1      -5.273 -16.223 -15.413  0.00  0.00    +0.000 A 
ATOM      9  C   UNL     1      -3.894 -16.287 -15.212  0.00  0.00    +0.000 A 
ATOM     10  C   UNL     1      -5.835 -17.435 -15.826  0.00  0.00    +0.000 A 
ATOM     11  N   UNL     1      -3.100 -15.221 -14.923  0.00  0.00    +0.000 N 
ATOM     12  C   UNL     1      -3.308 -17.534 -15.457  0.00  0.00    +0.000 A 
ATOM     13  C   UNL     1      -1.830 -15.814 -15.034  0.00  0.00    +0.000 A 
ATOM     14  C   UNL     1      -1.935 -17.226 -15.331  0.00  0.00    +0.000 A 
ATOM     15  C   UNL     1      -0.576 -15.203 -14.877  0.00  0.00    +0.000 A 
ATOM     16  C   UNL     1      -0.740 -17.960 -15.468  0.00  0.00    +0.000 A 
ATOM     17  C   UNL     1       0.496 -17.336 -15.307  0.00  0.00    +0.000 A 
ATOM     18  C   UNL     1       0.573 -15.981 -15.018  0.00  0.00    +0.000 A 
ATOM     19  C   UNL     1      -3.863 -18.767 -15.854  0.00  0.00    +0.000 A 
ATOM     20  C   UNL     1      -5.272 -18.699 -16.055  0.00  0.00    +0.000 A 
ATOM     21  C   UNL     1      -3.372 -20.090 -16.159  0.00  0.00    +0.000 C 
ATOM     22  C   UNL     1      -5.702 -20.048 -16.516  0.00  0.00    +0.000 C 
ATOM     23  N   UNL     1      -4.549 -20.751 -16.535  0.00  0.00    +0.000 N 
ATOM     24  H   UNL     1      -4.515 -21.723 -16.811  0.00  0.00    +0.000 HD
ATOM     25  O   UNL     1      -2.267 -20.611 -16.136  0.00  0.00    +0.000 OA
ATOM     26  C   UNL     1      -7.164 -17.065 -16.095  0.00  0.00    +0.000 A 
ATOM     27  C   UNL     1      -7.287 -15.651 -15.819  0.00  0.00    +0.000 A 
ATOM     28  C   UNL     1      -8.293 -17.754 -16.584  0.00  0.00    +0.000 A 
ATOM     29  C   UNL     1      -8.507 -14.995 -16.058  0.00  0.00    +0.000 A 
ATOM     30  C   UNL     1      -9.595 -15.722 -16.541  0.00  0.00    +0.000 A 
ATOM     31  C   UNL     1      -9.495 -17.081 -16.794  0.00  0.00    +0.000 A 
ENDROOT
BRANCH   3  32
ATOM     32  O   UNL     1      -5.521 -13.228 -17.377  0.00  0.00    +0.000 OA
ATOM     33  H   UNL     1      -5.009 -12.666 -18.000  0.00  0.00    +0.000 HD
ENDBRANCH   3  32
BRANCH   3  34
ATOM     34  C   UNL     1      -5.478 -11.349 -15.832  0.00  0.00    +0.000 C 
ATOM     35  O   UNL     1      -6.467 -10.836 -16.361  0.00  0.00    +0.000 OA
BRANCH  34  36
ATOM     36  O   UNL     1      -4.526 -10.734 -15.066  0.00  0.00    +0.000 OA
ATOM     37  C   UNL     1      -4.960  -9.973 -13.972  0.00  0.00    +0.000 C 
ENDBRANCH  34  36
ENDBRANCH   3  34
TORSDOF 3
ENDMDL
MODEL 5
REMARK VINA RESULT:      -6.6     17.139     19.201
REMARK  Name = 3035817_K252a.pdbqt.pdb
REMARK  3 active torsions:
REMARK  status: ('A' for Active; 'I' for Inactive)
REMARK    1  A    between atoms: C_3  and  O_7
REMARK    2  A    between atoms: C_3  and  C_9
REMARK    3  A    between atoms: C_9  and  O_11
REMARK                            x       y       z     vdW  Elec       q    Type
REMARK                         _______ _______ _______ _____ _____    ______ ____
ROOT
ATOM      1  O   UNL     1      -6.636 -18.268 -15.534  0.00  0.00    +0.000 OA
ATOM      2  C   UNL     1      -5.428 -17.734 -16.183  0.00  0.00    +0.000 C 
ATOM      3  C   UNL     1      -5.722 -17.893 -17.737  0.00  0.00    +0.000 C 
ATOM      4  C   UNL     1      -7.689 -17.848 -16.365  0.00  0.00    +0.000 C 
ATOM      5  C   UNL     1      -7.181 -17.875 -17.687  0.00  0.00    +0.000 C 
ATOM      6  C   UNL     1      -4.252 -18.616 -15.650  0.00  0.00    +0.000 C 
ATOM      7  N   UNL     1      -5.307 -16.326 -15.754  0.00  0.00    +0.000 N 
ATOM      8  C   UNL     1      -6.262 -15.410 -15.394  0.00  0.00    +0.000 A 
ATOM      9  C   UNL     1      -7.647 -15.565 -15.467  0.00  0.00    +0.000 A 
ATOM     10  C   UNL     1      -5.864 -14.134 -14.982  0.00  0.00    +0.000 A 
ATOM     11  N   UNL     1      -8.281 -16.667 -15.950  0.00  0.00    +0.000 N 
ATOM     12  C   UNL     1      -8.398 -14.435 -15.125  0.00  0.00    +0.000 A 
ATOM     13  C   UNL     1      -9.608 -16.203 -15.979  0.00  0.00    +0.000 A 
ATOM     14  C   UNL     1      -9.704 -14.857 -15.456  0.00  0.00    +0.000 A 
ATOM     15  C   UNL     1     -10.752 -16.886 -16.422  0.00  0.00    +0.000 A 
ATOM     16  C   UNL     1     -10.978 -14.256 -15.417  0.00  0.00    +0.000 A 
ATOM     17  C   UNL     1     -12.103 -14.951 -15.859  0.00  0.00    +0.000 A 
ATOM     18  C   UNL     1     -11.988 -16.243 -16.353  0.00  0.00    +0.000 A 
ATOM     19  C   UNL     1      -8.011 -13.151 -14.690  0.00  0.00    +0.000 A 
ATOM     20  C   UNL     1      -6.596 -12.997 -14.613  0.00  0.00    +0.000 A 
ATOM     21  C   UNL     1      -8.674 -11.917 -14.338  0.00  0.00    +0.000 C 
ATOM     22  C   UNL     1      -6.343 -11.591 -14.194  0.00  0.00    +0.000 C 
ATOM     23  N   UNL     1      -7.586 -11.078 -14.065  0.00  0.00    +0.000 N 
ATOM     24  H   UNL     1      -7.746 -10.120 -13.786  0.00  0.00    +0.000 HD
ATOM     25  O   UNL     1      -9.844 -11.576 -14.262  0.00  0.00    +0.000 OA
ATOM     26  C   UNL     1      -4.468 -14.200 -15.137  0.00  0.00    +0.000 A 
ATOM     27  C   UNL     1      -4.146 -15.519 -15.633  0.00  0.00    +0.000 A 
ATOM     28  C   UNL     1      -3.417 -13.278 -14.952  0.00  0.00    +0.000 A 
ATOM     29  C   UNL     1      -2.814 -15.847 -15.936  0.00  0.00    +0.000 A 
ATOM     30  C   UNL     1      -1.810 -14.900 -15.734  0.00  0.00    +0.000 A 
ATOM     31  C   UNL     1      -2.103 -13.637 -15.244  0.00  0.00    +0.000 A 
ENDROOT
BRANCH   3  32
ATOM     32  O   UNL     1      -5.269 -16.802 -18.551  0.00  0.00    +0.000 OA
ATOM     33  H   UNL     1      -4.368 -16.560 -18.242  0.00  0.00    +0.000 HD
ENDBRANCH   3  32
BRANCH   3  34
ATOM     34  C   UNL     1      -5.193 -19.219 -18.280  0.00  0.00    +0.000 C 
ATOM     35  O   UNL     1      -4.134 -19.259 -18.911  0.00  0.00    +0.000 OA
BRANCH  34  36
ATOM     36  O   UNL     1      -6.051 -20.251 -18.018  0.00  0.00    +0.000 OA
ATOM     37  C   UNL     1      -6.111 -21.300 -18.946  0.00  0.00    +0.000 C 
ENDBRANCH  34  36
ENDBRANCH   3  34
TORSDOF 3
ENDMDL
MODEL 6
REMARK VINA RESULT:      -6.6     17.538     19.909
REMARK  Name = 3035817_K252a.pdbqt.pdb
REMARK  3 active torsions:
REMARK  status: ('A' for Active; 'I' for Inactive)
REMARK    1  A    between atoms: C_3  and  O_7
REMARK    2  A    between atoms: C_3  and  C_9
REMARK    3  A    between atoms: C_9  and  O_11
REMARK                            x       y       z     vdW  Elec       q    Type
REMARK                         _______ _______ _______ _____ _____    ______ ____
ROOT
ATOM      1  O   UNL     1      -5.204 -19.434 -15.752  0.00  0.00    +0.000 OA
ATOM      2  C   UNL     1      -3.948 -19.033 -16.404  0.00  0.00    +0.000 C 
ATOM      3  C   UNL     1      -4.272 -19.123 -17.958  0.00  0.00    +0.000 C 
ATOM      4  C   UNL     1      -6.208 -18.875 -16.563  0.00  0.00    +0.000 C 
ATOM      5  C   UNL     1      -5.719 -18.933 -17.891  0.00  0.00    +0.000 C 
ATOM      6  C   UNL     1      -2.879 -20.059 -15.903  0.00  0.00    +0.000 C 
ATOM      7  N   UNL     1      -3.656 -17.658 -15.948  0.00  0.00    +0.000 N 
ATOM      8  C   UNL     1      -4.494 -16.644 -15.559  0.00  0.00    +0.000 A 
ATOM      9  C   UNL     1      -5.888 -16.632 -15.619  0.00  0.00    +0.000 A 
ATOM     10  C   UNL     1      -3.943 -15.433 -15.126  0.00  0.00    +0.000 A 
ATOM     11  N   UNL     1      -6.652 -17.642 -16.117  0.00  0.00    +0.000 N 
ATOM     12  C   UNL     1      -6.496 -15.429 -15.246  0.00  0.00    +0.000 A 
ATOM     13  C   UNL     1      -7.915 -17.023 -16.122  0.00  0.00    +0.000 A 
ATOM     14  C   UNL     1      -7.846 -15.687 -15.570  0.00  0.00    +0.000 A 
ATOM     15  C   UNL     1      -9.136 -17.557 -16.565  0.00  0.00    +0.000 A 
ATOM     16  C   UNL     1      -9.039 -14.940 -15.505  0.00  0.00    +0.000 A 
ATOM     17  C   UNL     1     -10.243 -15.488 -15.947  0.00  0.00    +0.000 A 
ATOM     18  C   UNL     1     -10.286 -16.773 -16.469  0.00  0.00    +0.000 A 
ATOM     19  C   UNL     1      -5.956 -14.209 -14.789  0.00  0.00    +0.000 A 
ATOM     20  C   UNL     1      -4.533 -14.226 -14.726  0.00  0.00    +0.000 A 
ATOM     21  C   UNL     1      -6.465 -12.914 -14.405  0.00  0.00    +0.000 C 
ATOM     22  C   UNL     1      -4.111 -12.869 -14.281  0.00  0.00    +0.000 C 
ATOM     23  N   UNL     1      -5.283 -12.215 -14.128  0.00  0.00    +0.000 N 
ATOM     24  H   UNL     1      -5.326 -11.251 -13.827  0.00  0.00    +0.000 HD
ATOM     25  O   UNL     1      -7.586 -12.438 -14.308  0.00  0.00    +0.000 OA
ATOM     26  C   UNL     1      -2.566 -15.660 -15.298  0.00  0.00    +0.000 A 
ATOM     27  C   UNL     1      -2.408 -16.998 -15.825  0.00  0.00    +0.000 A 
ATOM     28  C   UNL     1      -1.413 -14.873 -15.107  0.00  0.00    +0.000 A 
ATOM     29  C   UNL     1      -1.126 -17.474 -16.150  0.00  0.00    +0.000 A 
ATOM     30  C   UNL     1      -0.015 -16.656 -15.940  0.00  0.00    +0.000 A 
ATOM     31  C   UNL     1      -0.153 -15.379 -15.421  0.00  0.00    +0.000 A 
ENDROOT
BRANCH   3  32
ATOM     32  O   UNL     1      -3.701 -18.075 -18.755  0.00  0.00    +0.000 OA
ATOM     33  H   UNL     1      -3.029 -17.620 -18.201  0.00  0.00    +0.000 HD
ENDBRANCH   3  32
BRANCH   3  34
ATOM     34  C   UNL     1      -3.909 -20.489 -18.534  0.00  0.00    +0.000 C 
ATOM     35  O   UNL     1      -4.635 -21.467 -18.332  0.00  0.00    +0.000 OA
BRANCH  34  36
ATOM     36  O   UNL     1      -2.717 -20.456 -19.202  0.00  0.00    +0.000 OA
ATOM     37  C   UNL     1      -1.978 -21.645 -19.276  0.00  0.00    +0.000 C 
ENDBRANCH  34  36
ENDBRANCH   3  34
TORSDOF 3
ENDMDL
MODEL 7
REMARK VINA RESULT:      -6.5      3.211      5.764
REMARK  Name = 3035817_K252a.pdbqt.pdb
REMARK  3 active torsions:
REMARK  status: ('A' for Active; 'I' for Inactive)
REMARK    1  A    between atoms: C_3  and  O_7
REMARK    2  A    between atoms: C_3  and  C_9
REMARK    3  A    between atoms: C_9  and  O_11
REMARK                            x       y       z     vdW  Elec       q    Type
REMARK                         _______ _______ _______ _____ _____    ______ ____
ROOT
ATOM      1  O   UNL     1     -16.758 -18.914  -0.235  0.00  0.00    +0.000 OA
ATOM      2  C   UNL     1     -17.136 -19.127  -1.642  0.00  0.00    +0.000 C 
ATOM      3  C   UNL     1     -15.772 -18.957  -2.439  0.00  0.00    +0.000 C 
ATOM      4  C   UNL     1     -15.493 -19.517  -0.123  0.00  0.00    +0.000 C 
ATOM      5  C   UNL     1     -14.846 -19.307  -1.365  0.00  0.00    +0.000 C 
ATOM      6  C   UNL     1     -18.209 -18.031  -1.948  0.00  0.00    +0.000 C 
ATOM      7  N   UNL     1     -17.695 -20.491  -1.726  0.00  0.00    +0.000 N 
ATOM      8  C   UNL     1     -17.434 -21.617  -0.986  0.00  0.00    +0.000 A 
ATOM      9  C   UNL     1     -16.447 -21.775  -0.013  0.00  0.00    +0.000 A 
ATOM     10  C   UNL     1     -18.148 -22.789  -1.253  0.00  0.00    +0.000 A 
ATOM     11  N   UNL     1     -15.543 -20.821   0.340  0.00  0.00    +0.000 N 
ATOM     12  C   UNL     1     -16.332 -23.062   0.525  0.00  0.00    +0.000 A 
ATOM     13  C   UNL     1     -14.697 -21.571   1.176  0.00  0.00    +0.000 A 
ATOM     14  C   UNL     1     -15.175 -22.928   1.323  0.00  0.00    +0.000 A 
ATOM     15  C   UNL     1     -13.535 -21.141   1.837  0.00  0.00    +0.000 A 
ATOM     16  C   UNL     1     -14.430 -23.803   2.139  0.00  0.00    +0.000 A 
ATOM     17  C   UNL     1     -13.280 -23.357   2.788  0.00  0.00    +0.000 A 
ATOM     18  C   UNL     1     -12.842 -22.049   2.636  0.00  0.00    +0.000 A 
ATOM     19  C   UNL     1     -17.057 -24.246   0.280  0.00  0.00    +0.000 A 
ATOM     20  C   UNL     1     -18.067 -24.080  -0.712  0.00  0.00    +0.000 A 
ATOM     21  C   UNL     1     -17.020 -25.614   0.740  0.00  0.00    +0.000 C 
ATOM     22  C   UNL     1     -18.705 -25.412  -0.896  0.00  0.00    +0.000 C 
ATOM     23  N   UNL     1     -18.037 -26.199  -0.025  0.00  0.00    +0.000 N 
ATOM     24  H   UNL     1     -18.247 -27.182   0.084  0.00  0.00    +0.000 HD
ATOM     25  O   UNL     1     -16.341 -26.215   1.560  0.00  0.00    +0.000 OA
ATOM     26  C   UNL     1     -18.949 -22.402  -2.342  0.00  0.00    +0.000 A 
ATOM     27  C   UNL     1     -18.643 -21.020  -2.638  0.00  0.00    +0.000 A 
ATOM     28  C   UNL     1     -19.886 -23.072  -3.156  0.00  0.00    +0.000 A 
ATOM     29  C   UNL     1     -19.263 -20.385  -3.728  0.00  0.00    +0.000 A 
ATOM     30  C   UNL     1     -20.184 -21.090  -4.502  0.00  0.00    +0.000 A 
ATOM     31  C   UNL     1     -20.497 -22.410  -4.219  0.00  0.00    +0.000 A 
ENDROOT
BRANCH   3  32
ATOM     32  O   UNL     1     -15.591 -19.874  -3.528  0.00  0.00    +0.000 OA
ATOM     33  H   UNL     1     -15.352 -20.745  -3.140  0.00  0.00    +0.000 HD
ENDBRANCH   3  32
BRANCH   3  34
ATOM     34  C   UNL     1     -15.568 -17.520  -2.913  0.00  0.00    +0.000 C 
ATOM     35  O   UNL     1     -14.998 -16.698  -2.191  0.00  0.00    +0.000 OA
BRANCH  34  36
ATOM     36  O   UNL     1     -16.128 -17.309  -4.142  0.00  0.00    +0.000 OA
ATOM     37  C   UNL     1     -16.293 -15.982  -4.564  0.00  0.00    +0.000 C 
ENDBRANCH  34  36
ENDBRANCH   3  34
TORSDOF 3
ENDMDL
MODEL 8
REMARK VINA RESULT:      -6.3      1.317      5.243
REMARK  Name = 3035817_K252a.pdbqt.pdb
REMARK  3 active torsions:
REMARK  status: ('A' for Active; 'I' for Inactive)
REMARK    1  A    between atoms: C_3  and  O_7
REMARK    2  A    between atoms: C_3  and  C_9
REMARK    3  A    between atoms: C_9  and  O_11
REMARK                            x       y       z     vdW  Elec       q    Type
REMARK                         _______ _______ _______ _____ _____    ______ ____
ROOT
ATOM      1  O   UNL     1     -14.865 -19.347  -1.721  0.00  0.00    +0.000 OA
ATOM      2  C   UNL     1     -14.728 -17.982  -1.190  0.00  0.00    +0.000 C 
ATOM      3  C   UNL     1     -16.215 -17.562  -0.815  0.00  0.00    +0.000 C 
ATOM      4  C   UNL     1     -15.860 -19.933  -0.919  0.00  0.00    +0.000 C 
ATOM      5  C   UNL     1     -16.773 -18.896  -0.605  0.00  0.00    +0.000 C 
ATOM      6  C   UNL     1     -14.091 -17.151  -2.352  0.00  0.00    +0.000 C 
ATOM      7  N   UNL     1     -13.835 -18.073  -0.017  0.00  0.00    +0.000 N 
ATOM      8  C   UNL     1     -13.616 -19.098   0.868  0.00  0.00    +0.000 A 
ATOM      9  C   UNL     1     -14.305 -20.309   0.942  0.00  0.00    +0.000 A 
ATOM     10  C   UNL     1     -12.667 -18.933   1.882  0.00  0.00    +0.000 A 
ATOM     11  N   UNL     1     -15.353 -20.657   0.146  0.00  0.00    +0.000 N 
ATOM     12  C   UNL     1     -13.943 -21.144   2.005  0.00  0.00    +0.000 A 
ATOM     13  C   UNL     1     -15.769 -21.841   0.781  0.00  0.00    +0.000 A 
ATOM     14  C   UNL     1     -14.908 -22.169   1.896  0.00  0.00    +0.000 A 
ATOM     15  C   UNL     1     -16.851 -22.669   0.438  0.00  0.00    +0.000 A 
ATOM     16  C   UNL     1     -15.199 -23.336   2.631  0.00  0.00    +0.000 A 
ATOM     17  C   UNL     1     -16.276 -24.146   2.274  0.00  0.00    +0.000 A 
ATOM     18  C   UNL     1     -17.086 -23.814   1.198  0.00  0.00    +0.000 A 
ATOM     19  C   UNL     1     -12.977 -20.999   3.022  0.00  0.00    +0.000 A 
ATOM     20  C   UNL     1     -12.272 -19.763   2.941  0.00  0.00    +0.000 A 
ATOM     21  C   UNL     1     -12.534 -21.760   4.166  0.00  0.00    +0.000 C 
ATOM     22  C   UNL     1     -11.334 -19.732   4.096  0.00  0.00    +0.000 C 
ATOM     23  N   UNL     1     -11.566 -20.910   4.716  0.00  0.00    +0.000 N 
ATOM     24  H   UNL     1     -11.069 -21.185   5.552  0.00  0.00    +0.000 HD
ATOM     25  O   UNL     1     -12.839 -22.848   4.630  0.00  0.00    +0.000 OA
ATOM     26  C   UNL     1     -12.241 -17.609   1.670  0.00  0.00    +0.000 A 
ATOM     27  C   UNL     1     -12.976 -17.091   0.538  0.00  0.00    +0.000 A 
ATOM     28  C   UNL     1     -11.334 -16.755   2.330  0.00  0.00    +0.000 A 
ATOM     29  C   UNL     1     -12.790 -15.758   0.135  0.00  0.00    +0.000 A 
ATOM     30  C   UNL     1     -11.880 -14.953   0.820  0.00  0.00    +0.000 A 
ATOM     31  C   UNL     1     -11.157 -15.443   1.896  0.00  0.00    +0.000 A 
ENDROOT
BRANCH   3  32
ATOM     32  O   UNL     1     -16.341 -16.808   0.399  0.00  0.00    +0.000 OA
ATOM     33  H   UNL     1     -15.436 -16.679   0.759  0.00  0.00    +0.000 HD
ENDBRANCH   3  32
BRANCH   3  34
ATOM     34  C   UNL     1     -16.906 -16.837  -1.967  0.00  0.00    +0.000 C 
ATOM     35  O   UNL     1     -17.065 -15.614  -1.932  0.00  0.00    +0.000 OA
BRANCH  34  36
ATOM     36  O   UNL     1     -17.331 -17.709  -2.932  0.00  0.00    +0.000 OA
ATOM     37  C   UNL     1     -17.253 -17.292  -4.267  0.00  0.00    +0.000 C 
ENDBRANCH  34  36
ENDBRANCH   3  34
TORSDOF 3
ENDMDL
MODEL 9
REMARK VINA RESULT:      -6.2     17.977     21.000
REMARK  Name = 3035817_K252a.pdbqt.pdb
REMARK  3 active torsions:
REMARK  status: ('A' for Active; 'I' for Inactive)
REMARK    1  A    between atoms: C_3  and  O_7
REMARK    2  A    between atoms: C_3  and  C_9
REMARK    3  A    between atoms: C_9  and  O_11
REMARK                            x       y       z     vdW  Elec       q    Type
REMARK                         _______ _______ _______ _____ _____    ______ ____
ROOT
ATOM      1  O   UNL     1      -5.011 -36.714   0.385  0.00  0.00    +0.000 OA
ATOM      2  C   UNL     1      -4.403 -37.898  -0.242  0.00  0.00    +0.000 C 
ATOM      3  C   UNL     1      -5.626 -38.887  -0.468  0.00  0.00    +0.000 C 
ATOM      4  C   UNL     1      -6.254 -36.581  -0.259  0.00  0.00    +0.000 C 
ATOM      5  C   UNL     1      -6.700 -37.898  -0.529  0.00  0.00    +0.000 C 
ATOM      6  C   UNL     1      -3.338 -38.404   0.784  0.00  0.00    +0.000 C 
ATOM      7  N   UNL     1      -3.786 -37.436  -1.503  0.00  0.00    +0.000 N 
ATOM      8  C   UNL     1      -4.120 -36.404  -2.342  0.00  0.00    +0.000 A 
ATOM      9  C   UNL     1      -5.245 -35.582  -2.261  0.00  0.00    +0.000 A 
ATOM     10  C   UNL     1      -3.328 -36.156  -3.468  0.00  0.00    +0.000 A 
ATOM     11  N   UNL     1      -6.229 -35.702  -1.329  0.00  0.00    +0.000 N 
ATOM     12  C   UNL     1      -5.395 -34.663  -3.304  0.00  0.00    +0.000 A 
ATOM     13  C   UNL     1      -7.170 -34.789  -1.836  0.00  0.00    +0.000 A 
ATOM     14  C   UNL     1      -6.670 -34.126  -3.021  0.00  0.00    +0.000 A 
ATOM     15  C   UNL     1      -8.439 -34.481  -1.320  0.00  0.00    +0.000 A 
ATOM     16  C   UNL     1      -7.503 -33.175  -3.644  0.00  0.00    +0.000 A 
ATOM     17  C   UNL     1      -8.760 -32.881  -3.115  0.00  0.00    +0.000 A 
ATOM     18  C   UNL     1      -9.217 -33.526  -1.975  0.00  0.00    +0.000 A 
ATOM     19  C   UNL     1      -4.596 -34.389  -4.433  0.00  0.00    +0.000 A 
ATOM     20  C   UNL     1      -3.446 -35.227  -4.511  0.00  0.00    +0.000 A 
ATOM     21  C   UNL     1      -4.654 -33.503  -5.571  0.00  0.00    +0.000 C 
ATOM     22  C   UNL     1      -2.736 -34.859  -5.767  0.00  0.00    +0.000 C 
ATOM     23  N   UNL     1      -3.505 -33.875  -6.281  0.00  0.00    +0.000 N 
ATOM     24  H   UNL     1      -3.277 -33.413  -7.150  0.00  0.00    +0.000 HD
ATOM     25  O   UNL     1      -5.433 -32.632  -5.928  0.00  0.00    +0.000 OA
ATOM     26  C   UNL     1      -2.377 -37.189  -3.389  0.00  0.00    +0.000 A 
ATOM     27  C   UNL     1      -2.683 -37.974  -2.214  0.00  0.00    +0.000 A 
ATOM     28  C   UNL     1      -1.296 -37.589  -4.201  0.00  0.00    +0.000 A 
ATOM     29  C   UNL     1      -1.921 -39.117  -1.918  0.00  0.00    +0.000 A 
ATOM     30  C   UNL     1      -0.860 -39.471  -2.752  0.00  0.00    +0.000 A 
ATOM     31  C   UNL     1      -0.547 -38.718  -3.872  0.00  0.00    +0.000 A 
ENDROOT
BRANCH   3  32
ATOM     32  O   UNL     1      -5.593 -39.616  -1.704  0.00  0.00    +0.000 OA
ATOM     33  H   UNL     1      -6.519 -39.860  -1.925  0.00  0.00    +0.000 HD
ENDBRANCH   3  32
BRANCH   3  34
ATOM     34  C   UNL     1      -5.806 -39.843   0.709  0.00  0.00    +0.000 C 
ATOM     35  O   UNL     1      -5.314 -40.973   0.678  0.00  0.00    +0.000 OA
BRANCH  34  36
ATOM     36  O   UNL     1      -6.587 -39.296   1.690  0.00  0.00    +0.000 OA
ATOM     37  C   UNL     1      -6.133 -39.390   3.013  0.00  0.00    +0.000 C 
ENDBRANCH  34  36
ENDBRANCH   3  34
TORSDOF 3
ENDMDL
