MODEL 1
REMARK VINA RESULT:      -4.6      0.000      0.000
REMARK  Name = 3136_Dimethoxy.pdbqt.pdb
REMARK  2 active torsions:
REMARK  status: ('A' for Active; 'I' for Inactive)
REMARK    1  A    between atoms: C_7  and  O_13
REMARK    2  A    between atoms: C_8  and  O_15
REMARK                            x       y       z     vdW  Elec       q    Type
REMARK                         _______ _______ _______ _____ _____    ______ ____
ROOT
ATOM      1  O   UNL     1      -2.425 -36.780  -7.733  0.00  0.00    +0.000 OA
ATOM      2  O   UNL     1      -4.361 -31.954  -6.570  0.00  0.00    +0.000 OA
ATOM      3  C   UNL     1      -2.496 -34.504  -8.267  0.00  0.00    +0.000 A 
ATOM      4  C   UNL     1      -3.020 -33.252  -7.979  0.00  0.00    +0.000 A 
ATOM      5  C   UNL     1      -2.848 -35.668  -7.446  0.00  0.00    +0.000 C 
ATOM      6  C   UNL     1      -3.942 -33.067  -6.853  0.00  0.00    +0.000 C 
ATOM      7  C   UNL     1      -3.742 -35.458  -6.281  0.00  0.00    +0.000 C 
ATOM      8  C   UNL     1      -4.328 -34.262  -6.064  0.00  0.00    +0.000 C 
ATOM      9  C   UNL     1      -1.626 -34.667  -9.344  0.00  0.00    +0.000 A 
ATOM     10  C   UNL     1      -2.673 -32.152  -8.763  0.00  0.00    +0.000 A 
ATOM     11  C   UNL     1      -1.279 -33.570 -10.129  0.00  0.00    +0.000 A 
ATOM     12  C   UNL     1      -1.802 -32.312  -9.839  0.00  0.00    +0.000 A 
ENDROOT
BRANCH   7  13
ATOM     13  O   UNL     1      -3.997 -36.584  -5.521  0.00  0.00    +0.000 OA
ATOM     14  C   UNL     1      -3.126 -36.617  -4.416  0.00  0.00    +0.000 C 
ENDBRANCH   7  13
BRANCH   8  15
ATOM     15  O   UNL     1      -5.238 -34.031  -5.048  0.00  0.00    +0.000 OA
ATOM     16  C   UNL     1      -6.515 -34.471  -5.446  0.00  0.00    +0.000 C 
ENDBRANCH   8  15
TORSDOF 2
ENDMDL
MODEL 2
REMARK VINA RESULT:      -4.3      1.108      3.306
REMARK  Name = 3136_Dimethoxy.pdbqt.pdb
REMARK  2 active torsions:
REMARK  status: ('A' for Active; 'I' for Inactive)
REMARK    1  A    between atoms: C_7  and  O_13
REMARK    2  A    between atoms: C_8  and  O_15
REMARK                            x       y       z     vdW  Elec       q    Type
REMARK                         _______ _______ _______ _____ _____    ______ ____
ROOT
ATOM      1  O   UNL     1      -5.808 -32.669  -5.589  0.00  0.00    +0.000 OA
ATOM      2  O   UNL     1      -2.816 -36.522  -7.734  0.00  0.00    +0.000 OA
ATOM      3  C   UNL     1      -4.186 -33.256  -7.168  0.00  0.00    +0.000 A 
ATOM      4  C   UNL     1      -3.389 -34.255  -7.710  0.00  0.00    +0.000 A 
ATOM      5  C   UNL     1      -5.143 -33.561  -6.099  0.00  0.00    +0.000 C 
ATOM      6  C   UNL     1      -3.482 -35.634  -7.220  0.00  0.00    +0.000 C 
ATOM      7  C   UNL     1      -5.262 -34.969  -5.648  0.00  0.00    +0.000 C 
ATOM      8  C   UNL     1      -4.418 -35.917  -6.104  0.00  0.00    +0.000 C 
ATOM      9  C   UNL     1      -4.083 -31.948  -7.639  0.00  0.00    +0.000 A 
ATOM     10  C   UNL     1      -2.487 -33.953  -8.730  0.00  0.00    +0.000 A 
ATOM     11  C   UNL     1      -3.182 -31.644  -8.657  0.00  0.00    +0.000 A 
ATOM     12  C   UNL     1      -2.384 -32.647  -9.203  0.00  0.00    +0.000 A 
ENDROOT
BRANCH   7  13
ATOM     13  O   UNL     1      -6.215 -35.199  -4.672  0.00  0.00    +0.000 OA
ATOM     14  C   UNL     1      -7.408 -35.643  -5.272  0.00  0.00    +0.000 C 
ENDBRANCH   7  13
BRANCH   8  15
ATOM     15  O   UNL     1      -4.422 -37.226  -5.654  0.00  0.00    +0.000 OA
ATOM     16  C   UNL     1      -3.604 -37.337  -4.514  0.00  0.00    +0.000 C 
ENDBRANCH   8  15
TORSDOF 2
ENDMDL
MODEL 3
REMARK VINA RESULT:      -4.2     21.853     23.118
REMARK  Name = 3136_Dimethoxy.pdbqt.pdb
REMARK  2 active torsions:
REMARK  status: ('A' for Active; 'I' for Inactive)
REMARK    1  A    between atoms: C_7  and  O_13
REMARK    2  A    between atoms: C_8  and  O_15
REMARK                            x       y       z     vdW  Elec       q    Type
REMARK                         _______ _______ _______ _____ _____    ______ ____
ROOT
ATOM      1  O   UNL     1     -17.733 -18.208  -6.673  0.00  0.00    +0.000 OA
ATOM      2  O   UNL     1     -16.352 -14.167  -9.861  0.00  0.00    +0.000 OA
ATOM      3  C   UNL     1     -16.883 -16.036  -6.846  0.00  0.00    +0.000 A 
ATOM      4  C   UNL     1     -16.501 -14.994  -7.678  0.00  0.00    +0.000 A 
ATOM      5  C   UNL     1     -17.444 -17.271  -7.405  0.00  0.00    +0.000 C 
ATOM      6  C   UNL     1     -16.642 -15.107  -9.134  0.00  0.00    +0.000 C 
ATOM      7  C   UNL     1     -17.627 -17.353  -8.875  0.00  0.00    +0.000 C 
ATOM      8  C   UNL     1     -17.162 -16.381  -9.687  0.00  0.00    +0.000 C 
ATOM      9  C   UNL     1     -16.738 -15.917  -5.464  0.00  0.00    +0.000 A 
ATOM     10  C   UNL     1     -15.974 -13.822  -7.133  0.00  0.00    +0.000 A 
ATOM     11  C   UNL     1     -16.212 -14.749  -4.919  0.00  0.00    +0.000 A 
ATOM     12  C   UNL     1     -15.830 -13.700  -5.753  0.00  0.00    +0.000 A 
ENDROOT
BRANCH   7  13
ATOM     13  O   UNL     1     -18.204 -18.523  -9.334  0.00  0.00    +0.000 OA
ATOM     14  C   UNL     1     -19.580 -18.320  -9.544  0.00  0.00    +0.000 C 
ENDBRANCH   7  13
BRANCH   8  15
ATOM     15  O   UNL     1     -17.225 -16.443 -11.068  0.00  0.00    +0.000 OA
ATOM     16  C   UNL     1     -16.092 -17.116 -11.562  0.00  0.00    +0.000 C 
ENDBRANCH   8  15
TORSDOF 2
ENDMDL
MODEL 4
REMARK VINA RESULT:      -4.1     12.447     14.410
REMARK  Name = 3136_Dimethoxy.pdbqt.pdb
REMARK  2 active torsions:
REMARK  status: ('A' for Active; 'I' for Inactive)
REMARK    1  A    between atoms: C_7  and  O_13
REMARK    2  A    between atoms: C_8  and  O_15
REMARK                            x       y       z     vdW  Elec       q    Type
REMARK                         _______ _______ _______ _____ _____    ______ ____
ROOT
ATOM      1  O   UNL     1     -10.386 -29.274 -18.406  0.00  0.00    +0.000 OA
ATOM      2  O   UNL     1      -8.646 -24.707 -16.281  0.00  0.00    +0.000 OA
ATOM      3  C   UNL     1      -9.137 -28.233 -16.726  0.00  0.00    +0.000 A 
ATOM      4  C   UNL     1      -8.664 -27.044 -16.187  0.00  0.00    +0.000 A 
ATOM      5  C   UNL     1     -10.012 -28.223 -17.903  0.00  0.00    +0.000 C 
ATOM      6  C   UNL     1      -9.022 -25.755 -16.788  0.00  0.00    +0.000 C 
ATOM      7  C   UNL     1     -10.406 -26.910 -18.471  0.00  0.00    +0.000 C 
ATOM      8  C   UNL     1      -9.866 -25.764 -18.008  0.00  0.00    +0.000 C 
ATOM      9  C   UNL     1      -8.784 -29.451 -16.148  0.00  0.00    +0.000 A 
ATOM     10  C   UNL     1      -7.837 -27.066 -15.063  0.00  0.00    +0.000 A 
ATOM     11  C   UNL     1      -7.957 -29.475 -15.027  0.00  0.00    +0.000 A 
ATOM     12  C   UNL     1      -7.484 -28.283 -14.484  0.00  0.00    +0.000 A 
ENDROOT
BRANCH   7  13
ATOM     13  O   UNL     1     -11.269 -26.969 -19.550  0.00  0.00    +0.000 OA
ATOM     14  C   UNL     1     -12.594 -26.800 -19.105  0.00  0.00    +0.000 C 
ENDBRANCH   7  13
BRANCH   8  15
ATOM     15  O   UNL     1     -10.127 -24.521 -18.555  0.00  0.00    +0.000 OA
ATOM     16  C   UNL     1      -9.228 -24.269 -19.609  0.00  0.00    +0.000 C 
ENDBRANCH   8  15
TORSDOF 2
ENDMDL
MODEL 5
REMARK VINA RESULT:      -4.0     17.125     18.290
REMARK  Name = 3136_Dimethoxy.pdbqt.pdb
REMARK  2 active torsions:
REMARK  status: ('A' for Active; 'I' for Inactive)
REMARK    1  A    between atoms: C_7  and  O_13
REMARK    2  A    between atoms: C_8  and  O_15
REMARK                            x       y       z     vdW  Elec       q    Type
REMARK                         _______ _______ _______ _____ _____    ______ ____
ROOT
ATOM      1  O   UNL     1      -1.521 -20.101 -16.826  0.00  0.00    +0.000 OA
ATOM      2  O   UNL     1      -3.270 -16.231 -13.607  0.00  0.00    +0.000 OA
ATOM      3  C   UNL     1      -1.033 -18.607 -15.094  0.00  0.00    +0.000 A 
ATOM      4  C   UNL     1      -1.482 -17.582 -14.273  0.00  0.00    +0.000 A 
ATOM      5  C   UNL     1      -1.934 -19.232 -16.069  0.00  0.00    +0.000 C 
ATOM      6  C   UNL     1      -2.863 -17.098 -14.367  0.00  0.00    +0.000 C 
ATOM      7  C   UNL     1      -3.341 -18.767 -16.119  0.00  0.00    +0.000 C 
ATOM      8  C   UNL     1      -3.747 -17.705 -15.392  0.00  0.00    +0.000 C 
ATOM      9  C   UNL     1       0.284 -19.054 -14.998  0.00  0.00    +0.000 A 
ATOM     10  C   UNL     1      -0.617 -17.000 -13.346  0.00  0.00    +0.000 A 
ATOM     11  C   UNL     1       1.150 -18.472 -14.074  0.00  0.00    +0.000 A 
ATOM     12  C   UNL     1       0.699 -17.446 -13.247  0.00  0.00    +0.000 A 
ENDROOT
BRANCH   7  13
ATOM     13  O   UNL     1      -4.150 -19.428 -17.024  0.00  0.00    +0.000 OA
ATOM     14  C   UNL     1      -4.939 -20.378 -16.348  0.00  0.00    +0.000 C 
ENDBRANCH   7  13
BRANCH   8  15
ATOM     15  O   UNL     1      -5.021 -17.171 -15.464  0.00  0.00    +0.000 OA
ATOM     16  C   UNL     1      -5.076 -16.215 -16.496  0.00  0.00    +0.000 C 
ENDBRANCH   8  15
TORSDOF 2
ENDMDL
MODEL 6
REMARK VINA RESULT:      -4.0     17.198     19.111
REMARK  Name = 3136_Dimethoxy.pdbqt.pdb
REMARK  2 active torsions:
REMARK  status: ('A' for Active; 'I' for Inactive)
REMARK    1  A    between atoms: C_7  and  O_13
REMARK    2  A    between atoms: C_8  and  O_15
REMARK                            x       y       z     vdW  Elec       q    Type
REMARK                         _______ _______ _______ _____ _____    ______ ____
ROOT
ATOM      1  O   UNL     1      -0.967 -17.200  -1.698  0.00  0.00    +0.000 OA
ATOM      2  O   UNL     1      -5.603 -16.583   0.858  0.00  0.00    +0.000 OA
ATOM      3  C   UNL     1      -2.564 -18.125  -0.261  0.00  0.00    +0.000 A 
ATOM      4  C   UNL     1      -3.759 -17.954   0.424  0.00  0.00    +0.000 A 
ATOM      5  C   UNL     1      -2.046 -17.067  -1.135  0.00  0.00    +0.000 C 
ATOM      6  C   UNL     1      -4.525 -16.710   0.294  0.00  0.00    +0.000 C 
ATOM      7  C   UNL     1      -2.856 -15.834  -1.296  0.00  0.00    +0.000 C 
ATOM      8  C   UNL     1      -3.963 -15.630  -0.554  0.00  0.00    +0.000 C 
ATOM      9  C   UNL     1      -1.843 -19.311  -0.124  0.00  0.00    +0.000 A 
ATOM     10  C   UNL     1      -4.244 -18.970   1.248  0.00  0.00    +0.000 A 
ATOM     11  C   UNL     1      -2.325 -20.326   0.700  0.00  0.00    +0.000 A 
ATOM     12  C   UNL     1      -3.526 -20.156   1.385  0.00  0.00    +0.000 A 
ENDROOT
BRANCH   7  13
ATOM     13  O   UNL     1      -2.336 -14.897  -2.170  0.00  0.00    +0.000 OA
ATOM     14  C   UNL     1      -2.900 -15.077  -3.447  0.00  0.00    +0.000 C 
ENDBRANCH   7  13
BRANCH   8  15
ATOM     15  O   UNL     1      -4.707 -14.464  -0.595  0.00  0.00    +0.000 OA
ATOM     16  C   UNL     1      -4.161 -13.522   0.296  0.00  0.00    +0.000 C 
ENDBRANCH   8  15
TORSDOF 2
ENDMDL
MODEL 7
REMARK VINA RESULT:      -4.0     16.911     18.220
REMARK  Name = 3136_Dimethoxy.pdbqt.pdb
REMARK  2 active torsions:
REMARK  status: ('A' for Active; 'I' for Inactive)
REMARK    1  A    between atoms: C_7  and  O_13
REMARK    2  A    between atoms: C_8  and  O_15
REMARK                            x       y       z     vdW  Elec       q    Type
REMARK                         _______ _______ _______ _____ _____    ______ ____
ROOT
ATOM      1  O   UNL     1      -1.491 -20.356 -16.435  0.00  0.00    +0.000 OA
ATOM      2  O   UNL     1      -3.433 -16.206 -13.714  0.00  0.00    +0.000 OA
ATOM      3  C   UNL     1      -3.365 -19.085 -15.853  0.00  0.00    +0.000 A 
ATOM      4  C   UNL     1      -3.874 -18.019 -15.125  0.00  0.00    +0.000 A 
ATOM      5  C   UNL     1      -1.930 -19.386 -15.833  0.00  0.00    +0.000 C 
ATOM      6  C   UNL     1      -2.989 -17.176 -14.314  0.00  0.00    +0.000 C 
ATOM      7  C   UNL     1      -1.040 -18.495 -15.048  0.00  0.00    +0.000 C 
ATOM      8  C   UNL     1      -1.548 -17.523 -14.263  0.00  0.00    +0.000 C 
ATOM      9  C   UNL     1      -4.219 -19.882 -16.615  0.00  0.00    +0.000 A 
ATOM     10  C   UNL     1      -5.241 -17.739 -15.157  0.00  0.00    +0.000 A 
ATOM     11  C   UNL     1      -5.584 -19.605 -16.647  0.00  0.00    +0.000 A 
ATOM     12  C   UNL     1      -6.095 -18.534 -15.919  0.00  0.00    +0.000 A 
ENDROOT
BRANCH   7  13
ATOM     13  O   UNL     1       0.307 -18.804 -15.108  0.00  0.00    +0.000 OA
ATOM     14  C   UNL     1       0.639 -19.679 -14.058  0.00  0.00    +0.000 C 
ENDBRANCH   7  13
BRANCH   8  15
ATOM     15  O   UNL     1      -0.776 -16.721 -13.442  0.00  0.00    +0.000 OA
ATOM     16  C   UNL     1      -0.067 -15.789 -14.223  0.00  0.00    +0.000 C 
ENDBRANCH   8  15
TORSDOF 2
ENDMDL
MODEL 8
REMARK VINA RESULT:      -3.9     17.428     19.128
REMARK  Name = 3136_Dimethoxy.pdbqt.pdb
REMARK  2 active torsions:
REMARK  status: ('A' for Active; 'I' for Inactive)
REMARK    1  A    between atoms: C_7  and  O_13
REMARK    2  A    between atoms: C_8  and  O_15
REMARK                            x       y       z     vdW  Elec       q    Type
REMARK                         _______ _______ _______ _____ _____    ______ ____
ROOT
ATOM      1  O   UNL     1      -3.211 -15.280 -15.219  0.00  0.00    +0.000 OA
ATOM      2  O   UNL     1      -4.835 -20.294 -16.007  0.00  0.00    +0.000 OA
ATOM      3  C   UNL     1      -5.010 -16.750 -15.487  0.00  0.00    +0.000 A 
ATOM      4  C   UNL     1      -5.432 -18.051 -15.717  0.00  0.00    +0.000 A 
ATOM      5  C   UNL     1      -3.582 -16.437 -15.371  0.00  0.00    +0.000 C 
ATOM      6  C   UNL     1      -4.459 -19.140 -15.856  0.00  0.00    +0.000 C 
ATOM      7  C   UNL     1      -2.611 -17.555 -15.464  0.00  0.00    +0.000 C 
ATOM      8  C   UNL     1      -3.017 -18.800 -15.787  0.00  0.00    +0.000 C 
ATOM      9  C   UNL     1      -5.946 -15.723 -15.363  0.00  0.00    +0.000 A 
ATOM     10  C   UNL     1      -6.794 -18.338 -15.819  0.00  0.00    +0.000 A 
ATOM     11  C   UNL     1      -7.306 -16.006 -15.466  0.00  0.00    +0.000 A 
ATOM     12  C   UNL     1      -7.730 -17.314 -15.694  0.00  0.00    +0.000 A 
ENDROOT
BRANCH   7  13
ATOM     13  O   UNL     1      -1.285 -17.201 -15.299  0.00  0.00    +0.000 OA
ATOM     14  C   UNL     1      -0.908 -17.390 -13.957  0.00  0.00    +0.000 C 
ENDBRANCH   7  13
BRANCH   8  15
ATOM     15  O   UNL     1      -2.150 -19.862 -15.975  0.00  0.00    +0.000 OA
ATOM     16  C   UNL     1      -1.723 -19.893 -17.316  0.00  0.00    +0.000 C 
ENDBRANCH   8  15
TORSDOF 2
ENDMDL
MODEL 9
REMARK VINA RESULT:      -3.9      1.412      2.056
REMARK  Name = 3136_Dimethoxy.pdbqt.pdb
REMARK  2 active torsions:
REMARK  status: ('A' for Active; 'I' for Inactive)
REMARK    1  A    between atoms: C_7  and  O_13
REMARK    2  A    between atoms: C_8  and  O_15
REMARK                            x       y       z     vdW  Elec       q    Type
REMARK                         _______ _______ _______ _____ _____    ______ ____
ROOT
ATOM      1  O   UNL     1      -3.303 -37.060  -5.978  0.00  0.00    +0.000 OA
ATOM      2  O   UNL     1      -6.112 -32.574  -5.359  0.00  0.00    +0.000 OA
ATOM      3  C   UNL     1      -3.731 -34.885  -6.722  0.00  0.00    +0.000 A 
ATOM      4  C   UNL     1      -4.480 -33.726  -6.576  0.00  0.00    +0.000 A 
ATOM      5  C   UNL     1      -3.929 -36.021  -5.815  0.00  0.00    +0.000 C 
ATOM      6  C   UNL     1      -5.490 -33.615  -5.518  0.00  0.00    +0.000 C 
ATOM      7  C   UNL     1      -4.918 -35.877  -4.719  0.00  0.00    +0.000 C 
ATOM      8  C   UNL     1      -5.714 -34.791  -4.641  0.00  0.00    +0.000 C 
ATOM      9  C   UNL     1      -2.779 -34.979  -7.736  0.00  0.00    +0.000 A 
ATOM     10  C   UNL     1      -4.279 -32.650  -7.441  0.00  0.00    +0.000 A 
ATOM     11  C   UNL     1      -2.577 -33.906  -8.601  0.00  0.00    +0.000 A 
ATOM     12  C   UNL     1      -3.327 -32.741  -8.454  0.00  0.00    +0.000 A 
ENDROOT
BRANCH   7  13
ATOM     13  O   UNL     1      -5.023 -36.964  -3.871  0.00  0.00    +0.000 OA
ATOM     14  C   UNL     1      -4.259 -36.735  -2.711  0.00  0.00    +0.000 C 
ENDBRANCH   7  13
BRANCH   8  15
ATOM     15  O   UNL     1      -6.713 -34.641  -3.696  0.00  0.00    +0.000 OA
ATOM     16  C   UNL     1      -7.911 -35.197  -4.182  0.00  0.00    +0.000 C 
ENDBRANCH   8  15
TORSDOF 2
ENDMDL
