MODEL 1
REMARK VINA RESULT:      -4.2      0.000      0.000
REMARK  Name = 326_Cuminaldehyde.pdb
REMARK  1 active torsions:
REMARK  status: ('A' for Active; 'I' for Inactive)
REMARK    1  A    between atoms: C_1  and  C_7
REMARK                            x       y       z     vdW  Elec       q    Type
REMARK                         _______ _______ _______ _____ _____    ______ ____
ROOT
ATOM      1  C   UNL     1      -8.634 -31.861  -0.714  0.00  0.00    +0.000 C 
ATOM      2  C   UNL     1      -9.238 -31.862  -1.974  0.00  0.00    +0.000 C 
ATOM      3  C   UNL     1      -7.363 -32.418  -0.560  0.00  0.00    +0.000 C 
ATOM      4  C   UNL     1      -8.575 -32.414  -3.069  0.00  0.00    +0.000 C 
ATOM      5  C   UNL     1      -6.700 -32.971  -1.654  0.00  0.00    +0.000 C 
ATOM      6  C   UNL     1      -7.308 -32.968  -2.908  0.00  0.00    +0.000 C 
ATOM      7  O   UNL     1      -6.071 -34.001  -4.952  0.00  0.00    +0.000 OA
ATOM      8  C   UNL     1      -6.630 -33.534  -4.028  0.00  0.00    +0.000 C 
ENDROOT
BRANCH   1   9
ATOM      9  C   UNL     1      -9.328 -31.282   0.433  0.00  0.00    +0.000 C 
ATOM     10  C   UNL     1      -8.999 -31.697   1.845  0.00  0.00    +0.000 C 
ATOM     11  C   UNL     1     -10.405 -30.241   0.258  0.00  0.00    +0.000 C 
ENDBRANCH   1   9
TORSDOF 1
ENDMDL
MODEL 2
REMARK VINA RESULT:      -4.1      6.614      7.992
REMARK  Name = 326_Cuminaldehyde.pdb
REMARK  1 active torsions:
REMARK  status: ('A' for Active; 'I' for Inactive)
REMARK    1  A    between atoms: C_1  and  C_7
REMARK                            x       y       z     vdW  Elec       q    Type
REMARK                         _______ _______ _______ _____ _____    ______ ____
ROOT
ATOM      1  C   UNL     1      -2.391 -36.217  -4.526  0.00  0.00    +0.000 C 
ATOM      2  C   UNL     1      -2.741 -36.309  -5.875  0.00  0.00    +0.000 C 
ATOM      3  C   UNL     1      -2.546 -35.001  -3.857  0.00  0.00    +0.000 C 
ATOM      4  C   UNL     1      -3.242 -35.197  -6.549  0.00  0.00    +0.000 C 
ATOM      5  C   UNL     1      -3.046 -33.887  -4.530  0.00  0.00    +0.000 C 
ATOM      6  C   UNL     1      -3.394 -33.987  -5.876  0.00  0.00    +0.000 C 
ATOM      7  O   UNL     1      -4.328 -31.909  -7.132  0.00  0.00    +0.000 OA
ATOM      8  C   UNL     1      -3.906 -32.848  -6.564  0.00  0.00    +0.000 C 
ENDROOT
BRANCH   1   9
ATOM      9  C   UNL     1      -1.867 -37.384  -3.821  0.00  0.00    +0.000 C 
ATOM     10  C   UNL     1      -1.101 -38.463  -4.544  0.00  0.00    +0.000 C 
ATOM     11  C   UNL     1      -2.068 -37.562  -2.337  0.00  0.00    +0.000 C 
ENDBRANCH   1   9
TORSDOF 1
ENDMDL
MODEL 3
REMARK VINA RESULT:      -4.0     14.325     15.816
REMARK  Name = 326_Cuminaldehyde.pdb
REMARK  1 active torsions:
REMARK  status: ('A' for Active; 'I' for Inactive)
REMARK    1  A    between atoms: C_1  and  C_7
REMARK                            x       y       z     vdW  Elec       q    Type
REMARK                         _______ _______ _______ _____ _____    ______ ____
ROOT
ATOM      1  C   UNL     1     -12.510 -16.895   0.440  0.00  0.00    +0.000 C 
ATOM      2  C   UNL     1     -13.383 -16.292  -0.469  0.00  0.00    +0.000 C 
ATOM      3  C   UNL     1     -12.239 -18.261   0.331  0.00  0.00    +0.000 C 
ATOM      4  C   UNL     1     -13.978 -17.047  -1.478  0.00  0.00    +0.000 C 
ATOM      5  C   UNL     1     -12.834 -19.017  -0.678  0.00  0.00    +0.000 C 
ATOM      6  C   UNL     1     -13.703 -18.408  -1.581  0.00  0.00    +0.000 C 
ATOM      7  O   UNL     1     -14.814 -19.819  -3.464  0.00  0.00    +0.000 OA
ATOM      8  C   UNL     1     -14.312 -19.181  -2.613  0.00  0.00    +0.000 C 
ENDROOT
BRANCH   1   9
ATOM      9  C   UNL     1     -11.886 -16.103   1.497  0.00  0.00    +0.000 C 
ATOM     10  C   UNL     1     -10.566 -15.405   1.284  0.00  0.00    +0.000 C 
ATOM     11  C   UNL     1     -12.534 -15.947   2.850  0.00  0.00    +0.000 C 
ENDBRANCH   1   9
TORSDOF 1
ENDMDL
MODEL 4
REMARK VINA RESULT:      -3.8      4.411      7.981
REMARK  Name = 326_Cuminaldehyde.pdb
REMARK  1 active torsions:
REMARK  status: ('A' for Active; 'I' for Inactive)
REMARK    1  A    between atoms: C_1  and  C_7
REMARK                            x       y       z     vdW  Elec       q    Type
REMARK                         _______ _______ _______ _____ _____    ______ ____
ROOT
ATOM      1  C   UNL     1      -3.504 -33.580  -7.059  0.00  0.00    +0.000 C 
ATOM      2  C   UNL     1      -2.929 -34.223  -5.960  0.00  0.00    +0.000 C 
ATOM      3  C   UNL     1      -4.807 -33.087  -6.963  0.00  0.00    +0.000 C 
ATOM      4  C   UNL     1      -3.650 -34.369  -4.776  0.00  0.00    +0.000 C 
ATOM      5  C   UNL     1      -5.529 -33.234  -5.780  0.00  0.00    +0.000 C 
ATOM      6  C   UNL     1      -4.949 -33.876  -4.687  0.00  0.00    +0.000 C 
ATOM      7  O   UNL     1      -6.296 -34.151  -2.478  0.00  0.00    +0.000 OA
ATOM      8  C   UNL     1      -5.687 -34.026  -3.477  0.00  0.00    +0.000 C 
ENDROOT
BRANCH   1   9
ATOM      9  C   UNL     1      -2.748 -33.426  -8.299  0.00  0.00    +0.000 C 
ATOM     10  C   UNL     1      -2.543 -32.072  -8.933  0.00  0.00    +0.000 C 
ATOM     11  C   UNL     1      -2.138 -34.612  -9.002  0.00  0.00    +0.000 C 
ENDBRANCH   1   9
TORSDOF 1
ENDMDL
MODEL 5
REMARK VINA RESULT:      -3.8      3.939      6.176
REMARK  Name = 326_Cuminaldehyde.pdb
REMARK  1 active torsions:
REMARK  status: ('A' for Active; 'I' for Inactive)
REMARK    1  A    between atoms: C_1  and  C_7
REMARK                            x       y       z     vdW  Elec       q    Type
REMARK                         _______ _______ _______ _____ _____    ______ ____
ROOT
ATOM      1  C   UNL     1      -9.334 -31.472   0.486  0.00  0.00    +0.000 C 
ATOM      2  C   UNL     1      -8.881 -31.829   1.758  0.00  0.00    +0.000 C 
ATOM      3  C   UNL     1     -10.581 -30.857   0.348  0.00  0.00    +0.000 C 
ATOM      4  C   UNL     1      -9.666 -31.572   2.881  0.00  0.00    +0.000 C 
ATOM      5  C   UNL     1     -11.367 -30.600   1.470  0.00  0.00    +0.000 C 
ATOM      6  C   UNL     1     -10.907 -30.959   2.736  0.00  0.00    +0.000 C 
ATOM      7  O   UNL     1     -12.374 -30.480   4.831  0.00  0.00    +0.000 OA
ATOM      8  C   UNL     1     -11.711 -30.696   3.884  0.00  0.00    +0.000 C 
ENDROOT
BRANCH   1   9
ATOM      9  C   UNL     1      -8.512 -31.741  -0.690  0.00  0.00    +0.000 C 
ATOM     10  C   UNL     1      -7.006 -31.763  -0.610  0.00  0.00    +0.000 C 
ATOM     11  C   UNL     1      -9.130 -32.009  -2.039  0.00  0.00    +0.000 C 
ENDBRANCH   1   9
TORSDOF 1
ENDMDL
MODEL 6
REMARK VINA RESULT:      -3.8      7.767      8.988
REMARK  Name = 326_Cuminaldehyde.pdb
REMARK  1 active torsions:
REMARK  status: ('A' for Active; 'I' for Inactive)
REMARK    1  A    between atoms: C_1  and  C_7
REMARK                            x       y       z     vdW  Elec       q    Type
REMARK                         _______ _______ _______ _____ _____    ______ ____
ROOT
ATOM      1  C   UNL     1      -2.805 -33.918  -7.785  0.00  0.00    +0.000 C 
ATOM      2  C   UNL     1      -2.556 -35.085  -8.512  0.00  0.00    +0.000 C 
ATOM      3  C   UNL     1      -3.021 -34.000  -6.407  0.00  0.00    +0.000 C 
ATOM      4  C   UNL     1      -2.522 -36.321  -7.867  0.00  0.00    +0.000 C 
ATOM      5  C   UNL     1      -2.988 -35.235  -5.762  0.00  0.00    +0.000 C 
ATOM      6  C   UNL     1      -2.739 -36.394  -6.494  0.00  0.00    +0.000 C 
ATOM      7  O   UNL     1      -2.677 -38.700  -5.290  0.00  0.00    +0.000 OA
ATOM      8  C   UNL     1      -2.705 -37.658  -5.834  0.00  0.00    +0.000 C 
ENDROOT
BRANCH   1   9
ATOM      9  C   UNL     1      -2.839 -32.624  -8.460  0.00  0.00    +0.000 C 
ATOM     10  C   UNL     1      -3.808 -31.545  -8.046  0.00  0.00    +0.000 C 
ATOM     11  C   UNL     1      -1.907 -32.308  -9.603  0.00  0.00    +0.000 C 
ENDBRANCH   1   9
TORSDOF 1
ENDMDL
MODEL 7
REMARK VINA RESULT:      -3.7     19.315     20.666
REMARK  Name = 326_Cuminaldehyde.pdb
REMARK  1 active torsions:
REMARK  status: ('A' for Active; 'I' for Inactive)
REMARK    1  A    between atoms: C_1  and  C_7
REMARK                            x       y       z     vdW  Elec       q    Type
REMARK                         _______ _______ _______ _____ _____    ______ ____
ROOT
ATOM      1  C   UNL     1      -4.300 -13.243  -1.574  0.00  0.00    +0.000 C 
ATOM      2  C   UNL     1      -5.683 -13.135  -1.733  0.00  0.00    +0.000 C 
ATOM      3  C   UNL     1      -3.631 -12.344  -0.739  0.00  0.00    +0.000 C 
ATOM      4  C   UNL     1      -6.392 -12.138  -1.063  0.00  0.00    +0.000 C 
ATOM      5  C   UNL     1      -4.339 -11.347  -0.070  0.00  0.00    +0.000 C 
ATOM      6  C   UNL     1      -5.719 -11.246  -0.233  0.00  0.00    +0.000 C 
ATOM      7  O   UNL     1      -7.040  -9.384   1.016  0.00  0.00    +0.000 OA
ATOM      8  C   UNL     1      -6.442 -10.225   0.452  0.00  0.00    +0.000 C 
ENDROOT
BRANCH   1   9
ATOM      9  C   UNL     1      -3.558 -14.288  -2.274  0.00  0.00    +0.000 C 
ATOM     10  C   UNL     1      -2.140 -14.071  -2.738  0.00  0.00    +0.000 C 
ATOM     11  C   UNL     1      -4.178 -15.632  -2.567  0.00  0.00    +0.000 C 
ENDBRANCH   1   9
TORSDOF 1
ENDMDL
MODEL 8
REMARK VINA RESULT:      -3.6     26.828     28.104
REMARK  Name = 326_Cuminaldehyde.pdb
REMARK  1 active torsions:
REMARK  status: ('A' for Active; 'I' for Inactive)
REMARK    1  A    between atoms: C_1  and  C_7
REMARK                            x       y       z     vdW  Elec       q    Type
REMARK                         _______ _______ _______ _____ _____    ______ ____
ROOT
ATOM      1  C   UNL     1     -10.814  -4.591  -4.297  0.00  0.00    +0.000 C 
ATOM      2  C   UNL     1     -11.817  -3.670  -3.984  0.00  0.00    +0.000 C 
ATOM      3  C   UNL     1     -11.166  -5.891  -4.668  0.00  0.00    +0.000 C 
ATOM      4  C   UNL     1     -13.158  -4.044  -4.045  0.00  0.00    +0.000 C 
ATOM      5  C   UNL     1     -12.507  -6.266  -4.728  0.00  0.00    +0.000 C 
ATOM      6  C   UNL     1     -13.502  -5.341  -4.416  0.00  0.00    +0.000 C 
ATOM      7  O   UNL     1     -16.005  -6.041  -4.527  0.00  0.00    +0.000 OA
ATOM      8  C   UNL     1     -14.874  -5.725  -4.477  0.00  0.00    +0.000 C 
ENDROOT
BRANCH   1   9
ATOM      9  C   UNL     1      -9.409  -4.198  -4.234  0.00  0.00    +0.000 C 
ATOM     10  C   UNL     1      -8.453  -4.511  -5.358  0.00  0.00    +0.000 C 
ATOM     11  C   UNL     1      -8.850  -3.462  -3.043  0.00  0.00    +0.000 C 
ENDBRANCH   1   9
TORSDOF 1
ENDMDL
MODEL 9
REMARK VINA RESULT:      -3.6     15.290     16.049
REMARK  Name = 326_Cuminaldehyde.pdb
REMARK  1 active torsions:
REMARK  status: ('A' for Active; 'I' for Inactive)
REMARK    1  A    between atoms: C_1  and  C_7
REMARK                            x       y       z     vdW  Elec       q    Type
REMARK                         _______ _______ _______ _____ _____    ______ ____
ROOT
ATOM      1  C   UNL     1      -2.855 -18.433   0.029  0.00  0.00    +0.000 C 
ATOM      2  C   UNL     1      -3.896 -17.505  -0.061  0.00  0.00    +0.000 C 
ATOM      3  C   UNL     1      -1.688 -18.231  -0.711  0.00  0.00    +0.000 C 
ATOM      4  C   UNL     1      -3.769 -16.385  -0.882  0.00  0.00    +0.000 C 
ATOM      5  C   UNL     1      -1.561 -17.112  -1.533  0.00  0.00    +0.000 C 
ATOM      6  C   UNL     1      -2.603 -16.190  -1.617  0.00  0.00    +0.000 C 
ATOM      7  O   UNL     1      -2.366 -14.102  -3.151  0.00  0.00    +0.000 OA
ATOM      8  C   UNL     1      -2.473 -15.046  -2.458  0.00  0.00    +0.000 C 
ENDROOT
BRANCH   1   9
ATOM      9  C   UNL     1      -2.988 -19.605   0.890  0.00  0.00    +0.000 C 
ATOM     10  C   UNL     1      -4.043 -19.677   1.965  0.00  0.00    +0.000 C 
ATOM     11  C   UNL     1      -2.075 -20.796   0.743  0.00  0.00    +0.000 C 
ENDBRANCH   1   9
TORSDOF 1
ENDMDL
