MODEL 1
REMARK VINA RESULT:      -4.8      0.000      0.000
REMARK  Name = 3363_5FluorouracilDeoxyriboside.pdbqt.pdb
REMARK  4 active torsions:
REMARK  status: ('A' for Active; 'I' for Inactive)
REMARK    1  A    between atoms: N_4  and  C1*_13
REMARK    2  A    between atoms: C3*_12  and  O3*_16
REMARK    3  A    between atoms: C4*_15  and  C5*_18
REMARK    4  A    between atoms: C5*_18  and  O5*_19
REMARK                            x       y       z     vdW  Elec       q    Type
REMARK                         _______ _______ _______ _____ _____    ______ ____
ROOT
ATOM      1  F   UNL     1      -1.093 -35.616  -9.533  0.00  0.00    +0.000 F 
ATOM      2  O   UNL     1      -3.982 -31.437  -7.610  0.00  0.00    +0.000 OA
ATOM      3  O   UNL     1      -1.863 -33.433 -11.159  0.00  0.00    +0.000 OA
ATOM      4  N   UNL     1      -3.134 -33.630  -7.305  0.00  0.00    +0.000 N 
ATOM      5  N   UNL     1      -2.987 -32.516  -9.370  0.00  0.00    +0.000 N 
ATOM      6  C   UNL     1      -3.427 -32.447  -8.026  0.00  0.00    +0.000 C 
ATOM      7  C   UNL     1      -2.505 -34.618  -7.974  0.00  0.00    +0.000 C 
ATOM      8  C   UNL     1      -2.074 -34.770  -9.180  0.00  0.00    +0.000 C 
ATOM      9  C   UNL     1      -2.284 -33.543 -10.014  0.00  0.00    +0.000 C 
ATOM     10  H   UNL     1      -3.139 -31.678  -9.913  0.00  0.00    +0.000 HD
ENDROOT
BRANCH   4  13
ATOM     11  O4* UNL     1      -4.767 -33.853  -5.534  0.00  0.00    +0.000 OA
ATOM     12  C3* UNL     1      -3.339 -34.171  -3.737  0.00  0.00    +0.000 A 
ATOM     13  C1* UNL     1      -3.442 -33.818  -5.988  0.00  0.00    +0.000 A 
ATOM     14  C2* UNL     1      -2.567 -34.019  -4.903  0.00  0.00    +0.000 A 
ATOM     15  C4* UNL     1      -4.717 -34.069  -4.151  0.00  0.00    +0.000 A 
BRANCH  12  16
ATOM     16  O3* UNL     1      -2.957 -34.941  -2.674  0.00  0.00    +0.000 OA
ATOM     17  H3* UNL     1      -3.274 -34.580  -1.827  0.00  0.00    +0.000 HD
ENDBRANCH  12  16
BRANCH  15  18
ATOM     18  C5* UNL     1      -5.866 -34.355  -3.388  0.00  0.00    +0.000 C 
BRANCH  18  19
ATOM     19  O5* UNL     1      -6.962 -34.615  -2.683  0.00  0.00    +0.000 OA
ATOM     20  H5* UNL     1      -6.735 -35.061  -1.848  0.00  0.00    +0.000 HD
ENDBRANCH  18  19
ENDBRANCH  15  18
ENDBRANCH   4  13
TORSDOF 4
ENDMDL
MODEL 2
REMARK VINA RESULT:      -4.6      2.561      6.001
REMARK  Name = 3363_5FluorouracilDeoxyriboside.pdbqt.pdb
REMARK  4 active torsions:
REMARK  status: ('A' for Active; 'I' for Inactive)
REMARK    1  A    between atoms: N_4  and  C1*_13
REMARK    2  A    between atoms: C3*_12  and  O3*_16
REMARK    3  A    between atoms: C4*_15  and  C5*_18
REMARK    4  A    between atoms: C5*_18  and  O5*_19
REMARK                            x       y       z     vdW  Elec       q    Type
REMARK                         _______ _______ _______ _____ _____    ______ ____
ROOT
ATOM      1  F   UNL     1      -2.625 -36.405  -5.067  0.00  0.00    +0.000 F 
ATOM      2  O   UNL     1      -4.369 -31.822  -7.405  0.00  0.00    +0.000 OA
ATOM      3  O   UNL     1      -2.607 -33.917  -3.721  0.00  0.00    +0.000 OA
ATOM      4  N   UNL     1      -3.737 -34.097  -7.619  0.00  0.00    +0.000 N 
ATOM      5  N   UNL     1      -3.408 -32.897  -5.624  0.00  0.00    +0.000 N 
ATOM      6  C   UNL     1      -3.887 -32.856  -6.956  0.00  0.00    +0.000 C 
ATOM      7  C   UNL     1      -3.180 -35.105  -6.918  0.00  0.00    +0.000 C 
ATOM      8  C   UNL     1      -2.719 -35.235  -5.720  0.00  0.00    +0.000 C 
ATOM      9  C   UNL     1      -2.886 -33.985  -4.912  0.00  0.00    +0.000 C 
ATOM     10  H   UNL     1      -3.531 -32.044  -5.098  0.00  0.00    +0.000 HD
ENDROOT
BRANCH   4  13
ATOM     11  O4* UNL     1      -3.208 -34.391  -9.962  0.00  0.00    +0.000 OA
ATOM     12  C3* UNL     1      -5.342 -34.746 -10.792  0.00  0.00    +0.000 A 
ATOM     13  C1* UNL     1      -4.128 -34.328  -8.907  0.00  0.00    +0.000 A 
ATOM     14  C2* UNL     1      -5.428 -34.551  -9.402  0.00  0.00    +0.000 A 
ATOM     15  C4* UNL     1      -3.942 -34.647 -11.126  0.00  0.00    +0.000 A 
BRANCH  12  16
ATOM     16  O3* UNL     1      -6.200 -35.543 -11.497  0.00  0.00    +0.000 OA
ATOM     17  H3* UNL     1      -6.974 -35.050 -11.824  0.00  0.00    +0.000 HD
ENDBRANCH  12  16
BRANCH  15  18
ATOM     18  C5* UNL     1      -3.327 -34.969 -12.352  0.00  0.00    +0.000 C 
BRANCH  18  19
ATOM     19  O5* UNL     1      -2.730 -35.278 -13.498  0.00  0.00    +0.000 OA
ATOM     20  H5* UNL     1      -2.287 -34.499 -13.876  0.00  0.00    +0.000 HD
ENDBRANCH  18  19
ENDBRANCH  15  18
ENDBRANCH   4  13
TORSDOF 4
ENDMDL
MODEL 3
REMARK VINA RESULT:      -4.5      1.929      2.763
REMARK  Name = 3363_5FluorouracilDeoxyriboside.pdbqt.pdb
REMARK  4 active torsions:
REMARK  status: ('A' for Active; 'I' for Inactive)
REMARK    1  A    between atoms: N_4  and  C1*_13
REMARK    2  A    between atoms: C3*_12  and  O3*_16
REMARK    3  A    between atoms: C4*_15  and  C5*_18
REMARK    4  A    between atoms: C5*_18  and  O5*_19
REMARK                            x       y       z     vdW  Elec       q    Type
REMARK                         _______ _______ _______ _____ _____    ______ ____
ROOT
ATOM      1  F   UNL     1      -3.548 -36.551 -11.623  0.00  0.00    +0.000 F 
ATOM      2  O   UNL     1      -2.042 -31.963  -9.134  0.00  0.00    +0.000 OA
ATOM      3  O   UNL     1      -1.904 -34.618 -12.875  0.00  0.00    +0.000 OA
ATOM      4  N   UNL     1      -3.425 -33.888  -9.179  0.00  0.00    +0.000 N 
ATOM      5  N   UNL     1      -2.077 -33.282 -11.008  0.00  0.00    +0.000 N 
ATOM      6  C   UNL     1      -2.493 -32.955  -9.694  0.00  0.00    +0.000 C 
ATOM      7  C   UNL     1      -3.773 -34.915  -9.980  0.00  0.00    +0.000 C 
ATOM      8  C   UNL     1      -3.453 -35.288 -11.173  0.00  0.00    +0.000 C 
ATOM      9  C   UNL     1      -2.421 -34.394 -11.788  0.00  0.00    +0.000 C 
ATOM     10  H   UNL     1      -1.381 -32.665 -11.402  0.00  0.00    +0.000 HD
ENDROOT
BRANCH   4  13
ATOM     11  O4* UNL     1      -3.229 -34.081  -6.775  0.00  0.00    +0.000 OA
ATOM     12  C3* UNL     1      -5.392 -33.508  -6.170  0.00  0.00    +0.000 A 
ATOM     13  C1* UNL     1      -3.974 -33.810  -7.931  0.00  0.00    +0.000 A 
ATOM     14  C2* UNL     1      -5.288 -33.453  -7.572  0.00  0.00    +0.000 A 
ATOM     15  C4* UNL     1      -4.090 -33.898  -5.686  0.00  0.00    +0.000 A 
BRANCH  12  16
ATOM     16  O3* UNL     1      -6.223 -32.703  -5.443  0.00  0.00    +0.000 OA
ATOM     17  H3* UNL     1      -6.922 -33.210  -4.991  0.00  0.00    +0.000 HD
ENDBRANCH  12  16
BRANCH  15  18
ATOM     18  C5* UNL     1      -3.633 -33.893  -4.354  0.00  0.00    +0.000 C 
BRANCH  18  19
ATOM     19  O5* UNL     1      -3.215 -33.904  -3.092  0.00  0.00    +0.000 OA
ATOM     20  H5* UNL     1      -3.947 -34.122  -2.490  0.00  0.00    +0.000 HD
ENDBRANCH  18  19
ENDBRANCH  15  18
ENDBRANCH   4  13
TORSDOF 4
ENDMDL
MODEL 4
REMARK VINA RESULT:      -4.0     11.304     13.334
REMARK  Name = 3363_5FluorouracilDeoxyriboside.pdbqt.pdb
REMARK  4 active torsions:
REMARK  status: ('A' for Active; 'I' for Inactive)
REMARK    1  A    between atoms: N_4  and  C1*_13
REMARK    2  A    between atoms: C3*_12  and  O3*_16
REMARK    3  A    between atoms: C4*_15  and  C5*_18
REMARK    4  A    between atoms: C5*_18  and  O5*_19
REMARK                            x       y       z     vdW  Elec       q    Type
REMARK                         _______ _______ _______ _____ _____    ______ ____
ROOT
ATOM      1  F   UNL     1      -8.041 -26.046 -20.676  0.00  0.00    +0.000 F 
ATOM      2  O   UNL     1      -9.312 -25.056 -15.488  0.00  0.00    +0.000 OA
ATOM      3  O   UNL     1     -10.147 -24.307 -19.938  0.00  0.00    +0.000 OA
ATOM      4  N   UNL     1      -8.121 -26.354 -17.074  0.00  0.00    +0.000 N 
ATOM      5  N   UNL     1      -9.746 -24.784 -17.721  0.00  0.00    +0.000 N 
ATOM      6  C   UNL     1      -9.062 -25.391 -16.640  0.00  0.00    +0.000 C 
ATOM      7  C   UNL     1      -8.012 -26.553 -18.403  0.00  0.00    +0.000 C 
ATOM      8  C   UNL     1      -8.584 -26.057 -19.447  0.00  0.00    +0.000 C 
ATOM      9  C   UNL     1      -9.564 -24.979 -19.097  0.00  0.00    +0.000 C 
ATOM     10  H   UNL     1     -10.401 -24.060 -17.462  0.00  0.00    +0.000 HD
ENDROOT
BRANCH   4  13
ATOM     11  O4* UNL     1      -7.849 -28.006 -15.327  0.00  0.00    +0.000 OA
ATOM     12  C3* UNL     1      -5.541 -27.967 -15.122  0.00  0.00    +0.000 A 
ATOM     13  C1* UNL     1      -7.322 -27.076 -16.232  0.00  0.00    +0.000 A 
ATOM     14  C2* UNL     1      -5.919 -27.052 -16.120  0.00  0.00    +0.000 A 
ATOM     15  C4* UNL     1      -6.764 -28.561 -14.638  0.00  0.00    +0.000 A 
BRANCH  12  16
ATOM     16  O3* UNL     1      -4.359 -28.653 -15.135  0.00  0.00    +0.000 OA
ATOM     17  H3* UNL     1      -3.596 -28.073 -14.958  0.00  0.00    +0.000 HD
ENDBRANCH  12  16
BRANCH  15  18
ATOM     18  C5* UNL     1      -6.898 -29.675 -13.786  0.00  0.00    +0.000 C 
BRANCH  18  19
ATOM     19  O5* UNL     1      -7.014 -30.736 -12.995  0.00  0.00    +0.000 OA
ATOM     20  H5* UNL     1      -6.390 -30.679 -12.250  0.00  0.00    +0.000 HD
ENDBRANCH  18  19
ENDBRANCH  15  18
ENDBRANCH   4  13
TORSDOF 4
ENDMDL
MODEL 5
REMARK VINA RESULT:      -4.0     16.946     18.724
REMARK  Name = 3363_5FluorouracilDeoxyriboside.pdbqt.pdb
REMARK  4 active torsions:
REMARK  status: ('A' for Active; 'I' for Inactive)
REMARK    1  A    between atoms: N_4  and  C1*_13
REMARK    2  A    between atoms: C3*_12  and  O3*_16
REMARK    3  A    between atoms: C4*_15  and  C5*_18
REMARK    4  A    between atoms: C5*_18  and  O5*_19
REMARK                            x       y       z     vdW  Elec       q    Type
REMARK                         _______ _______ _______ _____ _____    ______ ____
ROOT
ATOM      1  F   UNL     1       3.783 -15.365 -12.392  0.00  0.00    +0.000 F 
ATOM      2  O   UNL     1       0.660 -19.719 -11.494  0.00  0.00    +0.000 OA
ATOM      3  O   UNL     1       4.341 -17.232 -10.340  0.00  0.00    +0.000 OA
ATOM      4  N   UNL     1       0.970 -17.630 -12.572  0.00  0.00    +0.000 N 
ATOM      5  N   UNL     1       2.435 -18.396 -10.900  0.00  0.00    +0.000 N 
ATOM      6  C   UNL     1       1.272 -18.671 -11.662  0.00  0.00    +0.000 C 
ATOM      7  C   UNL     1       1.796 -16.565 -12.585  0.00  0.00    +0.000 C 
ATOM      8  C   UNL     1       2.861 -16.230 -11.938  0.00  0.00    +0.000 C 
ATOM      9  C   UNL     1       3.301 -17.298 -10.984  0.00  0.00    +0.000 C 
ATOM     10  H   UNL     1       2.713 -19.129 -10.264  0.00  0.00    +0.000 HD
ENDROOT
BRANCH   4  13
ATOM     11  O4* UNL     1      -1.285 -16.970 -13.152  0.00  0.00    +0.000 OA
ATOM     12  C3* UNL     1      -1.476 -18.030 -15.204  0.00  0.00    +0.000 A 
ATOM     13  C1* UNL     1      -0.093 -17.651 -13.431  0.00  0.00    +0.000 A 
ATOM     14  C2* UNL     1      -0.197 -18.291 -14.681  0.00  0.00    +0.000 A 
ATOM     15  C4* UNL     1      -2.143 -17.195 -14.234  0.00  0.00    +0.000 A 
BRANCH  12  16
ATOM     16  O3* UNL     1      -1.740 -17.939 -16.541  0.00  0.00    +0.000 OA
ATOM     17  H3* UNL     1      -2.496 -18.494 -16.805  0.00  0.00    +0.000 HD
ENDBRANCH  12  16
BRANCH  15  18
ATOM     18  C5* UNL     1      -3.361 -16.504 -14.390  0.00  0.00    +0.000 C 
BRANCH  18  19
ATOM     19  O5* UNL     1      -4.501 -15.836 -14.528  0.00  0.00    +0.000 OA
ATOM     20  H5* UNL     1      -4.331 -14.925 -14.827  0.00  0.00    +0.000 HD
ENDBRANCH  18  19
ENDBRANCH  15  18
ENDBRANCH   4  13
TORSDOF 4
ENDMDL
MODEL 6
REMARK VINA RESULT:      -3.9     16.933     18.455
REMARK  Name = 3363_5FluorouracilDeoxyriboside.pdbqt.pdb
REMARK  4 active torsions:
REMARK  status: ('A' for Active; 'I' for Inactive)
REMARK    1  A    between atoms: N_4  and  C1*_13
REMARK    2  A    between atoms: C3*_12  and  O3*_16
REMARK    3  A    between atoms: C4*_15  and  C5*_18
REMARK    4  A    between atoms: C5*_18  and  O5*_19
REMARK                            x       y       z     vdW  Elec       q    Type
REMARK                         _______ _______ _______ _____ _____    ______ ____
ROOT
ATOM      1  F   UNL     1       3.688 -15.342 -12.525  0.00  0.00    +0.000 F 
ATOM      2  O   UNL     1       0.673 -19.737 -11.475  0.00  0.00    +0.000 OA
ATOM      3  O   UNL     1       4.159 -17.000 -10.282  0.00  0.00    +0.000 OA
ATOM      4  N   UNL     1       0.984 -17.736 -12.707  0.00  0.00    +0.000 N 
ATOM      5  N   UNL     1       2.346 -18.291 -10.873  0.00  0.00    +0.000 N 
ATOM      6  C   UNL     1       1.256 -18.681 -11.689  0.00  0.00    +0.000 C 
ATOM      7  C   UNL     1       1.769 -16.640 -12.755  0.00  0.00    +0.000 C 
ATOM      8  C   UNL     1       2.768 -16.205 -12.065  0.00  0.00    +0.000 C 
ATOM      9  C   UNL     1       3.175 -17.167 -10.991  0.00  0.00    +0.000 C 
ATOM     10  H   UNL     1       2.603 -18.955 -10.157  0.00  0.00    +0.000 HD
ENDROOT
BRANCH   4  13
ATOM     11  O4* UNL     1      -0.013 -18.928 -14.561  0.00  0.00    +0.000 OA
ATOM     12  C3* UNL     1      -1.888 -17.609 -14.898  0.00  0.00    +0.000 A 
ATOM     13  C1* UNL     1      -0.008 -17.877 -13.635  0.00  0.00    +0.000 A 
ATOM     14  C2* UNL     1      -1.149 -17.075 -13.827  0.00  0.00    +0.000 A 
ATOM     15  C4* UNL     1      -1.164 -18.774 -15.344  0.00  0.00    +0.000 A 
BRANCH  12  16
ATOM     16  O3* UNL     1      -3.249 -17.521 -14.994  0.00  0.00    +0.000 OA
ATOM     17  H3* UNL     1      -3.534 -17.182 -15.862  0.00  0.00    +0.000 HD
ENDBRANCH  12  16
BRANCH  15  18
ATOM     18  C5* UNL     1      -1.599 -19.760 -16.251  0.00  0.00    +0.000 C 
BRANCH  18  19
ATOM     19  O5* UNL     1      -2.003 -20.705 -17.093  0.00  0.00    +0.000 OA
ATOM     20  H5* UNL     1      -1.669 -20.531 -17.990  0.00  0.00    +0.000 HD
ENDBRANCH  18  19
ENDBRANCH  15  18
ENDBRANCH   4  13
TORSDOF 4
ENDMDL
MODEL 7
REMARK VINA RESULT:      -3.9     14.588     17.229
REMARK  Name = 3363_5FluorouracilDeoxyriboside.pdbqt.pdb
REMARK  4 active torsions:
REMARK  status: ('A' for Active; 'I' for Inactive)
REMARK    1  A    between atoms: N_4  and  C1*_13
REMARK    2  A    between atoms: C3*_12  and  O3*_16
REMARK    3  A    between atoms: C4*_15  and  C5*_18
REMARK    4  A    between atoms: C5*_18  and  O5*_19
REMARK                            x       y       z     vdW  Elec       q    Type
REMARK                         _______ _______ _______ _____ _____    ______ ____
ROOT
ATOM      1  F   UNL     1      -6.898 -28.762  12.059  0.00  0.00    +0.000 F 
ATOM      2  O   UNL     1      -2.398 -29.601   9.134  0.00  0.00    +0.000 OA
ATOM      3  O   UNL     1      -4.674 -27.017  12.169  0.00  0.00    +0.000 OA
ATOM      4  N   UNL     1      -4.469 -30.416   9.953  0.00  0.00    +0.000 N 
ATOM      5  N   UNL     1      -3.540 -28.394  10.712  0.00  0.00    +0.000 N 
ATOM      6  C   UNL     1      -3.385 -29.510   9.854  0.00  0.00    +0.000 C 
ATOM      7  C   UNL     1      -5.456 -30.102  10.816  0.00  0.00    +0.000 C 
ATOM      8  C   UNL     1      -5.679 -29.125  11.628  0.00  0.00    +0.000 C 
ATOM      9  C   UNL     1      -4.612 -28.076  11.556  0.00  0.00    +0.000 C 
ATOM     10  H   UNL     1      -2.809 -27.700  10.647  0.00  0.00    +0.000 HD
ENDROOT
BRANCH   4  13
ATOM     11  O4* UNL     1      -5.537 -31.728   8.223  0.00  0.00    +0.000 OA
ATOM     12  C3* UNL     1      -4.252 -33.652   8.357  0.00  0.00    +0.000 A 
ATOM     13  C1* UNL     1      -4.570 -31.567   9.224  0.00  0.00    +0.000 A 
ATOM     14  C2* UNL     1      -3.779 -32.729   9.306  0.00  0.00    +0.000 A 
ATOM     15  C4* UNL     1      -5.352 -33.006   7.682  0.00  0.00    +0.000 A 
BRANCH  12  16
ATOM     16  O3* UNL     1      -3.453 -34.565   7.728  0.00  0.00    +0.000 OA
ATOM     17  H3* UNL     1      -3.379 -34.391   6.772  0.00  0.00    +0.000 HD
ENDBRANCH  12  16
BRANCH  15  18
ATOM     18  C5* UNL     1      -6.020 -33.439   6.520  0.00  0.00    +0.000 C 
BRANCH  18  19
ATOM     19  O5* UNL     1      -6.657 -33.863   5.434  0.00  0.00    +0.000 OA
ATOM     20  H5* UNL     1      -6.427 -33.315   4.664  0.00  0.00    +0.000 HD
ENDBRANCH  18  19
ENDBRANCH  15  18
ENDBRANCH   4  13
TORSDOF 4
ENDMDL
MODEL 8
REMARK VINA RESULT:      -3.9      2.849      4.109
REMARK  Name = 3363_5FluorouracilDeoxyriboside.pdbqt.pdb
REMARK  4 active torsions:
REMARK  status: ('A' for Active; 'I' for Inactive)
REMARK    1  A    between atoms: N_4  and  C1*_13
REMARK    2  A    between atoms: C3*_12  and  O3*_16
REMARK    3  A    between atoms: C4*_15  and  C5*_18
REMARK    4  A    between atoms: C5*_18  and  O5*_19
REMARK                            x       y       z     vdW  Elec       q    Type
REMARK                         _______ _______ _______ _____ _____    ______ ____
ROOT
ATOM      1  F   UNL     1      -2.225 -34.370  -5.230  0.00  0.00    +0.000 F 
ATOM      2  O   UNL     1      -6.910 -34.576  -7.971  0.00  0.00    +0.000 OA
ATOM      3  O   UNL     1      -2.322 -34.664  -8.042  0.00  0.00    +0.000 OA
ATOM      4  N   UNL     1      -5.770 -34.632  -5.893  0.00  0.00    +0.000 N 
ATOM      5  N   UNL     1      -4.623 -34.704  -7.944  0.00  0.00    +0.000 N 
ATOM      6  C   UNL     1      -5.884 -34.634  -7.304  0.00  0.00    +0.000 C 
ATOM      7  C   UNL     1      -4.526 -34.696  -5.377  0.00  0.00    +0.000 C 
ATOM      8  C   UNL     1      -3.337 -34.763  -5.872  0.00  0.00    +0.000 C 
ATOM      9  C   UNL     1      -3.345 -34.712  -7.370  0.00  0.00    +0.000 C 
ATOM     10  H   UNL     1      -4.652 -34.667  -8.953  0.00  0.00    +0.000 HD
ENDROOT
BRANCH   4  13
ATOM     11  O4* UNL     1      -7.056 -33.445  -4.223  0.00  0.00    +0.000 OA
ATOM     12  C3* UNL     1      -8.740 -34.996  -3.866  0.00  0.00    +0.000 A 
ATOM     13  C1* UNL     1      -6.835 -34.560  -5.041  0.00  0.00    +0.000 A 
ATOM     14  C2* UNL     1      -7.859 -35.505  -4.836  0.00  0.00    +0.000 A 
ATOM     15  C4* UNL     1      -8.224 -33.700  -3.495  0.00  0.00    +0.000 A 
BRANCH  12  16
ATOM     16  O3* UNL     1     -10.077 -35.278  -3.838  0.00  0.00    +0.000 OA
ATOM     17  H3* UNL     1     -10.608 -34.584  -4.270  0.00  0.00    +0.000 HD
ENDBRANCH  12  16
BRANCH  15  18
ATOM     18  C5* UNL     1      -8.859 -32.715  -2.714  0.00  0.00    +0.000 C 
BRANCH  18  19
ATOM     19  O5* UNL     1      -9.469 -31.780  -1.994  0.00  0.00    +0.000 OA
ATOM     20  H5* UNL     1      -9.763 -31.046  -2.561  0.00  0.00    +0.000 HD
ENDBRANCH  18  19
ENDBRANCH  15  18
ENDBRANCH   4  13
TORSDOF 4
ENDMDL
MODEL 9
REMARK VINA RESULT:      -3.8     16.148     17.641
REMARK  Name = 3363_5FluorouracilDeoxyriboside.pdbqt.pdb
REMARK  4 active torsions:
REMARK  status: ('A' for Active; 'I' for Inactive)
REMARK    1  A    between atoms: N_4  and  C1*_13
REMARK    2  A    between atoms: C3*_12  and  O3*_16
REMARK    3  A    between atoms: C4*_15  and  C5*_18
REMARK    4  A    between atoms: C5*_18  and  O5*_19
REMARK                            x       y       z     vdW  Elec       q    Type
REMARK                         _______ _______ _______ _____ _____    ______ ____
ROOT
ATOM      1  F   UNL     1       2.330 -19.431   3.496  0.00  0.00    +0.000 F 
ATOM      2  O   UNL     1      -1.349 -21.494   0.073  0.00  0.00    +0.000 OA
ATOM      3  O   UNL     1       1.215 -22.008   3.844  0.00  0.00    +0.000 OA
ATOM      4  N   UNL     1      -0.115 -19.620   0.839  0.00  0.00    +0.000 N 
ATOM      5  N   UNL     1      -0.115 -21.667   1.996  0.00  0.00    +0.000 N 
ATOM      6  C   UNL     1      -0.601 -20.949   0.876  0.00  0.00    +0.000 C 
ATOM      7  C   UNL     1       0.708 -19.238   1.836  0.00  0.00    +0.000 C 
ATOM      8  C   UNL     1       1.197 -19.812   2.883  0.00  0.00    +0.000 C 
ATOM      9  C   UNL     1       0.787 -21.249   2.983  0.00  0.00    +0.000 C 
ATOM     10  H   UNL     1      -0.404 -22.633   2.043  0.00  0.00    +0.000 HD
ENDROOT
BRANCH   4  13
ATOM     11  O4* UNL     1       0.563 -18.133  -0.945  0.00  0.00    +0.000 OA
ATOM     12  C3* UNL     1      -1.516 -17.340  -1.591  0.00  0.00    +0.000 A 
ATOM     13  C1* UNL     1      -0.423 -18.721  -0.143  0.00  0.00    +0.000 A 
ATOM     14  C2* UNL     1      -1.691 -18.251  -0.534  0.00  0.00    +0.000 A 
ATOM     15  C4* UNL     1      -0.096 -17.281  -1.840  0.00  0.00    +0.000 A 
BRANCH  12  16
ATOM     16  O3* UNL     1      -2.434 -17.153  -2.586  0.00  0.00    +0.000 OA
ATOM     17  H3* UNL     1      -2.393 -17.855  -3.260  0.00  0.00    +0.000 HD
ENDBRANCH  12  16
BRANCH  15  18
ATOM     18  C5* UNL     1       0.560 -16.671  -2.926  0.00  0.00    +0.000 C 
BRANCH  18  19
ATOM     19  O5* UNL     1       1.198 -16.098  -3.941  0.00  0.00    +0.000 OA
ATOM     20  H5* UNL     1       1.957 -16.639  -4.220  0.00  0.00    +0.000 HD
ENDBRANCH  18  19
ENDBRANCH  15  18
ENDBRANCH   4  13
TORSDOF 4
ENDMDL
