MODEL 1
REMARK VINA RESULT:      -3.9      0.000      0.000
REMARK  Name = 3385_5Fluorouracil.pdbqt.pdb
REMARK  0 active torsions:
REMARK  status: ('A' for Active; 'I' for Inactive)
REMARK                            x       y       z     vdW  Elec       q    Type
REMARK                         _______ _______ _______ _____ _____    ______ ____
ROOT
ATOM      1  F   UNL     1      -4.608 -34.947  -3.036  0.00  0.00    +0.000 F 
ATOM      2  O   UNL     1      -2.131 -34.142  -4.148  0.00  0.00    +0.000 OA
ATOM      3  O   UNL     1      -4.341 -31.814  -7.461  0.00  0.00    +0.000 OA
ATOM      4  N   UNL     1      -3.240 -33.041  -5.838  0.00  0.00    +0.000 N 
ATOM      5  N   UNL     1      -5.555 -33.107  -5.991  0.00  0.00    +0.000 N 
ATOM      6  C   UNL     1      -3.184 -33.885  -4.720  0.00  0.00    +0.000 C 
ATOM      7  C   UNL     1      -4.380 -32.588  -6.516  0.00  0.00    +0.000 C 
ATOM      8  C   UNL     1      -4.510 -34.431  -4.272  0.00  0.00    +0.000 C 
ATOM      9  C   UNL     1      -5.497 -33.948  -4.949  0.00  0.00    +0.000 C 
ATOM     10  H   UNL     1      -2.359 -32.664  -6.156  0.00  0.00    +0.000 HD
ATOM     11  H   UNL     1      -6.437 -32.837  -6.408  0.00  0.00    +0.000 HD
ENDROOT
TORSDOF 0
ENDMDL
MODEL 2
REMARK VINA RESULT:      -3.6      2.477      3.009
REMARK  Name = 3385_5Fluorouracil.pdbqt.pdb
REMARK  0 active torsions:
REMARK  status: ('A' for Active; 'I' for Inactive)
REMARK                            x       y       z     vdW  Elec       q    Type
REMARK                         _______ _______ _______ _____ _____    ______ ____
ROOT
ATOM      1  F   UNL     1      -3.045 -33.512  -6.668  0.00  0.00    +0.000 F 
ATOM      2  O   UNL     1      -2.109 -34.095  -4.059  0.00  0.00    +0.000 OA
ATOM      3  O   UNL     1      -6.451 -34.299  -2.515  0.00  0.00    +0.000 OA
ATOM      4  N   UNL     1      -4.275 -34.126  -3.282  0.00  0.00    +0.000 N 
ATOM      5  N   UNL     1      -6.058 -33.644  -4.689  0.00  0.00    +0.000 N 
ATOM      6  C   UNL     1      -3.301 -33.900  -4.265  0.00  0.00    +0.000 C 
ATOM      7  C   UNL     1      -5.668 -34.041  -3.418  0.00  0.00    +0.000 C 
ATOM      8  C   UNL     1      -3.834 -33.420  -5.585  0.00  0.00    +0.000 C 
ATOM      9  C   UNL     1      -5.124 -33.387  -5.615  0.00  0.00    +0.000 C 
ATOM     10  H   UNL     1      -3.938 -34.448  -2.387  0.00  0.00    +0.000 HD
ATOM     11  H   UNL     1      -7.046 -33.557  -4.892  0.00  0.00    +0.000 HD
ENDROOT
TORSDOF 0
ENDMDL
MODEL 3
REMARK VINA RESULT:      -3.3      2.349      2.551
REMARK  Name = 3385_5Fluorouracil.pdbqt.pdb
REMARK  0 active torsions:
REMARK  status: ('A' for Active; 'I' for Inactive)
REMARK                            x       y       z     vdW  Elec       q    Type
REMARK                         _______ _______ _______ _____ _____    ______ ____
ROOT
ATOM      1  F   UNL     1      -2.257 -35.474  -7.422  0.00  0.00    +0.000 F 
ATOM      2  O   UNL     1      -2.060 -34.361  -4.825  0.00  0.00    +0.000 OA
ATOM      3  O   UNL     1      -6.329 -32.655  -5.202  0.00  0.00    +0.000 OA
ATOM      4  N   UNL     1      -4.164 -33.454  -5.048  0.00  0.00    +0.000 N 
ATOM      5  N   UNL     1      -5.364 -33.685  -7.022  0.00  0.00    +0.000 N 
ATOM      6  C   UNL     1      -3.032 -34.125  -5.533  0.00  0.00    +0.000 C 
ATOM      7  C   UNL     1      -5.372 -33.213  -5.718  0.00  0.00    +0.000 C 
ATOM      8  C   UNL     1      -3.113 -34.542  -6.974  0.00  0.00    +0.000 C 
ATOM      9  C   UNL     1      -4.265 -34.289  -7.498  0.00  0.00    +0.000 C 
ATOM     10  H   UNL     1      -4.129 -33.163  -4.083  0.00  0.00    +0.000 HD
ATOM     11  H   UNL     1      -6.193 -33.565  -7.590  0.00  0.00    +0.000 HD
ENDROOT
TORSDOF 0
ENDMDL
MODEL 4
REMARK VINA RESULT:      -3.2      2.911      3.338
REMARK  Name = 3385_5Fluorouracil.pdbqt.pdb
REMARK  0 active torsions:
REMARK  status: ('A' for Active; 'I' for Inactive)
REMARK                            x       y       z     vdW  Elec       q    Type
REMARK                         _______ _______ _______ _____ _____    ______ ____
ROOT
ATOM      1  F   UNL     1      -2.401 -36.269  -8.045  0.00  0.00    +0.000 F 
ATOM      2  O   UNL     1      -2.804 -34.900  -5.599  0.00  0.00    +0.000 OA
ATOM      3  O   UNL     1      -3.981 -31.078  -7.898  0.00  0.00    +0.000 OA
ATOM      4  N   UNL     1      -3.323 -32.978  -6.753  0.00  0.00    +0.000 N 
ATOM      5  N   UNL     1      -3.223 -32.910  -9.072  0.00  0.00    +0.000 N 
ATOM      6  C   UNL     1      -2.873 -34.303  -6.666  0.00  0.00    +0.000 C 
ATOM      7  C   UNL     1      -3.544 -32.220  -7.912  0.00  0.00    +0.000 C 
ATOM      8  C   UNL     1      -2.502 -34.932  -7.980  0.00  0.00    +0.000 C 
ATOM      9  C   UNL     1      -2.753 -34.162  -8.985  0.00  0.00    +0.000 C 
ATOM     10  H   UNL     1      -3.576 -32.536  -5.882  0.00  0.00    +0.000 HD
ATOM     11  H   UNL     1      -3.352 -32.452  -9.964  0.00  0.00    +0.000 HD
ENDROOT
TORSDOF 0
ENDMDL
MODEL 5
REMARK VINA RESULT:      -3.1      9.812     10.912
REMARK  Name = 3385_5Fluorouracil.pdbqt.pdb
REMARK  0 active torsions:
REMARK  status: ('A' for Active; 'I' for Inactive)
REMARK                            x       y       z     vdW  Elec       q    Type
REMARK                         _______ _______ _______ _____ _____    ______ ____
ROOT
ATOM      1  F   UNL     1       4.644 -30.353   2.743  0.00  0.00    +0.000 F 
ATOM      2  O   UNL     1       4.617 -32.773   4.215  0.00  0.00    +0.000 OA
ATOM      3  O   UNL     1       1.823 -34.683   1.081  0.00  0.00    +0.000 OA
ATOM      4  N   UNL     1       3.168 -33.695   2.684  0.00  0.00    +0.000 N 
ATOM      5  N   UNL     1       2.358 -32.449   0.900  0.00  0.00    +0.000 N 
ATOM      6  C   UNL     1       3.897 -32.632   3.234  0.00  0.00    +0.000 C 
ATOM      7  C   UNL     1       2.394 -33.693   1.514  0.00  0.00    +0.000 C 
ATOM      8  C   UNL     1       3.740 -31.320   2.518  0.00  0.00    +0.000 C 
ATOM      9  C   UNL     1       3.022 -31.422   1.450  0.00  0.00    +0.000 C 
ATOM     10  H   UNL     1       3.258 -34.586   3.151  0.00  0.00    +0.000 HD
ATOM     11  H   UNL     1       1.830 -32.343   0.044  0.00  0.00    +0.000 HD
ENDROOT
TORSDOF 0
ENDMDL
MODEL 6
REMARK VINA RESULT:      -3.0      4.426      5.073
REMARK  Name = 3385_5Fluorouracil.pdbqt.pdb
REMARK  0 active torsions:
REMARK  status: ('A' for Active; 'I' for Inactive)
REMARK                            x       y       z     vdW  Elec       q    Type
REMARK                         _______ _______ _______ _____ _____    ______ ____
ROOT
ATOM      1  F   UNL     1      -9.553 -31.602  -2.108  0.00  0.00    +0.000 F 
ATOM      2  O   UNL     1      -7.206 -31.571  -0.522  0.00  0.00    +0.000 OA
ATOM      3  O   UNL     1      -5.290 -34.764  -3.245  0.00  0.00    +0.000 OA
ATOM      4  N   UNL     1      -6.284 -33.214  -1.845  0.00  0.00    +0.000 N 
ATOM      5  N   UNL     1      -7.485 -34.158  -3.592  0.00  0.00    +0.000 N 
ATOM      6  C   UNL     1      -7.336 -32.385  -1.428  0.00  0.00    +0.000 C 
ATOM      7  C   UNL     1      -6.271 -34.108  -2.924  0.00  0.00    +0.000 C 
ATOM      8  C   UNL     1      -8.620 -32.564  -2.188  0.00  0.00    +0.000 C 
ATOM      9  C   UNL     1      -8.504 -33.397  -3.167  0.00  0.00    +0.000 C 
ATOM     10  H   UNL     1      -5.413 -33.111  -1.346  0.00  0.00    +0.000 HD
ATOM     11  H   UNL     1      -7.578 -34.771  -4.392  0.00  0.00    +0.000 HD
ENDROOT
TORSDOF 0
ENDMDL
MODEL 7
REMARK VINA RESULT:      -3.0     29.083     29.918
REMARK  Name = 3385_5Fluorouracil.pdbqt.pdb
REMARK  0 active torsions:
REMARK  status: ('A' for Active; 'I' for Inactive)
REMARK                            x       y       z     vdW  Elec       q    Type
REMARK                         _______ _______ _______ _____ _____    ______ ____
ROOT
ATOM      1  F   UNL     1     -10.727  -4.114  -5.650  0.00  0.00    +0.000 F 
ATOM      2  O   UNL     1     -11.544  -6.815  -5.412  0.00  0.00    +0.000 OA
ATOM      3  O   UNL     1     -15.442  -5.484  -3.336  0.00  0.00    +0.000 OA
ATOM      4  N   UNL     1     -13.454  -6.147  -4.315  0.00  0.00    +0.000 N 
ATOM      5  N   UNL     1     -13.834  -3.910  -3.828  0.00  0.00    +0.000 N 
ATOM      6  C   UNL     1     -12.196  -5.918  -4.892  0.00  0.00    +0.000 C 
ATOM      7  C   UNL     1     -14.340  -5.200  -3.783  0.00  0.00    +0.000 C 
ATOM      8  C   UNL     1     -11.726  -4.492  -4.836  0.00  0.00    +0.000 C 
ATOM      9  C   UNL     1     -12.614  -3.697  -4.342  0.00  0.00    +0.000 C 
ATOM     10  H   UNL     1     -13.788  -7.099  -4.340  0.00  0.00    +0.000 HD
ATOM     11  H   UNL     1     -14.400  -3.150  -3.473  0.00  0.00    +0.000 HD
ENDROOT
TORSDOF 0
ENDMDL
MODEL 8
REMARK VINA RESULT:      -3.0     14.520     15.232
REMARK  Name = 3385_5Fluorouracil.pdbqt.pdb
REMARK  0 active torsions:
REMARK  status: ('A' for Active; 'I' for Inactive)
REMARK                            x       y       z     vdW  Elec       q    Type
REMARK                         _______ _______ _______ _____ _____    ______ ____
ROOT
ATOM      1  F   UNL     1      -1.165 -33.693  12.246  0.00  0.00    +0.000 F 
ATOM      2  O   UNL     1      -0.163 -32.281  10.003  0.00  0.00    +0.000 OA
ATOM      3  O   UNL     1      -3.765 -33.674   7.481  0.00  0.00    +0.000 OA
ATOM      4  N   UNL     1      -1.926 -33.037   8.732  0.00  0.00    +0.000 N 
ATOM      5  N   UNL     1      -3.501 -34.495   9.616  0.00  0.00    +0.000 N 
ATOM      6  C   UNL     1      -1.146 -33.004   9.897  0.00  0.00    +0.000 C 
ATOM      7  C   UNL     1      -3.122 -33.736   8.519  0.00  0.00    +0.000 C 
ATOM      8  C   UNL     1      -1.620 -33.907  11.000  0.00  0.00    +0.000 C 
ATOM      9  C   UNL     1      -2.732 -34.497  10.714  0.00  0.00    +0.000 C 
ATOM     10  H   UNL     1      -1.625 -32.439   7.977  0.00  0.00    +0.000 HD
ATOM     11  H   UNL     1      -4.356 -35.035   9.566  0.00  0.00    +0.000 HD
ENDROOT
TORSDOF 0
ENDMDL
MODEL 9
REMARK VINA RESULT:      -2.9     14.135     14.800
REMARK  Name = 3385_5Fluorouracil.pdbqt.pdb
REMARK  0 active torsions:
REMARK  status: ('A' for Active; 'I' for Inactive)
REMARK                            x       y       z     vdW  Elec       q    Type
REMARK                         _______ _______ _______ _____ _____    ______ ____
ROOT
ATOM      1  F   UNL     1      -5.562 -29.197  10.187  0.00  0.00    +0.000 F 
ATOM      2  O   UNL     1      -2.777 -28.709  10.017  0.00  0.00    +0.000 OA
ATOM      3  O   UNL     1      -2.218 -32.586   7.581  0.00  0.00    +0.000 OA
ATOM      4  N   UNL     1      -2.497 -30.681   8.862  0.00  0.00    +0.000 N 
ATOM      5  N   UNL     1      -4.291 -32.096   8.457  0.00  0.00    +0.000 N 
ATOM      6  C   UNL     1      -3.254 -29.757   9.597  0.00  0.00    +0.000 C 
ATOM      7  C   UNL     1      -2.942 -31.857   8.243  0.00  0.00    +0.000 C 
ATOM      8  C   UNL     1      -4.689 -30.146   9.813  0.00  0.00    +0.000 C 
ATOM      9  C   UNL     1      -5.005 -31.235   9.196  0.00  0.00    +0.000 C 
ATOM     10  H   UNL     1      -1.529 -30.439   8.707  0.00  0.00    +0.000 HD
ATOM     11  H   UNL     1      -4.713 -32.920   8.047  0.00  0.00    +0.000 HD
ENDROOT
TORSDOF 0
ENDMDL
