MODEL 1
REMARK VINA RESULT:      -6.6      0.000      0.000
REMARK  Name = 342374_SipholenolA.pdbqt.pdb
REMARK  5 active torsions:
REMARK  status: ('A' for Active; 'I' for Inactive)
REMARK    1  A    between atoms: C_3  and  C_20
REMARK    2  A    between atoms: C_4  and  O_16
REMARK    3  A    between atoms: C_13  and  O_18
REMARK    4  A    between atoms: C_21  and  C_25
REMARK    5  A    between atoms: C_26  and  O_36
REMARK                            x       y       z     vdW  Elec       q    Type
REMARK                         _______ _______ _______ _____ _____    ______ ____
ROOT
ATOM      1  O   UNL     1     -16.659 -13.285  -9.849  0.00  0.00    +0.000 OA
ATOM      2  C   UNL     1     -16.737 -14.107  -7.371  0.00  0.00    +0.000 C 
ATOM      3  C   UNL     1     -17.590 -14.115  -6.099  0.00  0.00    +0.000 C 
ATOM      4  C   UNL     1     -18.310 -12.850  -5.665  0.00  0.00    +0.000 C 
ATOM      5  C   UNL     1     -17.246 -13.205  -8.581  0.00  0.00    +0.000 C 
ATOM      6  C   UNL     1     -16.731 -15.442  -7.990  0.00  0.00    +0.000 C 
ATOM      7  C   UNL     1     -18.428 -11.962  -6.804  0.00  0.00    +0.000 C 
ATOM      8  C   UNL     1     -17.969 -12.051  -8.221  0.00  0.00    +0.000 C 
ATOM      9  C   UNL     1     -15.290 -13.662  -7.023  0.00  0.00    +0.000 C 
ATOM     10  C   UNL     1     -16.809 -16.118  -9.337  0.00  0.00    +0.000 C 
ATOM     11  C   UNL     1     -17.280 -14.135 -10.869  0.00  0.00    +0.000 C 
ATOM     12  C   UNL     1     -19.686 -13.179  -5.065  0.00  0.00    +0.000 C 
ATOM     13  C   UNL     1     -16.970 -15.647 -10.657  0.00  0.00    +0.000 C 
ATOM     14  C   UNL     1     -18.826 -13.953 -10.917  0.00  0.00    +0.000 C 
ATOM     15  C   UNL     1     -16.666 -13.728 -12.240  0.00  0.00    +0.000 C 
ENDROOT
BRANCH   4  16
ATOM     16  O   UNL     1     -17.588 -12.218  -4.638  0.00  0.00    +0.000 OA
ATOM     17  H   UNL     1     -17.192 -12.984  -4.184  0.00  0.00    +0.000 HD
ENDBRANCH   4  16
BRANCH  13  18
ATOM     18  O   UNL     1     -16.832 -16.542 -11.714  0.00  0.00    +0.000 OA
ATOM     19  H   UNL     1     -15.960 -16.989 -11.693  0.00  0.00    +0.000 HD
ENDBRANCH  13  18
BRANCH   3  20
ATOM     20  C   UNL     1     -17.516 -15.237  -5.200  0.00  0.00    +0.000 C 
ATOM     21  C   UNL     1     -17.431 -16.421  -4.231  0.00  0.00    +0.000 C 
BRANCH  21  25
ATOM     22  C   UNL     1     -15.623 -17.544  -1.335  0.00  0.00    +0.000 C 
ATOM     23  C   UNL     1     -17.088 -17.331  -1.805  0.00  0.00    +0.000 C 
ATOM     24  C   UNL     1     -14.835 -18.811  -1.500  0.00  0.00    +0.000 C 
ATOM     25  C   UNL     1     -17.346 -17.525  -3.319  0.00  0.00    +0.000 C 
ATOM     26  C   UNL     1     -13.605 -18.869  -0.602  0.00  0.00    +0.000 C 
ATOM     27  C   UNL     1     -14.922 -16.781  -0.355  0.00  0.00    +0.000 C 
ATOM     28  C   UNL     1     -13.727 -17.585   0.078  0.00  0.00    +0.000 C 
ATOM     29  C   UNL     1     -15.294 -19.733  -2.459  0.00  0.00    +0.000 C 
ATOM     30  C   UNL     1     -17.351 -18.875  -3.882  0.00  0.00    +0.000 C 
ATOM     31  C   UNL     1     -17.505 -15.863  -1.416  0.00  0.00    +0.000 C 
ATOM     32  C   UNL     1     -18.012 -18.288  -0.977  0.00  0.00    +0.000 C 
ATOM     33  C   UNL     1     -16.423 -19.671  -3.453  0.00  0.00    +0.000 C 
ATOM     34  C   UNL     1     -12.318 -19.071  -1.390  0.00  0.00    +0.000 C 
ATOM     35  C   UNL     1     -18.021 -19.241  -5.180  0.00  0.00    +0.000 C 
BRANCH  26  36
ATOM     36  O   UNL     1     -13.712 -19.935   0.305  0.00  0.00    +0.000 OA
ATOM     37  H   UNL     1     -12.970 -19.742   0.904  0.00  0.00    +0.000 HD
ENDBRANCH  26  36
ENDBRANCH  21  25
ENDBRANCH   3  20
TORSDOF 5
ENDMDL
MODEL 2
REMARK VINA RESULT:      -6.1     20.764     25.981
REMARK  Name = 342374_SipholenolA.pdbqt.pdb
REMARK  5 active torsions:
REMARK  status: ('A' for Active; 'I' for Inactive)
REMARK    1  A    between atoms: C_3  and  C_20
REMARK    2  A    between atoms: C_4  and  O_16
REMARK    3  A    between atoms: C_13  and  O_18
REMARK    4  A    between atoms: C_21  and  C_25
REMARK    5  A    between atoms: C_26  and  O_36
REMARK                            x       y       z     vdW  Elec       q    Type
REMARK                         _______ _______ _______ _____ _____    ______ ____
ROOT
ATOM      1  O   UNL     1      -4.473 -39.620   2.880  0.00  0.00    +0.000 OA
ATOM      2  C   UNL     1      -4.526 -37.865   0.946  0.00  0.00    +0.000 C 
ATOM      3  C   UNL     1      -3.781 -37.378  -0.300  0.00  0.00    +0.000 C 
ATOM      4  C   UNL     1      -2.267 -37.250  -0.273  0.00  0.00    +0.000 C 
ATOM      5  C   UNL     1      -3.800 -38.961   1.845  0.00  0.00    +0.000 C 
ATOM      6  C   UNL     1      -5.755 -38.576   0.560  0.00  0.00    +0.000 C 
ATOM      7  C   UNL     1      -1.747 -38.060   0.810  0.00  0.00    +0.000 C 
ATOM      8  C   UNL     1      -2.393 -38.912   1.850  0.00  0.00    +0.000 C 
ATOM      9  C   UNL     1      -4.862 -36.652   1.856  0.00  0.00    +0.000 C 
ATOM     10  C   UNL     1      -6.572 -39.795   0.912  0.00  0.00    +0.000 C 
ATOM     11  C   UNL     1      -5.064 -40.935   2.623  0.00  0.00    +0.000 C 
ATOM     12  C   UNL     1      -1.656 -37.657  -1.622  0.00  0.00    +0.000 C 
ATOM     13  C   UNL     1      -6.409 -40.845   1.841  0.00  0.00    +0.000 C 
ATOM     14  C   UNL     1      -4.097 -41.864   1.831  0.00  0.00    +0.000 C 
ATOM     15  C   UNL     1      -5.381 -41.573   4.007  0.00  0.00    +0.000 C 
ENDROOT
BRANCH   4  16
ATOM     16  O   UNL     1      -1.906 -35.905  -0.081  0.00  0.00    +0.000 OA
ATOM     17  H   UNL     1      -2.611 -35.446  -0.572  0.00  0.00    +0.000 HD
ENDBRANCH   4  16
BRANCH  13  18
ATOM     18  O   UNL     1      -7.453 -41.745   2.031  0.00  0.00    +0.000 OA
ATOM     19  H   UNL     1      -7.983 -41.515   2.823  0.00  0.00    +0.000 HD
ENDBRANCH  13  18
BRANCH   3  20
ATOM     20  C   UNL     1      -4.523 -36.823  -1.402  0.00  0.00    +0.000 C 
ATOM     21  C   UNL     1      -5.319 -36.221  -2.564  0.00  0.00    +0.000 C 
BRANCH  21  25
ATOM     22  C   UNL     1      -5.117 -35.575  -6.094  0.00  0.00    +0.000 C 
ATOM     23  C   UNL     1      -6.062 -36.260  -5.069  0.00  0.00    +0.000 C 
ATOM     24  C   UNL     1      -5.182 -34.132  -6.505  0.00  0.00    +0.000 C 
ATOM     25  C   UNL     1      -6.069 -35.652  -3.647  0.00  0.00    +0.000 C 
ATOM     26  C   UNL     1      -4.421 -33.846  -7.794  0.00  0.00    +0.000 C 
ATOM     27  C   UNL     1      -4.323 -36.222  -7.088  0.00  0.00    +0.000 C 
ATOM     28  C   UNL     1      -3.922 -35.182  -8.098  0.00  0.00    +0.000 C 
ATOM     29  C   UNL     1      -5.878 -33.253  -5.655  0.00  0.00    +0.000 C 
ATOM     30  C   UNL     1      -6.731 -34.367  -3.414  0.00  0.00    +0.000 C 
ATOM     31  C   UNL     1      -5.633 -37.771  -4.961  0.00  0.00    +0.000 C 
ATOM     32  C   UNL     1      -7.512 -36.253  -5.662  0.00  0.00    +0.000 C 
ATOM     33  C   UNL     1      -6.536 -33.458  -4.317  0.00  0.00    +0.000 C 
ATOM     34  C   UNL     1      -3.353 -32.775  -7.614  0.00  0.00    +0.000 C 
ATOM     35  C   UNL     1      -7.207 -33.900  -2.064  0.00  0.00    +0.000 C 
BRANCH  26  36
ATOM     36  O   UNL     1      -5.300 -33.395  -8.791  0.00  0.00    +0.000 OA
ATOM     37  H   UNL     1      -5.140 -32.435  -8.758  0.00  0.00    +0.000 HD
ENDBRANCH  26  36
ENDBRANCH  21  25
ENDBRANCH   3  20
TORSDOF 5
ENDMDL
MODEL 3
REMARK VINA RESULT:      -6.0     20.456     25.689
REMARK  Name = 342374_SipholenolA.pdbqt.pdb
REMARK  5 active torsions:
REMARK  status: ('A' for Active; 'I' for Inactive)
REMARK    1  A    between atoms: C_3  and  C_20
REMARK    2  A    between atoms: C_4  and  O_16
REMARK    3  A    between atoms: C_13  and  O_18
REMARK    4  A    between atoms: C_21  and  C_25
REMARK    5  A    between atoms: C_26  and  O_36
REMARK                            x       y       z     vdW  Elec       q    Type
REMARK                         _______ _______ _______ _____ _____    ______ ____
ROOT
ATOM      1  O   UNL     1      -4.613 -39.672   2.653  0.00  0.00    +0.000 OA
ATOM      2  C   UNL     1      -4.486 -37.875   0.762  0.00  0.00    +0.000 C 
ATOM      3  C   UNL     1      -3.642 -37.380  -0.416  0.00  0.00    +0.000 C 
ATOM      4  C   UNL     1      -2.132 -37.288  -0.277  0.00  0.00    +0.000 C 
ATOM      5  C   UNL     1      -3.852 -39.008   1.684  0.00  0.00    +0.000 C 
ATOM      6  C   UNL     1      -5.699 -38.548   0.272  0.00  0.00    +0.000 C 
ATOM      7  C   UNL     1      -1.710 -38.135   0.821  0.00  0.00    +0.000 C 
ATOM      8  C   UNL     1      -2.448 -38.993   1.792  0.00  0.00    +0.000 C 
ATOM      9  C   UNL     1      -4.860 -36.674   1.673  0.00  0.00    +0.000 C 
ATOM     10  C   UNL     1      -6.568 -39.753   0.536  0.00  0.00    +0.000 C 
ATOM     11  C   UNL     1      -5.213 -40.967   2.324  0.00  0.00    +0.000 C 
ATOM     12  C   UNL     1      -1.434 -37.681  -1.588  0.00  0.00    +0.000 C 
ATOM     13  C   UNL     1      -6.496 -40.827   1.450  0.00  0.00    +0.000 C 
ATOM     14  C   UNL     1      -4.213 -41.902   1.582  0.00  0.00    +0.000 C 
ATOM     15  C   UNL     1      -5.643 -41.627   3.667  0.00  0.00    +0.000 C 
ENDROOT
BRANCH   4  16
ATOM     16  O   UNL     1      -1.755 -35.957  -0.029  0.00  0.00    +0.000 OA
ATOM     17  H   UNL     1      -2.623 -35.519   0.018  0.00  0.00    +0.000 HD
ENDBRANCH   4  16
BRANCH  13  18
ATOM     18  O   UNL     1      -7.570 -41.705   1.544  0.00  0.00    +0.000 OA
ATOM     19  H   UNL     1      -8.152 -41.479   2.300  0.00  0.00    +0.000 HD
ENDBRANCH  13  18
BRANCH   3  20
ATOM     20  C   UNL     1      -4.289 -36.782  -1.555  0.00  0.00    +0.000 C 
ATOM     21  C   UNL     1      -4.984 -36.136  -2.757  0.00  0.00    +0.000 C 
BRANCH  21  25
ATOM     22  C   UNL     1      -8.210 -34.981  -3.843  0.00  0.00    +0.000 C 
ATOM     23  C   UNL     1      -6.753 -34.462  -3.707  0.00  0.00    +0.000 C 
ATOM     24  C   UNL     1      -8.780 -35.661  -5.054  0.00  0.00    +0.000 C 
ATOM     25  C   UNL     1      -5.640 -35.524  -3.877  0.00  0.00    +0.000 C 
ATOM     26  C   UNL     1     -10.304 -35.689  -5.059  0.00  0.00    +0.000 C 
ATOM     27  C   UNL     1      -9.336 -34.578  -3.063  0.00  0.00    +0.000 C 
ATOM     28  C   UNL     1     -10.576 -34.999  -3.803  0.00  0.00    +0.000 C 
ATOM     29  C   UNL     1      -7.866 -36.202  -5.976  0.00  0.00    +0.000 C 
ATOM     30  C   UNL     1      -5.341 -36.049  -5.210  0.00  0.00    +0.000 C 
ATOM     31  C   UNL     1      -6.607 -33.815  -2.279  0.00  0.00    +0.000 C 
ATOM     32  C   UNL     1      -6.549 -33.303  -4.741  0.00  0.00    +0.000 C 
ATOM     33  C   UNL     1      -6.365 -36.312  -5.958  0.00  0.00    +0.000 C 
ATOM     34  C   UNL     1     -10.860 -37.103  -5.160  0.00  0.00    +0.000 C 
ATOM     35  C   UNL     1      -4.035 -36.701  -5.582  0.00  0.00    +0.000 C 
BRANCH  26  36
ATOM     36  O   UNL     1     -10.803 -34.965  -6.153  0.00  0.00    +0.000 OA
ATOM     37  H   UNL     1     -10.471 -34.072  -5.950  0.00  0.00    +0.000 HD
ENDBRANCH  26  36
ENDBRANCH  21  25
ENDBRANCH   3  20
TORSDOF 5
ENDMDL
MODEL 4
REMARK VINA RESULT:      -6.0      2.506      4.686
REMARK  Name = 342374_SipholenolA.pdbqt.pdb
REMARK  5 active torsions:
REMARK  status: ('A' for Active; 'I' for Inactive)
REMARK    1  A    between atoms: C_3  and  C_20
REMARK    2  A    between atoms: C_4  and  O_16
REMARK    3  A    between atoms: C_13  and  O_18
REMARK    4  A    between atoms: C_21  and  C_25
REMARK    5  A    between atoms: C_26  and  O_36
REMARK                            x       y       z     vdW  Elec       q    Type
REMARK                         _______ _______ _______ _____ _____    ______ ____
ROOT
ATOM      1  O   UNL     1     -18.029 -14.416  -6.380  0.00  0.00    +0.000 OA
ATOM      2  C   UNL     1     -17.674 -15.901  -4.260  0.00  0.00    +0.000 C 
ATOM      3  C   UNL     1     -17.759 -17.334  -3.728  0.00  0.00    +0.000 C 
ATOM      4  C   UNL     1     -18.947 -18.207  -4.095  0.00  0.00    +0.000 C 
ATOM      5  C   UNL     1     -18.244 -15.634  -5.723  0.00  0.00    +0.000 C 
ATOM      6  C   UNL     1     -16.268 -15.499  -4.420  0.00  0.00    +0.000 C 
ATOM      7  C   UNL     1     -19.580 -17.662  -5.280  0.00  0.00    +0.000 C 
ATOM      8  C   UNL     1     -19.309 -16.463  -6.124  0.00  0.00    +0.000 C 
ATOM      9  C   UNL     1     -18.406 -14.940  -3.283  0.00  0.00    +0.000 C 
ATOM     10  C   UNL     1     -15.353 -14.760  -5.366  0.00  0.00    +0.000 C 
ATOM     11  C   UNL     1     -16.917 -14.304  -7.327  0.00  0.00    +0.000 C 
ATOM     12  C   UNL     1     -18.513 -19.665  -4.310  0.00  0.00    +0.000 C 
ATOM     13  C   UNL     1     -15.541 -14.134  -6.616  0.00  0.00    +0.000 C 
ATOM     14  C   UNL     1     -16.832 -15.537  -8.275  0.00  0.00    +0.000 C 
ATOM     15  C   UNL     1     -17.162 -13.017  -8.169  0.00  0.00    +0.000 C 
ENDROOT
BRANCH   4  16
ATOM     16  O   UNL     1     -19.866 -18.235  -3.032  0.00  0.00    +0.000 OA
ATOM     17  H   UNL     1     -20.189 -17.316  -3.035  0.00  0.00    +0.000 HD
ENDBRANCH   4  16
BRANCH  13  18
ATOM     18  O   UNL     1     -14.502 -13.382  -7.158  0.00  0.00    +0.000 OA
ATOM     19  H   UNL     1     -13.629 -13.769  -6.937  0.00  0.00    +0.000 HD
ENDBRANCH  13  18
BRANCH   3  20
ATOM     20  C   UNL     1     -16.848 -17.768  -2.700  0.00  0.00    +0.000 C 
ATOM     21  C   UNL     1     -15.874 -18.242  -1.617  0.00  0.00    +0.000 C 
BRANCH  21  25
ATOM     22  C   UNL     1     -15.167 -17.908   1.891  0.00  0.00    +0.000 C 
ATOM     23  C   UNL     1     -15.415 -19.020   0.835  0.00  0.00    +0.000 C 
ATOM     24  C   UNL     1     -13.828 -17.327   2.241  0.00  0.00    +0.000 C 
ATOM     25  C   UNL     1     -14.961 -18.694  -0.608  0.00  0.00    +0.000 C 
ATOM     26  C   UNL     1     -13.835 -16.570   3.564  0.00  0.00    +0.000 C 
ATOM     27  C   UNL     1     -16.039 -17.535   2.957  0.00  0.00    +0.000 C 
ATOM     28  C   UNL     1     -15.230 -16.745   3.950  0.00  0.00    +0.000 C 
ATOM     29  C   UNL     1     -12.785 -17.514   1.315  0.00  0.00    +0.000 C 
ATOM     30  C   UNL     1     -13.533 -18.690  -0.931  0.00  0.00    +0.000 C 
ATOM     31  C   UNL     1     -16.961 -19.321   0.812  0.00  0.00    +0.000 C 
ATOM     32  C   UNL     1     -14.716 -20.331   1.333  0.00  0.00    +0.000 C 
ATOM     33  C   UNL     1     -12.755 -18.140  -0.053  0.00  0.00    +0.000 C 
ATOM     34  C   UNL     1     -13.376 -15.127   3.411  0.00  0.00    +0.000 C 
ATOM     35  C   UNL     1     -12.988 -18.848  -2.326  0.00  0.00    +0.000 C 
BRANCH  26  36
ATOM     36  O   UNL     1     -12.974 -17.188   4.484  0.00  0.00    +0.000 OA
ATOM     37  H   UNL     1     -13.373 -16.909   5.327  0.00  0.00    +0.000 HD
ENDBRANCH  26  36
ENDBRANCH  21  25
ENDBRANCH   3  20
TORSDOF 5
ENDMDL
MODEL 5
REMARK VINA RESULT:      -6.0     21.822     25.941
REMARK  Name = 342374_SipholenolA.pdbqt.pdb
REMARK  5 active torsions:
REMARK  status: ('A' for Active; 'I' for Inactive)
REMARK    1  A    between atoms: C_3  and  C_20
REMARK    2  A    between atoms: C_4  and  O_16
REMARK    3  A    between atoms: C_13  and  O_18
REMARK    4  A    between atoms: C_21  and  C_25
REMARK    5  A    between atoms: C_26  and  O_36
REMARK                            x       y       z     vdW  Elec       q    Type
REMARK                         _______ _______ _______ _____ _____    ______ ____
ROOT
ATOM      1  O   UNL     1      -4.851 -36.454  -5.162  0.00  0.00    +0.000 OA
ATOM      2  C   UNL     1      -3.260 -36.441  -7.233  0.00  0.00    +0.000 C 
ATOM      3  C   UNL     1      -3.180 -36.116  -8.728  0.00  0.00    +0.000 C 
ATOM      4  C   UNL     1      -4.318 -36.520  -9.650  0.00  0.00    +0.000 C 
ATOM      5  C   UNL     1      -4.697 -36.379  -6.552  0.00  0.00    +0.000 C 
ATOM      6  C   UNL     1      -2.526 -35.432  -6.453  0.00  0.00    +0.000 C 
ATOM      7  C   UNL     1      -5.508 -36.747  -8.855  0.00  0.00    +0.000 C 
ATOM      8  C   UNL     1      -5.785 -36.690  -7.390  0.00  0.00    +0.000 C 
ATOM      9  C   UNL     1      -2.674 -37.857  -6.979  0.00  0.00    +0.000 C 
ATOM     10  C   UNL     1      -2.626 -34.622  -5.183  0.00  0.00    +0.000 C 
ATOM     11  C   UNL     1      -4.976 -35.215  -4.391  0.00  0.00    +0.000 C 
ATOM     12  C   UNL     1      -4.559 -35.452 -10.728  0.00  0.00    +0.000 C 
ATOM     13  C   UNL     1      -3.606 -34.505  -4.175  0.00  0.00    +0.000 C 
ATOM     14  C   UNL     1      -5.953 -34.205  -5.063  0.00  0.00    +0.000 C 
ATOM     15  C   UNL     1      -5.518 -35.604  -2.984  0.00  0.00    +0.000 C 
ENDROOT
BRANCH   4  16
ATOM     16  O   UNL     1      -3.976 -37.692 -10.345  0.00  0.00    +0.000 OA
ATOM     17  H   UNL     1      -3.141 -37.937  -9.906  0.00  0.00    +0.000 HD
ENDBRANCH   4  16
BRANCH  13  18
ATOM     18  O   UNL     1      -3.309 -33.775  -3.028  0.00  0.00    +0.000 OA
ATOM     19  H   UNL     1      -3.342 -32.810  -3.199  0.00  0.00    +0.000 HD
ENDBRANCH  13  18
BRANCH   3  20
ATOM     20  C   UNL     1      -1.940 -35.648  -9.290  0.00  0.00    +0.000 C 
ATOM     21  C   UNL     1      -0.613 -35.163  -9.881  0.00  0.00    +0.000 C 
BRANCH  21  25
ATOM     22  C   UNL     1       0.732 -33.023 -12.437  0.00  0.00    +0.000 C 
ATOM     23  C   UNL     1       0.855 -33.259 -10.907  0.00  0.00    +0.000 C 
ATOM     24  C   UNL     1       1.566 -33.696 -13.488  0.00  0.00    +0.000 C 
ATOM     25  C   UNL     1       0.636 -34.714 -10.428  0.00  0.00    +0.000 C 
ATOM     26  C   UNL     1       1.510 -32.987 -14.836  0.00  0.00    +0.000 C 
ATOM     27  C   UNL     1       0.134 -31.899 -13.082  0.00  0.00    +0.000 C 
ATOM     28  C   UNL     1       0.612 -31.886 -14.508  0.00  0.00    +0.000 C 
ATOM     29  C   UNL     1       2.235 -34.877 -13.119  0.00  0.00    +0.000 C 
ATOM     30  C   UNL     1       1.670 -35.719 -10.677  0.00  0.00    +0.000 C 
ATOM     31  C   UNL     1      -0.206 -32.338 -10.195  0.00  0.00    +0.000 C 
ATOM     32  C   UNL     1       2.264 -32.750 -10.446  0.00  0.00    +0.000 C 
ATOM     33  C   UNL     1       2.224 -35.683 -11.848  0.00  0.00    +0.000 C 
ATOM     34  C   UNL     1       1.038 -33.902 -15.957  0.00  0.00    +0.000 C 
ATOM     35  C   UNL     1       1.801 -36.999  -9.896  0.00  0.00    +0.000 C 
BRANCH  26  36
ATOM     36  O   UNL     1       2.783 -32.514 -15.192  0.00  0.00    +0.000 OA
ATOM     37  H   UNL     1       3.343 -32.995 -14.557  0.00  0.00    +0.000 HD
ENDBRANCH  26  36
ENDBRANCH  21  25
ENDBRANCH   3  20
TORSDOF 5
ENDMDL
MODEL 6
REMARK VINA RESULT:      -5.8     14.554     17.766
REMARK  Name = 342374_SipholenolA.pdbqt.pdb
REMARK  5 active torsions:
REMARK  status: ('A' for Active; 'I' for Inactive)
REMARK    1  A    between atoms: C_3  and  C_20
REMARK    2  A    between atoms: C_4  and  O_16
REMARK    3  A    between atoms: C_13  and  O_18
REMARK    4  A    between atoms: C_21  and  C_25
REMARK    5  A    between atoms: C_26  and  O_36
REMARK                            x       y       z     vdW  Elec       q    Type
REMARK                         _______ _______ _______ _____ _____    ______ ____
ROOT
ATOM      1  O   UNL     1      -5.299  -9.035 -10.254  0.00  0.00    +0.000 OA
ATOM      2  C   UNL     1      -4.776 -10.448 -12.388  0.00  0.00    +0.000 C 
ATOM      3  C   UNL     1      -4.508 -10.359 -13.893  0.00  0.00    +0.000 C 
ATOM      4  C   UNL     1      -5.348  -9.433 -14.756  0.00  0.00    +0.000 C 
ATOM      5  C   UNL     1      -5.230  -9.112 -11.650  0.00  0.00    +0.000 C 
ATOM      6  C   UNL     1      -3.535 -10.768 -11.667  0.00  0.00    +0.000 C 
ATOM      7  C   UNL     1      -5.972  -8.438 -13.907  0.00  0.00    +0.000 C 
ATOM      8  C   UNL     1      -5.962  -8.199 -12.435  0.00  0.00    +0.000 C 
ATOM      9  C   UNL     1      -5.857 -11.530 -12.117  0.00  0.00    +0.000 C 
ATOM     10  C   UNL     1      -2.769 -10.405 -10.418  0.00  0.00    +0.000 C 
ATOM     11  C   UNL     1      -4.166  -8.474  -9.514  0.00  0.00    +0.000 C 
ATOM     12  C   UNL     1      -4.494  -8.779 -15.854  0.00  0.00    +0.000 C 
ATOM     13  C   UNL     1      -2.985  -9.480  -9.374  0.00  0.00    +0.000 C 
ATOM     14  C   UNL     1      -3.626  -7.171 -10.174  0.00  0.00    +0.000 C 
ATOM     15  C   UNL     1      -4.672  -8.156  -8.076  0.00  0.00    +0.000 C 
ENDROOT
BRANCH   4  16
ATOM     16  O   UNL     1      -6.334 -10.173 -15.431  0.00  0.00    +0.000 OA
ATOM     17  H   UNL     1      -7.137  -9.899 -14.953  0.00  0.00    +0.000 HD
ENDBRANCH   4  16
BRANCH  13  18
ATOM     18  O   UNL     1      -2.151  -9.511  -8.262  0.00  0.00    +0.000 OA
ATOM     19  H   UNL     1      -2.276 -10.334  -7.743  0.00  0.00    +0.000 HD
ENDBRANCH  13  18
BRANCH   3  20
ATOM     20  C   UNL     1      -3.633 -11.316 -14.519  0.00  0.00    +0.000 C 
ATOM     21  C   UNL     1      -2.690 -12.329 -15.174  0.00  0.00    +0.000 C 
BRANCH  21  25
ATOM     22  C   UNL     1      -1.390 -15.652 -14.742  0.00  0.00    +0.000 C 
ATOM     23  C   UNL     1      -2.101 -14.792 -15.822  0.00  0.00    +0.000 C 
ATOM     24  C   UNL     1       0.096 -15.760 -14.559  0.00  0.00    +0.000 C 
ATOM     25  C   UNL     1      -1.799 -13.275 -15.783  0.00  0.00    +0.000 C 
ATOM     26  C   UNL     1       0.507 -16.961 -13.715  0.00  0.00    +0.000 C 
ATOM     27  C   UNL     1      -1.946 -16.755 -14.026  0.00  0.00    +0.000 C 
ATOM     28  C   UNL     1      -0.805 -17.530 -13.427  0.00  0.00    +0.000 C 
ATOM     29  C   UNL     1       0.889 -14.751 -15.136  0.00  0.00    +0.000 C 
ATOM     30  C   UNL     1      -0.496 -12.787 -16.238  0.00  0.00    +0.000 C 
ATOM     31  C   UNL     1      -3.654 -14.993 -15.645  0.00  0.00    +0.000 C 
ATOM     32  C   UNL     1      -1.737 -15.375 -17.230  0.00  0.00    +0.000 C 
ATOM     33  C   UNL     1       0.531 -13.485 -15.867  0.00  0.00    +0.000 C 
ATOM     34  C   UNL     1       1.328 -16.563 -12.497  0.00  0.00    +0.000 C 
ATOM     35  C   UNL     1      -0.238 -11.372 -16.682  0.00  0.00    +0.000 C 
BRANCH  26  36
ATOM     36  O   UNL     1       1.287 -17.848 -14.474  0.00  0.00    +0.000 OA
ATOM     37  H   UNL     1       1.921 -18.157 -13.803  0.00  0.00    +0.000 HD
ENDBRANCH  26  36
ENDBRANCH  21  25
ENDBRANCH   3  20
TORSDOF 5
ENDMDL
MODEL 7
REMARK VINA RESULT:      -5.4      4.194      7.883
REMARK  Name = 342374_SipholenolA.pdbqt.pdb
REMARK  5 active torsions:
REMARK  status: ('A' for Active; 'I' for Inactive)
REMARK    1  A    between atoms: C_3  and  C_20
REMARK    2  A    between atoms: C_4  and  O_16
REMARK    3  A    between atoms: C_13  and  O_18
REMARK    4  A    between atoms: C_21  and  C_25
REMARK    5  A    between atoms: C_26  and  O_36
REMARK                            x       y       z     vdW  Elec       q    Type
REMARK                         _______ _______ _______ _____ _____    ______ ____
ROOT
ATOM      1  O   UNL     1     -22.728 -20.488  -7.582  0.00  0.00    +0.000 OA
ATOM      2  C   UNL     1     -20.503 -19.122  -7.525  0.00  0.00    +0.000 C 
ATOM      3  C   UNL     1     -19.361 -18.585  -8.393  0.00  0.00    +0.000 C 
ATOM      4  C   UNL     1     -18.750 -19.467  -9.468  0.00  0.00    +0.000 C 
ATOM      5  C   UNL     1     -21.542 -20.107  -8.221  0.00  0.00    +0.000 C 
ATOM      6  C   UNL     1     -21.385 -18.022  -7.105  0.00  0.00    +0.000 C 
ATOM      7  C   UNL     1     -19.682 -20.530  -9.789  0.00  0.00    +0.000 C 
ATOM      8  C   UNL     1     -21.027 -20.902  -9.263  0.00  0.00    +0.000 C 
ATOM      9  C   UNL     1     -19.913 -19.850  -6.286  0.00  0.00    +0.000 C 
ATOM     10  C   UNL     1     -22.844 -17.684  -6.924  0.00  0.00    +0.000 C 
ATOM     11  C   UNL     1     -23.965 -19.764  -7.884  0.00  0.00    +0.000 C 
ATOM     12  C   UNL     1     -18.385 -18.645 -10.714  0.00  0.00    +0.000 C 
ATOM     13  C   UNL     1     -24.045 -18.388  -7.157  0.00  0.00    +0.000 C 
ATOM     14  C   UNL     1     -24.141 -19.523  -9.413  0.00  0.00    +0.000 C 
ATOM     15  C   UNL     1     -25.144 -20.632  -7.355  0.00  0.00    +0.000 C 
ENDROOT
BRANCH   4  16
ATOM     16  O   UNL     1     -17.541 -20.014  -9.006  0.00  0.00    +0.000 OA
ATOM     17  H   UNL     1     -17.368 -19.461  -8.223  0.00  0.00    +0.000 HD
ENDBRANCH   4  16
BRANCH  13  18
ATOM     18  O   UNL     1     -25.246 -17.837  -6.720  0.00  0.00    +0.000 OA
ATOM     19  H   UNL     1     -25.120 -17.308  -5.904  0.00  0.00    +0.000 HD
ENDBRANCH  13  18
BRANCH   3  20
ATOM     20  C   UNL     1     -18.716 -17.347  -8.036  0.00  0.00    +0.000 C 
ATOM     21  C   UNL     1     -18.040 -16.030  -7.643  0.00  0.00    +0.000 C 
BRANCH  21  25
ATOM     22  C   UNL     1     -17.777 -13.729  -4.895  0.00  0.00    +0.000 C 
ATOM     23  C   UNL     1     -16.860 -14.546  -5.845  0.00  0.00    +0.000 C 
ATOM     24  C   UNL     1     -18.272 -12.335  -5.152  0.00  0.00    +0.000 C 
ATOM     25  C   UNL     1     -17.413 -14.795  -7.268  0.00  0.00    +0.000 C 
ATOM     26  C   UNL     1     -18.799 -11.649  -3.898  0.00  0.00    +0.000 C 
ATOM     27  C   UNL     1     -17.982 -13.958  -3.501  0.00  0.00    +0.000 C 
ATOM     28  C   UNL     1     -18.584 -12.709  -2.919  0.00  0.00    +0.000 C 
ATOM     29  C   UNL     1     -18.225 -11.873  -6.480  0.00  0.00    +0.000 C 
ATOM     30  C   UNL     1     -17.449 -13.695  -8.232  0.00  0.00    +0.000 C 
ATOM     31  C   UNL     1     -16.591 -15.941  -5.166  0.00  0.00    +0.000 C 
ATOM     32  C   UNL     1     -15.474 -13.820  -5.929  0.00  0.00    +0.000 C 
ATOM     33  C   UNL     1     -17.834 -12.548  -7.767  0.00  0.00    +0.000 C 
ATOM     34  C   UNL     1     -20.240 -11.184  -4.050  0.00  0.00    +0.000 C 
ATOM     35  C   UNL     1     -17.516 -13.887  -9.724  0.00  0.00    +0.000 C 
BRANCH  26  36
ATOM     36  O   UNL     1     -18.024 -10.518  -3.598  0.00  0.00    +0.000 OA
ATOM     37  H   UNL     1     -17.967 -10.585  -2.628  0.00  0.00    +0.000 HD
ENDBRANCH  26  36
ENDBRANCH  21  25
ENDBRANCH   3  20
TORSDOF 5
ENDMDL
MODEL 8
REMARK VINA RESULT:      -5.3     22.519     26.379
REMARK  Name = 342374_SipholenolA.pdbqt.pdb
REMARK  5 active torsions:
REMARK  status: ('A' for Active; 'I' for Inactive)
REMARK    1  A    between atoms: C_3  and  C_20
REMARK    2  A    between atoms: C_4  and  O_16
REMARK    3  A    between atoms: C_13  and  O_18
REMARK    4  A    between atoms: C_21  and  C_25
REMARK    5  A    between atoms: C_26  and  O_36
REMARK                            x       y       z     vdW  Elec       q    Type
REMARK                         _______ _______ _______ _____ _____    ______ ____
ROOT
ATOM      1  O   UNL     1      -4.175 -37.124  -4.635  0.00  0.00    +0.000 OA
ATOM      2  C   UNL     1      -3.028 -36.875  -6.968  0.00  0.00    +0.000 C 
ATOM      3  C   UNL     1      -3.298 -36.734  -8.469  0.00  0.00    +0.000 C 
ATOM      4  C   UNL     1      -4.369 -37.588  -9.127  0.00  0.00    +0.000 C 
ATOM      5  C   UNL     1      -4.277 -37.181  -6.030  0.00  0.00    +0.000 C 
ATOM      6  C   UNL     1      -2.556 -35.597  -6.413  0.00  0.00    +0.000 C 
ATOM      7  C   UNL     1      -5.274 -38.075  -8.105  0.00  0.00    +0.000 C 
ATOM      8  C   UNL     1      -5.318 -37.922  -6.622  0.00  0.00    +0.000 C 
ATOM      9  C   UNL     1      -1.973 -37.992  -6.735  0.00  0.00    +0.000 C 
ATOM     10  C   UNL     1      -2.716 -34.705  -5.206  0.00  0.00    +0.000 C 
ATOM     11  C   UNL     1      -4.579 -35.899  -3.941  0.00  0.00    +0.000 C 
ATOM     12  C   UNL     1      -5.117 -36.796 -10.209  0.00  0.00    +0.000 C 
ATOM     13  C   UNL     1      -3.506 -34.774  -4.039  0.00  0.00    +0.000 C 
ATOM     14  C   UNL     1      -5.929 -35.341  -4.481  0.00  0.00    +0.000 C 
ATOM     15  C   UNL     1      -4.731 -36.258  -2.433  0.00  0.00    +0.000 C 
ENDROOT
BRANCH   4  16
ATOM     16  O   UNL     1      -3.772 -38.672  -9.793  0.00  0.00    +0.000 OA
ATOM     17  H   UNL     1      -2.845 -38.585  -9.506  0.00  0.00    +0.000 HD
ENDBRANCH   4  16
BRANCH  13  18
ATOM     18  O   UNL     1      -3.290 -33.849  -3.023  0.00  0.00    +0.000 OA
ATOM     19  H   UNL     1      -4.136 -33.522  -2.651  0.00  0.00    +0.000 HD
ENDBRANCH  13  18
BRANCH   3  20
ATOM     20  C   UNL     1      -2.389 -35.976  -9.289  0.00  0.00    +0.000 C 
ATOM     21  C   UNL     1      -1.431 -35.156 -10.159  0.00  0.00    +0.000 C 
BRANCH  21  25
ATOM     22  C   UNL     1       1.809 -35.301 -11.708  0.00  0.00    +0.000 C 
ATOM     23  C   UNL     1       0.330 -35.015 -12.085  0.00  0.00    +0.000 C 
ATOM     24  C   UNL     1       2.803 -34.273 -11.254  0.00  0.00    +0.000 C 
ATOM     25  C   UNL     1      -0.540 -34.381 -10.973  0.00  0.00    +0.000 C 
ATOM     26  C   UNL     1       4.246 -34.756 -11.348  0.00  0.00    +0.000 C 
ATOM     27  C   UNL     1       2.580 -36.441 -12.085  0.00  0.00    +0.000 C 
ATOM     28  C   UNL     1       4.030 -36.100 -11.873  0.00  0.00    +0.000 C 
ATOM     29  C   UNL     1       2.292 -33.052 -10.777  0.00  0.00    +0.000 C 
ATOM     30  C   UNL     1      -0.346 -32.974 -10.620  0.00  0.00    +0.000 C 
ATOM     31  C   UNL     1      -0.328 -36.382 -12.510  0.00  0.00    +0.000 C 
ATOM     32  C   UNL     1       0.318 -34.103 -13.359  0.00  0.00    +0.000 C 
ATOM     33  C   UNL     1       0.884 -32.572 -10.547  0.00  0.00    +0.000 C 
ATOM     34  C   UNL     1       4.971 -34.687 -10.011  0.00  0.00    +0.000 C 
ATOM     35  C   UNL     1      -1.383 -32.133  -9.925  0.00  0.00    +0.000 C 
BRANCH  26  36
ATOM     36  O   UNL     1       4.967 -33.967 -12.257  0.00  0.00    +0.000 OA
ATOM     37  H   UNL     1       5.833 -34.411 -12.239  0.00  0.00    +0.000 HD
ENDBRANCH  26  36
ENDBRANCH  21  25
ENDBRANCH   3  20
TORSDOF 5
ENDMDL
MODEL 9
REMARK VINA RESULT:      -5.2     12.075     15.295
REMARK  Name = 342374_SipholenolA.pdbqt.pdb
REMARK  5 active torsions:
REMARK  status: ('A' for Active; 'I' for Inactive)
REMARK    1  A    between atoms: C_3  and  C_20
REMARK    2  A    between atoms: C_4  and  O_16
REMARK    3  A    between atoms: C_13  and  O_18
REMARK    4  A    between atoms: C_21  and  C_25
REMARK    5  A    between atoms: C_26  and  O_36
REMARK                            x       y       z     vdW  Elec       q    Type
REMARK                         _______ _______ _______ _____ _____    ______ ____
ROOT
ATOM      1  O   UNL     1      -7.658 -11.001   3.147  0.00  0.00    +0.000 OA
ATOM      2  C   UNL     1      -6.681 -12.944   1.701  0.00  0.00    +0.000 C 
ATOM      3  C   UNL     1      -5.635 -13.286   0.636  0.00  0.00    +0.000 C 
ATOM      4  C   UNL     1      -5.423 -12.351  -0.542  0.00  0.00    +0.000 C 
ATOM      5  C   UNL     1      -6.884 -11.405   2.053  0.00  0.00    +0.000 C 
ATOM      6  C   UNL     1      -6.277 -13.488   3.007  0.00  0.00    +0.000 C 
ATOM      7  C   UNL     1      -5.948 -11.043  -0.203  0.00  0.00    +0.000 C 
ATOM      8  C   UNL     1      -6.640 -10.500   1.001  0.00  0.00    +0.000 C 
ATOM      9  C   UNL     1      -8.060 -13.519   1.276  0.00  0.00    +0.000 C 
ATOM     10  C   UNL     1      -6.238 -13.131   4.472  0.00  0.00    +0.000 C 
ATOM     11  C   UNL     1      -6.993 -10.696   4.417  0.00  0.00    +0.000 C 
ATOM     12  C   UNL     1      -3.938 -12.278  -0.927  0.00  0.00    +0.000 C 
ATOM     13  C   UNL     1      -6.594 -11.979   5.206  0.00  0.00    +0.000 C 
ATOM     14  C   UNL     1      -5.717  -9.826   4.213  0.00  0.00    +0.000 C 
ATOM     15  C   UNL     1      -8.018  -9.918   5.294  0.00  0.00    +0.000 C 
ENDROOT
BRANCH   4  16
ATOM     16  O   UNL     1      -6.086 -12.854  -1.675  0.00  0.00    +0.000 OA
ATOM     17  H   UNL     1      -6.982 -13.000  -1.323  0.00  0.00    +0.000 HD
ENDBRANCH   4  16
BRANCH  13  18
ATOM     18  O   UNL     1      -6.587 -12.036   6.596  0.00  0.00    +0.000 OA
ATOM     19  H   UNL     1      -5.801 -12.518   6.930  0.00  0.00    +0.000 HD
ENDBRANCH  13  18
BRANCH   3  20
ATOM     20  C   UNL     1      -5.030 -14.593   0.626  0.00  0.00    +0.000 C 
ATOM     21  C   UNL     1      -4.370 -15.975   0.613  0.00  0.00    +0.000 C 
BRANCH  21  25
ATOM     22  C   UNL     1      -2.482 -18.211   2.699  0.00  0.00    +0.000 C 
ATOM     23  C   UNL     1      -3.765 -18.211   1.823  0.00  0.00    +0.000 C 
ATOM     24  C   UNL     1      -1.103 -18.555   2.217  0.00  0.00    +0.000 C 
ATOM     25  C   UNL     1      -3.745 -17.267   0.598  0.00  0.00    +0.000 C 
ATOM     26  C   UNL     1      -0.135 -18.865   3.353  0.00  0.00    +0.000 C 
ATOM     27  C   UNL     1      -2.421 -18.284   4.123  0.00  0.00    +0.000 C 
ATOM     28  C   UNL     1      -1.020 -18.682   4.498  0.00  0.00    +0.000 C 
ATOM     29  C   UNL     1      -0.877 -18.510   0.829  0.00  0.00    +0.000 C 
ATOM     30  C   UNL     1      -2.935 -17.616  -0.570  0.00  0.00    +0.000 C 
ATOM     31  C   UNL     1      -4.973 -17.800   2.746  0.00  0.00    +0.000 C 
ATOM     32  C   UNL     1      -4.041 -19.682   1.361  0.00  0.00    +0.000 C 
ATOM     33  C   UNL     1      -1.757 -18.093  -0.319  0.00  0.00    +0.000 C 
ATOM     34  C   UNL     1       1.096 -17.969   3.329  0.00  0.00    +0.000 C 
ATOM     35  C   UNL     1      -3.172 -17.066  -1.951  0.00  0.00    +0.000 C 
BRANCH  26  36
ATOM     36  O   UNL     1       0.313 -20.192   3.266  0.00  0.00    +0.000 OA
ATOM     37  H   UNL     1       0.498 -20.386   4.202  0.00  0.00    +0.000 HD
ENDBRANCH  26  36
ENDBRANCH  21  25
ENDBRANCH   3  20
TORSDOF 5
ENDMDL
