MODEL 1
REMARK VINA RESULT:      -3.4      0.000      0.000
REMARK  Name = 43806_Diaminocyclohexane.pdbqt.pdb
REMARK  2 active torsions:
REMARK  status: ('A' for Active; 'I' for Inactive)
REMARK    1  A    between atoms: C_1  and  N_7
REMARK    2  A    between atoms: C_2  and  N_10
REMARK                            x       y       z     vdW  Elec       q    Type
REMARK                         _______ _______ _______ _____ _____    ______ ____
ROOT
ATOM      1  C   UNL     1      -8.197 -32.954  -2.721  0.00  0.00    +0.000 A 
ATOM      2  C   UNL     1      -6.948 -33.004  -1.931  0.00  0.00    +0.000 A 
ATOM      3  C   UNL     1      -9.271 -32.222  -2.119  0.00  0.00    +0.000 A 
ATOM      4  C   UNL     1      -6.982 -32.285  -0.691  0.00  0.00    +0.000 A 
ATOM      5  C   UNL     1      -9.383 -31.440  -0.800  0.00  0.00    +0.000 A 
ATOM      6  C   UNL     1      -8.084 -31.474   0.008  0.00  0.00    +0.000 A 
ENDROOT
BRANCH   1   7
ATOM      7  N   UNL     1      -8.307 -33.519  -4.014  0.00  0.00    +0.000 N 
ATOM      8  H   UNL     1      -8.743 -34.435  -4.020  0.00  0.00    +0.000 HD
ATOM      9  H   UNL     1      -7.450 -33.495  -4.558  0.00  0.00    +0.000 HD
ENDBRANCH   1   7
BRANCH   2  10
ATOM     10  N   UNL     1      -5.824 -33.769  -2.323  0.00  0.00    +0.000 N 
ATOM     11  H   UNL     1      -5.433 -34.329  -1.573  0.00  0.00    +0.000 HD
ATOM     12  H   UNL     1      -5.114 -33.247  -2.826  0.00  0.00    +0.000 HD
ENDBRANCH   2  10
TORSDOF 2
ENDMDL
MODEL 2
REMARK VINA RESULT:      -3.3     19.716     19.910
REMARK  Name = 43806_Diaminocyclohexane.pdbqt.pdb
REMARK  2 active torsions:
REMARK  status: ('A' for Active; 'I' for Inactive)
REMARK    1  A    between atoms: C_1  and  N_7
REMARK    2  A    between atoms: C_2  and  N_10
REMARK                            x       y       z     vdW  Elec       q    Type
REMARK                         _______ _______ _______ _____ _____    ______ ____
ROOT
ATOM      1  C   UNL     1       1.240 -19.203 -11.799  0.00  0.00    +0.000 A 
ATOM      2  C   UNL     1       2.516 -18.761 -11.195  0.00  0.00    +0.000 A 
ATOM      3  C   UNL     1       0.464 -18.168 -12.414  0.00  0.00    +0.000 A 
ATOM      4  C   UNL     1       2.808 -17.365 -11.342  0.00  0.00    +0.000 A 
ATOM      5  C   UNL     1       0.707 -16.660 -12.599  0.00  0.00    +0.000 A 
ATOM      6  C   UNL     1       2.036 -16.207 -11.993  0.00  0.00    +0.000 A 
ENDROOT
BRANCH   1   7
ATOM      7  N   UNL     1       0.844 -20.561 -11.839  0.00  0.00    +0.000 N 
ATOM      8  H   UNL     1       0.235 -20.782 -12.621  0.00  0.00    +0.000 HD
ATOM      9  H   UNL     1       0.490 -20.923 -10.959  0.00  0.00    +0.000 HD
ENDBRANCH   1   7
BRANCH   2  10
ATOM     10  N   UNL     1       3.354 -19.629 -10.456  0.00  0.00    +0.000 N 
ATOM     11  H   UNL     1       3.464 -19.356  -9.485  0.00  0.00    +0.000 HD
ATOM     12  H   UNL     1       4.241 -19.838 -10.901  0.00  0.00    +0.000 HD
ENDBRANCH   2  10
TORSDOF 2
ENDMDL
MODEL 3
REMARK VINA RESULT:      -3.2      6.486      7.613
REMARK  Name = 43806_Diaminocyclohexane.pdbqt.pdb
REMARK  2 active torsions:
REMARK  status: ('A' for Active; 'I' for Inactive)
REMARK    1  A    between atoms: C_1  and  N_7
REMARK    2  A    between atoms: C_2  and  N_10
REMARK                            x       y       z     vdW  Elec       q    Type
REMARK                         _______ _______ _______ _____ _____    ______ ____
ROOT
ATOM      1  C   UNL     1      -4.163 -33.340  -6.849  0.00  0.00    +0.000 A 
ATOM      2  C   UNL     1      -4.058 -32.395  -7.983  0.00  0.00    +0.000 A 
ATOM      3  C   UNL     1      -4.923 -34.526  -7.112  0.00  0.00    +0.000 A 
ATOM      4  C   UNL     1      -4.704 -32.818  -9.190  0.00  0.00    +0.000 A 
ATOM      5  C   UNL     1      -5.648 -35.037  -8.368  0.00  0.00    +0.000 A 
ATOM      6  C   UNL     1      -5.521 -34.070  -9.546  0.00  0.00    +0.000 A 
ENDROOT
BRANCH   1   7
ATOM      7  N   UNL     1      -3.498 -33.133  -5.618  0.00  0.00    +0.000 N 
ATOM      8  H   UNL     1      -3.709 -33.840  -4.920  0.00  0.00    +0.000 HD
ATOM      9  H   UNL     1      -3.577 -32.190  -5.250  0.00  0.00    +0.000 HD
ENDBRANCH   1   7
BRANCH   2  10
ATOM     10  N   UNL     1      -3.436 -31.130  -7.868  0.00  0.00    +0.000 N 
ATOM     11  H   UNL     1      -4.013 -30.435  -7.405  0.00  0.00    +0.000 HD
ATOM     12  H   UNL     1      -3.029 -30.781  -8.730  0.00  0.00    +0.000 HD
ENDBRANCH   2  10
TORSDOF 2
ENDMDL
MODEL 4
REMARK VINA RESULT:      -3.2     20.228     20.473
REMARK  Name = 43806_Diaminocyclohexane.pdbqt.pdb
REMARK  2 active torsions:
REMARK  status: ('A' for Active; 'I' for Inactive)
REMARK    1  A    between atoms: C_1  and  N_7
REMARK    2  A    between atoms: C_2  and  N_10
REMARK                            x       y       z     vdW  Elec       q    Type
REMARK                         _______ _______ _______ _____ _____    ______ ____
ROOT
ATOM      1  C   UNL     1      -1.222 -14.644  -6.279  0.00  0.00    +0.000 A 
ATOM      2  C   UNL     1       0.018 -14.820  -5.491  0.00  0.00    +0.000 A 
ATOM      3  C   UNL     1      -1.157 -13.646  -7.304  0.00  0.00    +0.000 A 
ATOM      4  C   UNL     1       1.115 -13.989  -5.889  0.00  0.00    +0.000 A 
ATOM      5  C   UNL     1      -0.027 -12.717  -7.778  0.00  0.00    +0.000 A 
ATOM      6  C   UNL     1       1.261 -12.913  -6.977  0.00  0.00    +0.000 A 
ENDROOT
BRANCH   1   7
ATOM      7  N   UNL     1      -2.367 -15.454  -6.092  0.00  0.00    +0.000 N 
ATOM      8  H   UNL     1      -2.935 -15.551  -6.928  0.00  0.00    +0.000 HD
ATOM      9  H   UNL     1      -2.921 -15.219  -5.274  0.00  0.00    +0.000 HD
ENDBRANCH   1   7
BRANCH   2  10
ATOM     10  N   UNL     1       0.098 -15.685  -4.374  0.00  0.00    +0.000 N 
ATOM     11  H   UNL     1      -0.771 -16.170  -4.174  0.00  0.00    +0.000 HD
ATOM     12  H   UNL     1       0.505 -15.265  -3.545  0.00  0.00    +0.000 HD
ENDBRANCH   2  10
TORSDOF 2
ENDMDL
MODEL 5
REMARK VINA RESULT:      -2.9     19.835     20.123
REMARK  Name = 43806_Diaminocyclohexane.pdbqt.pdb
REMARK  2 active torsions:
REMARK  status: ('A' for Active; 'I' for Inactive)
REMARK    1  A    between atoms: C_1  and  N_7
REMARK    2  A    between atoms: C_2  and  N_10
REMARK                            x       y       z     vdW  Elec       q    Type
REMARK                         _______ _______ _______ _____ _____    ______ ____
ROOT
ATOM      1  C   UNL     1       0.893 -17.581 -12.556  0.00  0.00    +0.000 A 
ATOM      2  C   UNL     1       1.225 -18.932 -12.053  0.00  0.00    +0.000 A 
ATOM      3  C   UNL     1       0.369 -17.538 -13.889  0.00  0.00    +0.000 A 
ATOM      4  C   UNL     1       0.943 -20.005 -12.960  0.00  0.00    +0.000 A 
ATOM      5  C   UNL     1       0.052 -18.637 -14.916  0.00  0.00    +0.000 A 
ATOM      6  C   UNL     1       0.376 -20.036 -14.387  0.00  0.00    +0.000 A 
ENDROOT
BRANCH   1   7
ATOM      7  N   UNL     1       1.007 -16.418 -11.757  0.00  0.00    +0.000 N 
ATOM      8  H   UNL     1       1.078 -15.562 -12.297  0.00  0.00    +0.000 HD
ATOM      9  H   UNL     1       1.711 -16.476 -11.028  0.00  0.00    +0.000 HD
ENDBRANCH   1   7
BRANCH   2  10
ATOM     10  N   UNL     1       1.849 -19.150 -10.802  0.00  0.00    +0.000 N 
ATOM     11  H   UNL     1       2.589 -18.487 -10.597  0.00  0.00    +0.000 HD
ATOM     12  H   UNL     1       2.133 -20.109 -10.635  0.00  0.00    +0.000 HD
ENDBRANCH   2  10
TORSDOF 2
ENDMDL
MODEL 6
REMARK VINA RESULT:      -2.8     19.567     19.851
REMARK  Name = 43806_Diaminocyclohexane.pdbqt.pdb
REMARK  2 active torsions:
REMARK  status: ('A' for Active; 'I' for Inactive)
REMARK    1  A    between atoms: C_1  and  N_7
REMARK    2  A    between atoms: C_2  and  N_10
REMARK                            x       y       z     vdW  Elec       q    Type
REMARK                         _______ _______ _______ _____ _____    ______ ____
ROOT
ATOM      1  C   UNL     1      -1.066 -14.458  -6.099  0.00  0.00    +0.000 A 
ATOM      2  C   UNL     1       0.411 -14.554  -6.118  0.00  0.00    +0.000 A 
ATOM      3  C   UNL     1      -1.674 -14.677  -4.821  0.00  0.00    +0.000 A 
ATOM      4  C   UNL     1       1.020 -14.820  -4.849  0.00  0.00    +0.000 A 
ATOM      5  C   UNL     1      -1.090 -14.975  -3.430  0.00  0.00    +0.000 A 
ATOM      6  C   UNL     1       0.438 -15.053  -3.446  0.00  0.00    +0.000 A 
ENDROOT
BRANCH   1   7
ATOM      7  N   UNL     1      -1.823 -14.098  -7.239  0.00  0.00    +0.000 N 
ATOM      8  H   UNL     1      -1.403 -14.394  -8.114  0.00  0.00    +0.000 HD
ATOM      9  H   UNL     1      -2.116 -13.126  -7.260  0.00  0.00    +0.000 HD
ENDBRANCH   1   7
BRANCH   2  10
ATOM     10  N   UNL     1       1.167 -14.471  -7.311  0.00  0.00    +0.000 N 
ATOM     11  H   UNL     1       1.318 -13.519  -7.630  0.00  0.00    +0.000 HD
ATOM     12  H   UNL     1       0.847 -15.081  -8.056  0.00  0.00    +0.000 HD
ENDBRANCH   2  10
TORSDOF 2
ENDMDL
MODEL 7
REMARK VINA RESULT:      -2.8     26.652     26.971
REMARK  Name = 43806_Diaminocyclohexane.pdbqt.pdb
REMARK  2 active torsions:
REMARK  status: ('A' for Active; 'I' for Inactive)
REMARK    1  A    between atoms: C_1  and  N_7
REMARK    2  A    between atoms: C_2  and  N_10
REMARK                            x       y       z     vdW  Elec       q    Type
REMARK                         _______ _______ _______ _____ _____    ______ ____
ROOT
ATOM      1  C   UNL     1     -11.690  -6.399  -7.341  0.00  0.00    +0.000 A 
ATOM      2  C   UNL     1     -10.675  -6.409  -6.265  0.00  0.00    +0.000 A 
ATOM      3  C   UNL     1     -13.037  -6.177  -6.907  0.00  0.00    +0.000 A 
ATOM      4  C   UNL     1     -11.181  -6.162  -4.948  0.00  0.00    +0.000 A 
ATOM      5  C   UNL     1     -13.651  -5.918  -5.522  0.00  0.00    +0.000 A 
ATOM      6  C   UNL     1     -12.598  -5.907  -4.412  0.00  0.00    +0.000 A 
ENDROOT
BRANCH   1   7
ATOM      7  N   UNL     1     -11.354  -6.520  -8.711  0.00  0.00    +0.000 N 
ATOM      8  H   UNL     1     -12.162  -6.560  -9.324  0.00  0.00    +0.000 HD
ATOM      9  H   UNL     1     -10.677  -7.248  -8.915  0.00  0.00    +0.000 HD
ENDBRANCH   1   7
BRANCH   2  10
ATOM     10  N   UNL     1      -9.314  -6.717  -6.501  0.00  0.00    +0.000 N 
ATOM     11  H   UNL     1      -9.096  -6.870  -7.480  0.00  0.00    +0.000 HD
ATOM     12  H   UNL     1      -8.938  -7.446  -5.904  0.00  0.00    +0.000 HD
ENDBRANCH   2  10
TORSDOF 2
ENDMDL
MODEL 8
REMARK VINA RESULT:      -2.8     11.327     12.363
REMARK  Name = 43806_Diaminocyclohexane.pdbqt.pdb
REMARK  2 active torsions:
REMARK  status: ('A' for Active; 'I' for Inactive)
REMARK    1  A    between atoms: C_1  and  N_7
REMARK    2  A    between atoms: C_2  and  N_10
REMARK                            x       y       z     vdW  Elec       q    Type
REMARK                         _______ _______ _______ _____ _____    ______ ____
ROOT
ATOM      1  C   UNL     1       3.107 -31.776   1.301  0.00  0.00    +0.000 A 
ATOM      2  C   UNL     1       3.575 -30.821   0.273  0.00  0.00    +0.000 A 
ATOM      3  C   UNL     1       3.708 -31.626   2.592  0.00  0.00    +0.000 A 
ATOM      4  C   UNL     1       4.539 -29.862   0.727  0.00  0.00    +0.000 A 
ATOM      5  C   UNL     1       4.746 -30.636   3.145  0.00  0.00    +0.000 A 
ATOM      6  C   UNL     1       5.215 -29.635   2.088  0.00  0.00    +0.000 A 
ENDROOT
BRANCH   1   7
ATOM      7  N   UNL     1       2.083 -32.721   1.055  0.00  0.00    +0.000 N 
ATOM      8  H   UNL     1       2.034 -33.456   1.754  0.00  0.00    +0.000 HD
ATOM      9  H   UNL     1       2.064 -33.086   0.108  0.00  0.00    +0.000 HD
ENDBRANCH   1   7
BRANCH   2  10
ATOM     10  N   UNL     1       3.168 -30.892  -1.080  0.00  0.00    +0.000 N 
ATOM     11  H   UNL     1       3.511 -31.715  -1.564  0.00  0.00    +0.000 HD
ATOM     12  H   UNL     1       3.319 -30.041  -1.611  0.00  0.00    +0.000 HD
ENDBRANCH   2  10
TORSDOF 2
ENDMDL
MODEL 9
REMARK VINA RESULT:      -2.8     16.855     17.617
REMARK  Name = 43806_Diaminocyclohexane.pdbqt.pdb
REMARK  2 active torsions:
REMARK  status: ('A' for Active; 'I' for Inactive)
REMARK    1  A    between atoms: C_1  and  N_7
REMARK    2  A    between atoms: C_2  and  N_10
REMARK                            x       y       z     vdW  Elec       q    Type
REMARK                         _______ _______ _______ _____ _____    ______ ____
ROOT
ATOM      1  C   UNL     1      -9.225 -16.300   1.578  0.00  0.00    +0.000 A 
ATOM      2  C   UNL     1      -9.093 -14.840   1.378  0.00  0.00    +0.000 A 
ATOM      3  C   UNL     1     -10.546 -16.825   1.394  0.00  0.00    +0.000 A 
ATOM      4  C   UNL     1     -10.299 -14.167   0.996  0.00  0.00    +0.000 A 
ATOM      5  C   UNL     1     -11.878 -16.166   0.998  0.00  0.00    +0.000 A 
ATOM      6  C   UNL     1     -11.737 -14.660   0.771  0.00  0.00    +0.000 A 
ENDROOT
BRANCH   1   7
ATOM      7  N   UNL     1      -8.118 -17.137   1.854  0.00  0.00    +0.000 N 
ATOM      8  H   UNL     1      -7.688 -17.527   1.022  0.00  0.00    +0.000 HD
ATOM      9  H   UNL     1      -8.288 -17.839   2.567  0.00  0.00    +0.000 HD
ENDBRANCH   1   7
BRANCH   2  10
ATOM     10  N   UNL     1      -7.888 -14.141   1.622  0.00  0.00    +0.000 N 
ATOM     11  H   UNL     1      -7.928 -13.534   2.434  0.00  0.00    +0.000 HD
ATOM     12  H   UNL     1      -7.501 -13.673   0.809  0.00  0.00    +0.000 HD
ENDBRANCH   2  10
TORSDOF 2
ENDMDL
