MODEL 1
REMARK VINA RESULT:      -6.2      0.000      0.000
REMARK  Name = 44234954_SipholenolL.pdbqt.pdb
REMARK  5 active torsions:
REMARK  status: ('A' for Active; 'I' for Inactive)
REMARK    1  A    between atoms: C_3  and  C_20
REMARK    2  A    between atoms: C_4  and  O_16
REMARK    3  A    between atoms: C_13  and  O_18
REMARK    4  A    between atoms: C_21  and  C_25
REMARK    5  A    between atoms: C_26  and  O_36
REMARK                            x       y       z     vdW  Elec       q    Type
REMARK                         _______ _______ _______ _____ _____    ______ ____
ROOT
ATOM      1  O   UNL     1      -4.317  -8.284 -12.239  0.00  0.00    +0.000 OA
ATOM      2  C   UNL     1      -5.401  -9.927 -13.948  0.00  0.00    +0.000 C 
ATOM      3  C   UNL     1      -6.746 -10.454 -14.453  0.00  0.00    +0.000 C 
ATOM      4  C   UNL     1      -7.863  -9.476 -14.768  0.00  0.00    +0.000 C 
ATOM      5  C   UNL     1      -5.461  -8.711 -12.922  0.00  0.00    +0.000 C 
ATOM      6  C   UNL     1      -4.705 -10.940 -13.140  0.00  0.00    +0.000 C 
ATOM      7  C   UNL     1      -7.652  -8.270 -13.990  0.00  0.00    +0.000 C 
ATOM      8  C   UNL     1      -6.551  -7.831 -13.083  0.00  0.00    +0.000 C 
ATOM      9  C   UNL     1      -4.516  -9.508 -15.151  0.00  0.00    +0.000 C 
ATOM     10  C   UNL     1      -3.919 -11.083 -11.861  0.00  0.00    +0.000 C 
ATOM     11  C   UNL     1      -4.082  -8.737 -10.857  0.00  0.00    +0.000 C 
ATOM     12  C   UNL     1      -8.010  -9.237 -16.267  0.00  0.00    +0.000 C 
ATOM     13  C   UNL     1      -3.559 -10.212 -10.807  0.00  0.00    +0.000 C 
ATOM     14  C   UNL     1      -2.987  -7.794 -10.290  0.00  0.00    +0.000 C 
ATOM     15  C   UNL     1      -5.386  -8.640 -10.005  0.00  0.00    +0.000 C 
ENDROOT
BRANCH   4  16
ATOM     16  O   UNL     1      -9.092 -10.047 -14.368  0.00  0.00    +0.000 OA
ATOM     17  H   UNL     1      -9.714  -9.558 -14.938  0.00  0.00    +0.000 HD
ENDBRANCH   4  16
BRANCH  13  18
ATOM     18  O   UNL     1      -2.955 -10.740  -9.672  0.00  0.00    +0.000 OA
ATOM     19  H   UNL     1      -3.138 -11.689  -9.561  0.00  0.00    +0.000 HD
ENDBRANCH  13  18
BRANCH   3  20
ATOM     20  C   UNL     1      -6.943 -11.858 -14.694  0.00  0.00    +0.000 C 
ATOM     21  C   UNL     1      -7.150 -13.348 -14.984  0.00  0.00    +0.000 C 
BRANCH  21  25
ATOM     22  C   UNL     1      -6.107 -15.600 -15.696  0.00  0.00    +0.000 A 
ATOM     23  C   UNL     1      -6.321 -17.131 -16.013  0.00  0.00    +0.000 A 
ATOM     24  C   UNL     1      -4.678 -14.920 -15.795  0.00  0.00    +0.000 C 
ATOM     25  C   UNL     1      -7.321 -14.731 -15.301  0.00  0.00    +0.000 A 
ATOM     26  C   UNL     1      -5.256 -18.183 -16.399  0.00  0.00    +0.000 C 
ATOM     27  C   UNL     1      -3.776 -15.996 -16.217  0.00  0.00    +0.000 C 
ATOM     28  C   UNL     1      -4.005 -17.456 -16.499  0.00  0.00    +0.000 C 
ATOM     29  C   UNL     1      -7.704 -17.469 -15.938  0.00  0.00    +0.000 A 
ATOM     30  C   UNL     1      -8.711 -15.263 -15.243  0.00  0.00    +0.000 A 
ATOM     31  C   UNL     1      -4.247 -14.409 -14.399  0.00  0.00    +0.000 C 
ATOM     32  C   UNL     1      -4.693 -13.817 -16.874  0.00  0.00    +0.000 C 
ATOM     33  C   UNL     1      -8.799 -16.516 -15.557  0.00  0.00    +0.000 A 
ATOM     34  C   UNL     1      -5.215 -19.326 -15.394  0.00  0.00    +0.000 C 
ATOM     35  C   UNL     1      -9.921 -14.530 -14.742  0.00  0.00    +0.000 C 
BRANCH  26  36
ATOM     36  O   UNL     1      -5.578 -18.742 -17.647  0.00  0.00    +0.000 OA
ATOM     37  H   UNL     1      -6.049 -17.999 -18.066  0.00  0.00    +0.000 HD
ENDBRANCH  26  36
ENDBRANCH  21  25
ENDBRANCH   3  20
TORSDOF 5
ENDMDL
MODEL 2
REMARK VINA RESULT:      -6.1     21.283     26.441
REMARK  Name = 44234954_SipholenolL.pdbqt.pdb
REMARK  5 active torsions:
REMARK  status: ('A' for Active; 'I' for Inactive)
REMARK    1  A    between atoms: C_3  and  C_20
REMARK    2  A    between atoms: C_4  and  O_16
REMARK    3  A    between atoms: C_13  and  O_18
REMARK    4  A    between atoms: C_21  and  C_25
REMARK    5  A    between atoms: C_26  and  O_36
REMARK                            x       y       z     vdW  Elec       q    Type
REMARK                         _______ _______ _______ _____ _____    ______ ____
ROOT
ATOM      1  O   UNL     1       2.223 -40.641  -9.055  0.00  0.00    +0.000 OA
ATOM      2  C   UNL     1       0.889 -38.573  -9.914  0.00  0.00    +0.000 C 
ATOM      3  C   UNL     1       0.988 -37.064 -10.146  0.00  0.00    +0.000 C 
ATOM      4  C   UNL     1       2.214 -36.491 -10.834  0.00  0.00    +0.000 C 
ATOM      5  C   UNL     1       2.234 -39.312  -9.491  0.00  0.00    +0.000 C 
ATOM      6  C   UNL     1       0.029 -38.876  -8.760  0.00  0.00    +0.000 C 
ATOM      7  C   UNL     1       3.324 -37.404 -10.634  0.00  0.00    +0.000 C 
ATOM      8  C   UNL     1       3.424 -38.751  -9.999  0.00  0.00    +0.000 C 
ATOM      9  C   UNL     1       0.332 -39.264 -11.186  0.00  0.00    +0.000 C 
ATOM     10  C   UNL     1      -0.031 -39.764  -7.543  0.00  0.00    +0.000 C 
ATOM     11  C   UNL     1       2.241 -40.935  -7.612  0.00  0.00    +0.000 C 
ATOM     12  C   UNL     1       1.942 -36.148 -12.296  0.00  0.00    +0.000 C 
ATOM     13  C   UNL     1       0.839 -40.709  -6.952  0.00  0.00    +0.000 C 
ATOM     14  C   UNL     1       2.616 -42.437  -7.496  0.00  0.00    +0.000 C 
ATOM     15  C   UNL     1       3.291 -40.048  -6.872  0.00  0.00    +0.000 C 
ENDROOT
BRANCH   4  16
ATOM     16  O   UNL     1       2.543 -35.259 -10.226  0.00  0.00    +0.000 OA
ATOM     17  H   UNL     1       2.152 -34.632 -10.863  0.00  0.00    +0.000 HD
ENDBRANCH   4  16
BRANCH  13  18
ATOM     18  O   UNL     1       0.521 -41.230  -5.703  0.00  0.00    +0.000 OA
ATOM     19  H   UNL     1       0.748 -42.174  -5.626  0.00  0.00    +0.000 HD
ENDBRANCH  13  18
BRANCH   3  20
ATOM     20  C   UNL     1      -0.091 -36.190  -9.776  0.00  0.00    +0.000 C 
ATOM     21  C   UNL     1      -1.264 -35.280  -9.397  0.00  0.00    +0.000 C 
BRANCH  21  25
ATOM     22  C   UNL     1      -3.593 -35.082  -8.300  0.00  0.00    +0.000 A 
ATOM     23  C   UNL     1      -4.810 -34.159  -7.905  0.00  0.00    +0.000 A 
ATOM     24  C   UNL     1      -3.579 -36.632  -7.966  0.00  0.00    +0.000 C 
ATOM     25  C   UNL     1      -2.390 -34.470  -9.051  0.00  0.00    +0.000 A 
ATOM     26  C   UNL     1      -6.093 -34.549  -7.136  0.00  0.00    +0.000 C 
ATOM     27  C   UNL     1      -4.858 -36.885  -7.294  0.00  0.00    +0.000 C 
ATOM     28  C   UNL     1      -5.998 -35.979  -6.916  0.00  0.00    +0.000 C 
ATOM     29  C   UNL     1      -4.613 -32.835  -8.396  0.00  0.00    +0.000 A 
ATOM     30  C   UNL     1      -2.338 -33.041  -9.465  0.00  0.00    +0.000 A 
ATOM     31  C   UNL     1      -2.418 -36.945  -6.992  0.00  0.00    +0.000 C 
ATOM     32  C   UNL     1      -3.521 -37.452  -9.272  0.00  0.00    +0.000 C 
ATOM     33  C   UNL     1      -3.394 -32.367  -9.136  0.00  0.00    +0.000 A 
ATOM     34  C   UNL     1      -6.235 -33.747  -5.850  0.00  0.00    +0.000 C 
ATOM     35  C   UNL     1      -1.161 -32.336 -10.073  0.00  0.00    +0.000 C 
BRANCH  26  36
ATOM     36  O   UNL     1      -7.219 -34.266  -7.926  0.00  0.00    +0.000 OA
ATOM     37  H   UNL     1      -7.933 -34.354  -7.269  0.00  0.00    +0.000 HD
ENDBRANCH  26  36
ENDBRANCH  21  25
ENDBRANCH   3  20
TORSDOF 5
ENDMDL
MODEL 3
REMARK VINA RESULT:      -5.9     18.815     20.870
REMARK  Name = 44234954_SipholenolL.pdbqt.pdb
REMARK  5 active torsions:
REMARK  status: ('A' for Active; 'I' for Inactive)
REMARK    1  A    between atoms: C_3  and  C_20
REMARK    2  A    between atoms: C_4  and  O_16
REMARK    3  A    between atoms: C_13  and  O_18
REMARK    4  A    between atoms: C_21  and  C_25
REMARK    5  A    between atoms: C_26  and  O_36
REMARK                            x       y       z     vdW  Elec       q    Type
REMARK                         _______ _______ _______ _____ _____    ______ ____
ROOT
ATOM      1  O   UNL     1      -8.972 -19.840   7.832  0.00  0.00    +0.000 OA
ATOM      2  C   UNL     1     -10.988 -19.687   6.188  0.00  0.00    +0.000 C 
ATOM      3  C   UNL     1     -11.875 -20.519   5.259  0.00  0.00    +0.000 C 
ATOM      4  C   UNL     1     -12.447 -21.836   5.752  0.00  0.00    +0.000 C 
ATOM      5  C   UNL     1      -9.967 -20.497   7.102  0.00  0.00    +0.000 C 
ATOM      6  C   UNL     1     -10.064 -18.841   5.419  0.00  0.00    +0.000 C 
ATOM      7  C   UNL     1     -11.587 -22.347   6.804  0.00  0.00    +0.000 C 
ATOM      8  C   UNL     1     -10.388 -21.785   7.492  0.00  0.00    +0.000 C 
ATOM      9  C   UNL     1     -11.874 -18.805   7.107  0.00  0.00    +0.000 C 
ATOM     10  C   UNL     1      -8.623 -18.395   5.398  0.00  0.00    +0.000 C 
ATOM     11  C   UNL     1      -7.602 -19.769   7.296  0.00  0.00    +0.000 C 
ATOM     12  C   UNL     1     -13.915 -21.711   6.148  0.00  0.00    +0.000 C 
ATOM     13  C   UNL     1      -7.473 -18.698   6.161  0.00  0.00    +0.000 C 
ATOM     14  C   UNL     1      -6.707 -19.345   8.492  0.00  0.00    +0.000 C 
ATOM     15  C   UNL     1      -7.147 -21.152   6.734  0.00  0.00    +0.000 C 
ENDROOT
BRANCH   4  16
ATOM     16  O   UNL     1     -12.435 -22.764   4.686  0.00  0.00    +0.000 OA
ATOM     17  H   UNL     1     -11.486 -22.768   4.459  0.00  0.00    +0.000 HD
ENDBRANCH   4  16
BRANCH  13  18
ATOM     18  O   UNL     1      -6.239 -18.215   5.743  0.00  0.00    +0.000 OA
ATOM     19  H   UNL     1      -5.801 -18.812   5.109  0.00  0.00    +0.000 HD
ENDBRANCH  13  18
BRANCH   3  20
ATOM     20  C   UNL     1     -12.224 -20.040   3.949  0.00  0.00    +0.000 C 
ATOM     21  C   UNL     1     -12.626 -19.548   2.555  0.00  0.00    +0.000 C 
BRANCH  21  25
ATOM     22  C   UNL     1     -14.210 -19.809   0.534  0.00  0.00    +0.000 A 
ATOM     23  C   UNL     1     -14.676 -19.275  -0.877  0.00  0.00    +0.000 A 
ATOM     24  C   UNL     1     -14.888 -21.070   1.213  0.00  0.00    +0.000 C 
ATOM     25  C   UNL     1     -13.049 -19.101   1.265  0.00  0.00    +0.000 A 
ATOM     26  C   UNL     1     -15.821 -19.809  -1.768  0.00  0.00    +0.000 C 
ATOM     27  C   UNL     1     -15.909 -21.512   0.258  0.00  0.00    +0.000 C 
ATOM     28  C   UNL     1     -16.343 -20.974  -1.079  0.00  0.00    +0.000 C 
ATOM     29  C   UNL     1     -13.850 -18.193  -1.300  0.00  0.00    +0.000 A 
ATOM     30  C   UNL     1     -12.308 -17.949   0.681  0.00  0.00    +0.000 A 
ATOM     31  C   UNL     1     -15.573 -20.645   2.534  0.00  0.00    +0.000 C 
ATOM     32  C   UNL     1     -13.846 -22.194   1.397  0.00  0.00    +0.000 C 
ATOM     33  C   UNL     1     -12.729 -17.604  -0.494  0.00  0.00    +0.000 A 
ATOM     34  C   UNL     1     -16.870 -18.736  -2.024  0.00  0.00    +0.000 C 
ATOM     35  C   UNL     1     -11.265 -17.122   1.374  0.00  0.00    +0.000 C 
BRANCH  26  36
ATOM     36  O   UNL     1     -15.306 -20.190  -3.017  0.00  0.00    +0.000 OA
ATOM     37  H   UNL     1     -14.643 -20.853  -2.750  0.00  0.00    +0.000 HD
ENDBRANCH  26  36
ENDBRANCH  21  25
ENDBRANCH   3  20
TORSDOF 5
ENDMDL
MODEL 4
REMARK VINA RESULT:      -5.8     22.581     27.553
REMARK  Name = 44234954_SipholenolL.pdbqt.pdb
REMARK  5 active torsions:
REMARK  status: ('A' for Active; 'I' for Inactive)
REMARK    1  A    between atoms: C_3  and  C_20
REMARK    2  A    between atoms: C_4  and  O_16
REMARK    3  A    between atoms: C_13  and  O_18
REMARK    4  A    between atoms: C_21  and  C_25
REMARK    5  A    between atoms: C_26  and  O_36
REMARK                            x       y       z     vdW  Elec       q    Type
REMARK                         _______ _______ _______ _____ _____    ______ ____
ROOT
ATOM      1  O   UNL     1       1.019 -41.075  -5.244  0.00  0.00    +0.000 OA
ATOM      2  C   UNL     1      -0.969 -39.666  -6.169  0.00  0.00    +0.000 C 
ATOM      3  C   UNL     1      -1.329 -38.576  -7.181  0.00  0.00    +0.000 C 
ATOM      4  C   UNL     1      -0.807 -38.672  -8.602  0.00  0.00    +0.000 C 
ATOM      5  C   UNL     1       0.517 -40.233  -6.241  0.00  0.00    +0.000 C 
ATOM      6  C   UNL     1      -1.002 -39.144  -4.794  0.00  0.00    +0.000 C 
ATOM      7  C   UNL     1       0.405 -39.470  -8.596  0.00  0.00    +0.000 C 
ATOM      8  C   UNL     1       1.107 -40.233  -7.521  0.00  0.00    +0.000 C 
ATOM      9  C   UNL     1      -1.954 -40.857  -6.308  0.00  0.00    +0.000 C 
ATOM     10  C   UNL     1      -0.220 -39.184  -3.505  0.00  0.00    +0.000 C 
ATOM     11  C   UNL     1       1.858 -40.514  -4.171  0.00  0.00    +0.000 C 
ATOM     12  C   UNL     1      -1.876 -39.165  -9.573  0.00  0.00    +0.000 C 
ATOM     13  C   UNL     1       1.007 -39.756  -3.099  0.00  0.00    +0.000 C 
ATOM     14  C   UNL     1       2.545 -41.734  -3.499  0.00  0.00    +0.000 C 
ATOM     15  C   UNL     1       2.925 -39.533  -4.749  0.00  0.00    +0.000 C 
ENDROOT
BRANCH   4  16
ATOM     16  O   UNL     1      -0.475 -37.375  -9.053  0.00  0.00    +0.000 OA
ATOM     17  H   UNL     1      -0.906 -36.829  -8.369  0.00  0.00    +0.000 HD
ENDBRANCH   4  16
BRANCH  13  18
ATOM     18  O   UNL     1       1.516 -39.440  -1.845  0.00  0.00    +0.000 OA
ATOM     19  H   UNL     1       2.435 -39.740  -1.730  0.00  0.00    +0.000 HD
ENDBRANCH  13  18
BRANCH   3  20
ATOM     20  C   UNL     1      -2.206 -37.495  -6.818  0.00  0.00    +0.000 C 
ATOM     21  C   UNL     1      -3.157 -36.348  -6.464  0.00  0.00    +0.000 C 
BRANCH  21  25
ATOM     22  C   UNL     1      -5.144 -35.473  -5.068  0.00  0.00    +0.000 A 
ATOM     23  C   UNL     1      -6.128 -34.283  -4.742  0.00  0.00    +0.000 A 
ATOM     24  C   UNL     1      -5.237 -36.862  -4.310  0.00  0.00    +0.000 C 
ATOM     25  C   UNL     1      -4.076 -35.294  -6.168  0.00  0.00    +0.000 A 
ATOM     26  C   UNL     1      -7.245 -34.233  -3.675  0.00  0.00    +0.000 C 
ATOM     27  C   UNL     1      -6.356 -36.708  -3.374  0.00  0.00    +0.000 C 
ATOM     28  C   UNL     1      -7.271 -35.552  -3.073  0.00  0.00    +0.000 C 
ATOM     29  C   UNL     1      -5.893 -33.185  -5.621  0.00  0.00    +0.000 A 
ATOM     30  C   UNL     1      -3.951 -34.051  -6.978  0.00  0.00    +0.000 A 
ATOM     31  C   UNL     1      -3.934 -37.109  -3.513  0.00  0.00    +0.000 C 
ATOM     32  C   UNL     1      -5.566 -37.989  -5.312  0.00  0.00    +0.000 C 
ATOM     33  C   UNL     1      -4.823 -33.143  -6.673  0.00  0.00    +0.000 A 
ATOM     34  C   UNL     1      -7.005 -33.114  -2.671  0.00  0.00    +0.000 C 
ATOM     35  C   UNL     1      -2.865 -33.742  -7.967  0.00  0.00    +0.000 C 
BRANCH  26  36
ATOM     36  O   UNL     1      -8.478 -33.973  -4.296  0.00  0.00    +0.000 OA
ATOM     37  H   UNL     1      -8.837 -34.876  -4.380  0.00  0.00    +0.000 HD
ENDBRANCH  26  36
ENDBRANCH  21  25
ENDBRANCH   3  20
TORSDOF 5
ENDMDL
MODEL 5
REMARK VINA RESULT:      -5.6     15.527     19.967
REMARK  Name = 44234954_SipholenolL.pdbqt.pdb
REMARK  5 active torsions:
REMARK  status: ('A' for Active; 'I' for Inactive)
REMARK    1  A    between atoms: C_3  and  C_20
REMARK    2  A    between atoms: C_4  and  O_16
REMARK    3  A    between atoms: C_13  and  O_18
REMARK    4  A    between atoms: C_21  and  C_25
REMARK    5  A    between atoms: C_26  and  O_36
REMARK                            x       y       z     vdW  Elec       q    Type
REMARK                         _______ _______ _______ _____ _____    ______ ____
ROOT
ATOM      1  O   UNL     1       5.861 -23.455 -12.856  0.00  0.00    +0.000 OA
ATOM      2  C   UNL     1       6.095 -25.909 -12.011  0.00  0.00    +0.000 C 
ATOM      3  C   UNL     1       5.405 -27.275 -12.015  0.00  0.00    +0.000 C 
ATOM      4  C   UNL     1       4.855 -27.832 -13.315  0.00  0.00    +0.000 C 
ATOM      5  C   UNL     1       5.445 -24.787 -12.935  0.00  0.00    +0.000 C 
ATOM      6  C   UNL     1       6.000 -25.271 -10.689  0.00  0.00    +0.000 C 
ATOM      7  C   UNL     1       4.570 -26.724 -14.208  0.00  0.00    +0.000 C 
ATOM      8  C   UNL     1       4.806 -25.254 -14.102  0.00  0.00    +0.000 C 
ATOM      9  C   UNL     1       7.584 -26.072 -12.415  0.00  0.00    +0.000 C 
ATOM     10  C   UNL     1       5.715 -23.936 -10.049  0.00  0.00    +0.000 C 
ATOM     11  C   UNL     1       5.079 -22.493 -12.060  0.00  0.00    +0.000 C 
ATOM     12  C   UNL     1       5.767 -28.899 -13.912  0.00  0.00    +0.000 C 
ATOM     13  C   UNL     1       5.333 -22.661 -10.525  0.00  0.00    +0.000 C 
ATOM     14  C   UNL     1       5.572 -21.088 -12.501  0.00  0.00    +0.000 C 
ATOM     15  C   UNL     1       3.551 -22.650 -12.334  0.00  0.00    +0.000 C 
ENDROOT
BRANCH   4  16
ATOM     16  O   UNL     1       3.640 -28.501 -13.044  0.00  0.00    +0.000 OA
ATOM     17  H   UNL     1       3.021 -27.981 -13.589  0.00  0.00    +0.000 HD
ENDBRANCH   4  16
BRANCH  13  18
ATOM     18  O   UNL     1       4.984 -21.676  -9.609  0.00  0.00    +0.000 OA
ATOM     19  H   UNL     1       5.663 -21.548  -8.924  0.00  0.00    +0.000 HD
ENDBRANCH  13  18
BRANCH   3  20
ATOM     20  C   UNL     1       5.326 -28.063 -10.815  0.00  0.00    +0.000 C 
ATOM     21  C   UNL     1       5.237 -28.873  -9.518  0.00  0.00    +0.000 C 
BRANCH  21  25
ATOM     22  C   UNL     1       6.216 -29.441  -7.197  0.00  0.00    +0.000 A 
ATOM     23  C   UNL     1       6.058 -30.222  -5.835  0.00  0.00    +0.000 A 
ATOM     24  C   UNL     1       7.474 -28.523  -7.491  0.00  0.00    +0.000 C 
ATOM     25  C   UNL     1       5.130 -29.590  -8.286  0.00  0.00    +0.000 A 
ATOM     26  C   UNL     1       7.000 -30.201  -4.609  0.00  0.00    +0.000 C 
ATOM     27  C   UNL     1       8.308 -28.628  -6.290  0.00  0.00    +0.000 C 
ATOM     28  C   UNL     1       8.125 -29.372  -4.994  0.00  0.00    +0.000 C 
ATOM     29  C   UNL     1       4.891 -31.041  -5.860  0.00  0.00    +0.000 A 
ATOM     30  C   UNL     1       3.945 -30.478  -8.129  0.00  0.00    +0.000 A 
ATOM     31  C   UNL     1       7.017 -27.055  -7.670  0.00  0.00    +0.000 C 
ATOM     32  C   UNL     1       8.257 -29.073  -8.702  0.00  0.00    +0.000 C 
ATOM     33  C   UNL     1       3.917 -31.110  -6.999  0.00  0.00    +0.000 A 
ATOM     34  C   UNL     1       6.278 -29.704  -3.364  0.00  0.00    +0.000 C 
ATOM     35  C   UNL     1       2.782 -30.579  -9.072  0.00  0.00    +0.000 C 
BRANCH  26  36
ATOM     36  O   UNL     1       7.445 -31.505  -4.336  0.00  0.00    +0.000 OA
ATOM     37  H   UNL     1       6.601 -31.950  -4.136  0.00  0.00    +0.000 HD
ENDBRANCH  26  36
ENDBRANCH  21  25
ENDBRANCH   3  20
TORSDOF 5
ENDMDL
MODEL 6
REMARK VINA RESULT:      -5.6     22.193     27.481
REMARK  Name = 44234954_SipholenolL.pdbqt.pdb
REMARK  5 active torsions:
REMARK  status: ('A' for Active; 'I' for Inactive)
REMARK    1  A    between atoms: C_3  and  C_20
REMARK    2  A    between atoms: C_4  and  O_16
REMARK    3  A    between atoms: C_13  and  O_18
REMARK    4  A    between atoms: C_21  and  C_25
REMARK    5  A    between atoms: C_26  and  O_36
REMARK                            x       y       z     vdW  Elec       q    Type
REMARK                         _______ _______ _______ _____ _____    ______ ____
ROOT
ATOM      1  O   UNL     1      -2.974 -39.823   0.117  0.00  0.00    +0.000 OA
ATOM      2  C   UNL     1      -2.971 -39.180  -2.409  0.00  0.00    +0.000 C 
ATOM      3  C   UNL     1      -2.053 -38.818  -3.578  0.00  0.00    +0.000 C 
ATOM      4  C   UNL     1      -0.818 -39.658  -3.847  0.00  0.00    +0.000 C 
ATOM      5  C   UNL     1      -2.255 -39.665  -1.073  0.00  0.00    +0.000 C 
ATOM      6  C   UNL     1      -3.699 -37.998  -1.922  0.00  0.00    +0.000 C 
ATOM      7  C   UNL     1      -0.418 -40.300  -2.609  0.00  0.00    +0.000 C 
ATOM      8  C   UNL     1      -1.033 -40.346  -1.249  0.00  0.00    +0.000 C 
ATOM      9  C   UNL     1      -3.976 -40.276  -2.850  0.00  0.00    +0.000 C 
ATOM     10  C   UNL     1      -4.107 -37.318  -0.639  0.00  0.00    +0.000 C 
ATOM     11  C   UNL     1      -2.949 -38.754   1.130  0.00  0.00    +0.000 C 
ATOM     12  C   UNL     1      -1.021 -40.619  -5.014  0.00  0.00    +0.000 C 
ATOM     13  C   UNL     1      -3.873 -37.554   0.735  0.00  0.00    +0.000 C 
ATOM     14  C   UNL     1      -3.495 -39.401   2.432  0.00  0.00    +0.000 C 
ATOM     15  C   UNL     1      -1.499 -38.220   1.348  0.00  0.00    +0.000 C 
ENDROOT
BRANCH   4  16
ATOM     16  O   UNL     1       0.231 -38.805  -4.257  0.00  0.00    +0.000 OA
ATOM     17  H   UNL     1      -0.232 -37.947  -4.283  0.00  0.00    +0.000 HD
ENDBRANCH   4  16
BRANCH  13  18
ATOM     18  O   UNL     1      -4.275 -36.599   1.661  0.00  0.00    +0.000 OA
ATOM     19  H   UNL     1      -3.535 -36.048   1.972  0.00  0.00    +0.000 HD
ENDBRANCH  13  18
BRANCH   3  20
ATOM     20  C   UNL     1      -2.378 -37.732  -4.462  0.00  0.00    +0.000 C 
ATOM     21  C   UNL     1      -2.698 -36.584  -5.424  0.00  0.00    +0.000 C 
BRANCH  21  25
ATOM     22  C   UNL     1      -3.156 -35.854  -7.858  0.00  0.00    +0.000 A 
ATOM     23  C   UNL     1      -3.484 -34.682  -8.862  0.00  0.00    +0.000 A 
ATOM     24  C   UNL     1      -2.990 -37.352  -8.350  0.00  0.00    +0.000 C 
ATOM     25  C   UNL     1      -2.970 -35.536  -6.358  0.00  0.00    +0.000 A 
ATOM     26  C   UNL     1      -3.734 -34.773 -10.386  0.00  0.00    +0.000 C 
ATOM     27  C   UNL     1      -3.193 -37.298  -9.801  0.00  0.00    +0.000 C 
ATOM     28  C   UNL     1      -3.520 -36.164 -10.735  0.00  0.00    +0.000 C 
ATOM     29  C   UNL     1      -3.493 -33.429  -8.183  0.00  0.00    +0.000 A 
ATOM     30  C   UNL     1      -3.044 -34.154  -5.810  0.00  0.00    +0.000 A 
ATOM     31  C   UNL     1      -4.088 -38.236  -7.711  0.00  0.00    +0.000 C 
ATOM     32  C   UNL     1      -1.557 -37.847  -8.057  0.00  0.00    +0.000 C 
ATOM     33  C   UNL     1      -3.276 -33.251  -6.709  0.00  0.00    +0.000 A 
ATOM     34  C   UNL     1      -5.120 -34.262 -10.752  0.00  0.00    +0.000 C 
ATOM     35  C   UNL     1      -3.010 -33.773  -4.359  0.00  0.00    +0.000 C 
BRANCH  26  36
ATOM     36  O   UNL     1      -2.804 -33.968 -11.063  0.00  0.00    +0.000 OA
ATOM     37  H   UNL     1      -3.228 -33.891 -11.937  0.00  0.00    +0.000 HD
ENDBRANCH  26  36
ENDBRANCH  21  25
ENDBRANCH   3  20
TORSDOF 5
ENDMDL
MODEL 7
REMARK VINA RESULT:      -5.5     22.908     28.460
REMARK  Name = 44234954_SipholenolL.pdbqt.pdb
REMARK  5 active torsions:
REMARK  status: ('A' for Active; 'I' for Inactive)
REMARK    1  A    between atoms: C_3  and  C_20
REMARK    2  A    between atoms: C_4  and  O_16
REMARK    3  A    between atoms: C_13  and  O_18
REMARK    4  A    between atoms: C_21  and  C_25
REMARK    5  A    between atoms: C_26  and  O_36
REMARK                            x       y       z     vdW  Elec       q    Type
REMARK                         _______ _______ _______ _____ _____    ______ ____
ROOT
ATOM      1  O   UNL     1      -3.912 -41.925  -0.314  0.00  0.00    +0.000 OA
ATOM      2  C   UNL     1      -3.837 -39.361  -0.774  0.00  0.00    +0.000 C 
ATOM      3  C   UNL     1      -4.412 -38.019  -0.316  0.00  0.00    +0.000 C 
ATOM      4  C   UNL     1      -4.469 -37.696   1.166  0.00  0.00    +0.000 C 
ATOM      5  C   UNL     1      -4.205 -40.627   0.117  0.00  0.00    +0.000 C 
ATOM      6  C   UNL     1      -4.400 -39.761  -2.073  0.00  0.00    +0.000 C 
ATOM      7  C   UNL     1      -4.503 -38.942   1.909  0.00  0.00    +0.000 C 
ATOM      8  C   UNL     1      -4.396 -40.371   1.490  0.00  0.00    +0.000 C 
ATOM      9  C   UNL     1      -2.293 -39.264  -0.872  0.00  0.00    +0.000 C 
ATOM     10  C   UNL     1      -4.953 -40.966  -2.791  0.00  0.00    +0.000 C 
ATOM     11  C   UNL     1      -4.965 -42.737  -0.947  0.00  0.00    +0.000 C 
ATOM     12  C   UNL     1      -3.354 -36.744   1.589  0.00  0.00    +0.000 C 
ATOM     13  C   UNL     1      -5.225 -42.306  -2.430  0.00  0.00    +0.000 C 
ATOM     14  C   UNL     1      -4.432 -44.196  -0.934  0.00  0.00    +0.000 C 
ATOM     15  C   UNL     1      -6.305 -42.635  -0.155  0.00  0.00    +0.000 C 
ENDROOT
BRANCH   4  16
ATOM     16  O   UNL     1      -5.667 -36.995   1.432  0.00  0.00    +0.000 OA
ATOM     17  H   UNL     1      -5.653 -36.333   0.716  0.00  0.00    +0.000 HD
ENDBRANCH   4  16
BRANCH  13  18
ATOM     18  O   UNL     1      -5.911 -43.119  -3.323  0.00  0.00    +0.000 OA
ATOM     19  H   UNL     1      -5.321 -43.528  -3.982  0.00  0.00    +0.000 HD
ENDBRANCH  13  18
BRANCH   3  20
ATOM     20  C   UNL     1      -4.841 -37.035  -1.273  0.00  0.00    +0.000 C 
ATOM     21  C   UNL     1      -5.267 -35.969  -2.287  0.00  0.00    +0.000 C 
BRANCH  21  25
ATOM     22  C   UNL     1      -4.742 -34.725  -4.487  0.00  0.00    +0.000 A 
ATOM     23  C   UNL     1      -5.167 -33.623  -5.534  0.00  0.00    +0.000 A 
ATOM     24  C   UNL     1      -3.423 -35.585  -4.672  0.00  0.00    +0.000 C 
ATOM     25  C   UNL     1      -5.617 -34.959  -3.237  0.00  0.00    +0.000 A 
ATOM     26  C   UNL     1      -4.462 -33.240  -6.856  0.00  0.00    +0.000 C 
ATOM     27  C   UNL     1      -2.824 -35.096  -5.918  0.00  0.00    +0.000 C 
ATOM     28  C   UNL     1      -3.260 -34.050  -6.908  0.00  0.00    +0.000 C 
ATOM     29  C   UNL     1      -6.335 -32.936  -5.090  0.00  0.00    +0.000 A 
ATOM     30  C   UNL     1      -6.837 -34.159  -2.943  0.00  0.00    +0.000 A 
ATOM     31  C   UNL     1      -3.795 -37.079  -4.835  0.00  0.00    +0.000 C 
ATOM     32  C   UNL     1      -2.451 -35.319  -3.503  0.00  0.00    +0.000 C 
ATOM     33  C   UNL     1      -7.089 -33.252  -3.832  0.00  0.00    +0.000 A 
ATOM     34  C   UNL     1      -5.381 -33.441  -8.053  0.00  0.00    +0.000 C 
ATOM     35  C   UNL     1      -7.814 -34.407  -1.830  0.00  0.00    +0.000 C 
BRANCH  26  36
ATOM     36  O   UNL     1      -4.114 -31.880  -6.826  0.00  0.00    +0.000 OA
ATOM     37  H   UNL     1      -4.228 -31.639  -7.764  0.00  0.00    +0.000 HD
ENDBRANCH  26  36
ENDBRANCH  21  25
ENDBRANCH   3  20
TORSDOF 5
ENDMDL
MODEL 8
REMARK VINA RESULT:      -5.4     22.542     27.892
REMARK  Name = 44234954_SipholenolL.pdbqt.pdb
REMARK  5 active torsions:
REMARK  status: ('A' for Active; 'I' for Inactive)
REMARK    1  A    between atoms: C_3  and  C_20
REMARK    2  A    between atoms: C_4  and  O_16
REMARK    3  A    between atoms: C_13  and  O_18
REMARK    4  A    between atoms: C_21  and  C_25
REMARK    5  A    between atoms: C_26  and  O_36
REMARK                            x       y       z     vdW  Elec       q    Type
REMARK                         _______ _______ _______ _____ _____    ______ ____
ROOT
ATOM      1  O   UNL     1       1.824 -41.553  -4.912  0.00  0.00    +0.000 OA
ATOM      2  C   UNL     1       0.242 -40.451  -6.665  0.00  0.00    +0.000 C 
ATOM      3  C   UNL     1       0.231 -39.642  -7.964  0.00  0.00    +0.000 C 
ATOM      4  C   UNL     1       1.124 -40.063  -9.116  0.00  0.00    +0.000 C 
ATOM      5  C   UNL     1       1.661 -40.985  -6.179  0.00  0.00    +0.000 C 
ATOM      6  C   UNL     1      -0.149 -39.616  -5.518  0.00  0.00    +0.000 C 
ATOM      7  C   UNL     1       2.247 -40.810  -8.580  0.00  0.00    +0.000 C 
ATOM      8  C   UNL     1       2.585 -41.278  -7.203  0.00  0.00    +0.000 C 
ATOM      9  C   UNL     1      -0.719 -41.661  -6.792  0.00  0.00    +0.000 C 
ATOM     10  C   UNL     1       0.240 -39.329  -4.090  0.00  0.00    +0.000 C 
ATOM     11  C   UNL     1       2.357 -40.735  -3.809  0.00  0.00    +0.000 C 
ATOM     12  C   UNL     1       0.347 -40.797 -10.205  0.00  0.00    +0.000 C 
ATOM     13  C   UNL     1       1.277 -39.761  -3.230  0.00  0.00    +0.000 C 
ATOM     14  C   UNL     1       2.771 -41.742  -2.703  0.00  0.00    +0.000 C 
ATOM     15  C   UNL     1       3.587 -39.896  -4.277  0.00  0.00    +0.000 C 
ENDROOT
BRANCH   4  16
ATOM     16  O   UNL     1       1.629 -38.904  -9.747  0.00  0.00    +0.000 OA
ATOM     17  H   UNL     1       2.289 -39.297 -10.347  0.00  0.00    +0.000 HD
ENDBRANCH   4  16
BRANCH  13  18
ATOM     18  O   UNL     1       1.429 -39.143  -1.995  0.00  0.00    +0.000 OA
ATOM     19  H   UNL     1       1.169 -38.205  -2.013  0.00  0.00    +0.000 HD
ENDBRANCH  13  18
BRANCH   3  20
ATOM     20  C   UNL     1      -0.661 -38.526  -8.128  0.00  0.00    +0.000 C 
ATOM     21  C   UNL     1      -1.596 -37.321  -8.275  0.00  0.00    +0.000 C 
BRANCH  21  25
ATOM     22  C   UNL     1      -3.783 -36.112  -7.627  0.00  0.00    +0.000 A 
ATOM     23  C   UNL     1      -4.679 -34.818  -7.741  0.00  0.00    +0.000 A 
ATOM     24  C   UNL     1      -4.239 -37.369  -6.775  0.00  0.00    +0.000 C 
ATOM     25  C   UNL     1      -2.438 -36.171  -8.382  0.00  0.00    +0.000 A 
ATOM     26  C   UNL     1      -6.036 -34.534  -7.057  0.00  0.00    +0.000 C 
ATOM     27  C   UNL     1      -5.549 -37.001  -6.229  0.00  0.00    +0.000 C 
ATOM     28  C   UNL     1      -6.376 -35.749  -6.341  0.00  0.00    +0.000 C 
ATOM     29  C   UNL     1      -4.087 -33.877  -8.633  0.00  0.00    +0.000 A 
ATOM     30  C   UNL     1      -1.954 -35.068  -9.259  0.00  0.00    +0.000 A 
ATOM     31  C   UNL     1      -3.245 -37.596  -5.610  0.00  0.00    +0.000 C 
ATOM     32  C   UNL     1      -4.399 -38.599  -7.693  0.00  0.00    +0.000 C 
ATOM     33  C   UNL     1      -2.769 -34.064  -9.326  0.00  0.00    +0.000 A 
ATOM     34  C   UNL     1      -5.961 -33.305  -6.162  0.00  0.00    +0.000 C 
ATOM     35  C   UNL     1      -0.608 -34.985  -9.917  0.00  0.00    +0.000 C 
BRANCH  26  36
ATOM     36  O   UNL     1      -7.010 -34.274  -8.035  0.00  0.00    +0.000 OA
ATOM     37  H   UNL     1      -6.453 -33.966  -8.773  0.00  0.00    +0.000 HD
ENDBRANCH  26  36
ENDBRANCH  21  25
ENDBRANCH   3  20
TORSDOF 5
ENDMDL
MODEL 9
REMARK VINA RESULT:      -5.3     31.869     35.398
REMARK  Name = 44234954_SipholenolL.pdbqt.pdb
REMARK  5 active torsions:
REMARK  status: ('A' for Active; 'I' for Inactive)
REMARK    1  A    between atoms: C_3  and  C_20
REMARK    2  A    between atoms: C_4  and  O_16
REMARK    3  A    between atoms: C_13  and  O_18
REMARK    4  A    between atoms: C_21  and  C_25
REMARK    5  A    between atoms: C_26  and  O_36
REMARK                            x       y       z     vdW  Elec       q    Type
REMARK                         _______ _______ _______ _____ _____    ______ ____
ROOT
ATOM      1  O   UNL     1       4.287 -32.931   6.356  0.00  0.00    +0.000 OA
ATOM      2  C   UNL     1       3.678 -34.315   8.478  0.00  0.00    +0.000 C 
ATOM      3  C   UNL     1       4.284 -35.033   9.686  0.00  0.00    +0.000 C 
ATOM      4  C   UNL     1       5.350 -34.337  10.513  0.00  0.00    +0.000 C 
ATOM      5  C   UNL     1       4.682 -33.457   7.590  0.00  0.00    +0.000 C 
ATOM      6  C   UNL     1       3.180 -35.279   7.485  0.00  0.00    +0.000 C 
ATOM      7  C   UNL     1       6.013 -33.354   9.676  0.00  0.00    +0.000 C 
ATOM      8  C   UNL     1       5.769 -32.884   8.280  0.00  0.00    +0.000 C 
ATOM      9  C   UNL     1       2.523 -33.389   8.943  0.00  0.00    +0.000 C 
ATOM     10  C   UNL     1       3.163 -35.528   5.998  0.00  0.00    +0.000 C 
ATOM     11  C   UNL     1       4.642 -33.639   5.114  0.00  0.00    +0.000 C 
ATOM     12  C   UNL     1       4.789 -33.775  11.815  0.00  0.00    +0.000 C 
ATOM     13  C   UNL     1       3.729 -34.887   4.871  0.00  0.00    +0.000 C 
ATOM     14  C   UNL     1       4.411 -32.616   3.969  0.00  0.00    +0.000 C 
ATOM     15  C   UNL     1       6.131 -34.106   5.141  0.00  0.00    +0.000 C 
ENDROOT
BRANCH   4  16
ATOM     16  O   UNL     1       6.311 -35.293  10.912  0.00  0.00    +0.000 OA
ATOM     17  H   UNL     1       6.627 -34.895  11.745  0.00  0.00    +0.000 HD
ENDBRANCH   4  16
BRANCH  13  18
ATOM     18  O   UNL     1       3.644 -35.506   3.630  0.00  0.00    +0.000 OA
ATOM     19  H   UNL     1       3.315 -36.421   3.692  0.00  0.00    +0.000 HD
ENDBRANCH  13  18
BRANCH   3  20
ATOM     20  C   UNL     1       3.813 -36.331  10.084  0.00  0.00    +0.000 C 
ATOM     21  C   UNL     1       3.339 -37.730  10.493  0.00  0.00    +0.000 C 
BRANCH  21  25
ATOM     22  C   UNL     1       2.931 -40.190   9.824  0.00  0.00    +0.000 A 
ATOM     23  C   UNL     1       2.518 -41.645  10.272  0.00  0.00    +0.000 A 
ATOM     24  C   UNL     1       3.311 -39.856   8.322  0.00  0.00    +0.000 C 
ATOM     25  C   UNL     1       2.944 -39.051  10.868  0.00  0.00    +0.000 A 
ATOM     26  C   UNL     1       2.460 -42.928   9.411  0.00  0.00    +0.000 C 
ATOM     27  C   UNL     1       3.166 -41.126   7.604  0.00  0.00    +0.000 C 
ATOM     28  C   UNL     1       2.784 -42.508   8.061  0.00  0.00    +0.000 C 
ATOM     29  C   UNL     1       2.140 -41.658  11.647  0.00  0.00    +0.000 A 
ATOM     30  C   UNL     1       2.542 -39.252  12.288  0.00  0.00    +0.000 A 
ATOM     31  C   UNL     1       4.785 -39.391   8.248  0.00  0.00    +0.000 C 
ATOM     32  C   UNL     1       2.315 -38.829   7.742  0.00  0.00    +0.000 C 
ATOM     33  C   UNL     1       2.181 -40.466  12.557  0.00  0.00    +0.000 A 
ATOM     34  C   UNL     1       3.393 -44.003   9.951  0.00  0.00    +0.000 C 
ATOM     35  C   UNL     1       2.654 -38.242  13.392  0.00  0.00    +0.000 C 
BRANCH  26  36
ATOM     36  O   UNL     1       1.159 -43.456   9.441  0.00  0.00    +0.000 OA
ATOM     37  H   UNL     1       0.634 -42.670   9.206  0.00  0.00    +0.000 HD
ENDBRANCH  26  36
ENDBRANCH  21  25
ENDBRANCH   3  20
TORSDOF 5
ENDMDL
