MODEL 1
REMARK VINA RESULT:      -4.8      0.000      0.000
REMARK  Name = 442793_6gingerol.pdbqt.pdb
REMARK  7 active torsions:
REMARK  status: ('A' for Active; 'I' for Inactive)
REMARK    1  A    between atoms: C_1  and  C_3
REMARK    2  A    between atoms: C_5  and  O_6
REMARK    3  A    between atoms: C_5  and  C_8
REMARK    4  A    between atoms: C_9  and  C_10
REMARK    5  A    between atoms: C_13  and  C_14
REMARK    6  A    between atoms: C_17  and  O_20
REMARK    7  A    between atoms: C_19  and  O_22
REMARK                            x       y       z     vdW  Elec       q    Type
REMARK                         _______ _______ _______ _____ _____    ______ ____
ROOT
ATOM      1  C   UNL     1      -7.741 -33.316  -3.721  0.00  0.00    +0.000 C 
ATOM      2  C   UNL     1      -6.577 -33.447  -4.712  0.00  0.00    +0.000 C 
ENDROOT
BRANCH   2   3
ATOM      3  C   UNL     1      -5.497 -33.571  -5.632  0.00  0.00    +0.000 A 
ATOM      4  C   UNL     1      -5.707 -33.318  -6.986  0.00  0.00    +0.000 A 
ATOM      5  C   UNL     1      -4.237 -33.945  -5.175  0.00  0.00    +0.000 A 
ATOM      6  C   UNL     1      -4.657 -33.437  -7.901  0.00  0.00    +0.000 A 
ATOM      7  C   UNL     1      -3.181 -34.066  -6.076  0.00  0.00    +0.000 A 
ATOM      8  C   UNL     1      -3.396 -33.813  -7.430  0.00  0.00    +0.000 A 
BRANCH   6   9
ATOM      9  O   UNL     1      -4.776 -33.208  -9.250  0.00  0.00    +0.000 OA
ATOM     10  C   UNL     1      -5.500 -34.172  -9.967  0.00  0.00    +0.000 C 
ENDBRANCH   6   9
BRANCH   8  11
ATOM     11  O   UNL     1      -2.355 -33.934  -8.309  0.00  0.00    +0.000 OA
ATOM     12  H   UNL     1      -1.518 -33.843  -7.817  0.00  0.00    +0.000 HD
ENDBRANCH   8  11
ENDBRANCH   2   3
BRANCH   1  14
ATOM     13  O   UNL     1      -9.892 -33.768  -3.003  0.00  0.00    +0.000 OA
ATOM     14  C   UNL     1      -8.834 -33.196  -2.789  0.00  0.00    +0.000 C 
ATOM     15  C   UNL     1      -8.670 -32.396  -1.608  0.00  0.00    +0.000 C 
ATOM     16  C   UNL     1      -8.516 -31.609  -0.446  0.00  0.00    +0.000 C 
BRANCH  16  17
ATOM     17  O   UNL     1      -7.243 -31.206  -0.120  0.00  0.00    +0.000 OA
ATOM     18  H   UNL     1      -7.230 -30.668   0.691  0.00  0.00    +0.000 HD
ENDBRANCH  16  17
BRANCH  16  19
ATOM     19  C   UNL     1      -9.593 -31.218   0.386  0.00  0.00    +0.000 C 
ATOM     20  C   UNL     1     -10.758 -30.803   1.292  0.00  0.00    +0.000 C 
BRANCH  20  21
ATOM     21  C   UNL     1     -11.923 -30.395   2.198  0.00  0.00    +0.000 C 
ATOM     22  C   UNL     1     -13.087 -29.987   3.107  0.00  0.00    +0.000 C 
ATOM     23  C   UNL     1     -14.246 -29.579   4.022  0.00  0.00    +0.000 C 
ENDBRANCH  20  21
ENDBRANCH  16  19
ENDBRANCH   1  14
TORSDOF 7
ENDMDL
MODEL 2
REMARK VINA RESULT:      -4.7     18.893     20.440
REMARK  Name = 442793_6gingerol.pdbqt.pdb
REMARK  7 active torsions:
REMARK  status: ('A' for Active; 'I' for Inactive)
REMARK    1  A    between atoms: C_1  and  C_3
REMARK    2  A    between atoms: C_5  and  O_6
REMARK    3  A    between atoms: C_5  and  C_8
REMARK    4  A    between atoms: C_9  and  C_10
REMARK    5  A    between atoms: C_13  and  C_14
REMARK    6  A    between atoms: C_17  and  O_20
REMARK    7  A    between atoms: C_19  and  O_22
REMARK                            x       y       z     vdW  Elec       q    Type
REMARK                         _______ _______ _______ _____ _____    ______ ____
ROOT
ATOM      1  C   UNL     1      -1.840 -16.814 -14.237  0.00  0.00    +0.000 C 
ATOM      2  C   UNL     1      -0.597 -17.165 -13.408  0.00  0.00    +0.000 C 
ENDROOT
BRANCH   2   3
ATOM      3  C   UNL     1       0.557 -17.489 -12.640  0.00  0.00    +0.000 A 
ATOM      4  C   UNL     1       1.462 -16.488 -12.292  0.00  0.00    +0.000 A 
ATOM      5  C   UNL     1       0.778 -18.804 -12.240  0.00  0.00    +0.000 A 
ATOM      6  C   UNL     1       2.600 -16.790 -11.539  0.00  0.00    +0.000 A 
ATOM      7  C   UNL     1       1.908 -19.119 -11.489  0.00  0.00    +0.000 A 
ATOM      8  C   UNL     1       2.811 -18.114 -11.143  0.00  0.00    +0.000 A 
BRANCH   6   9
ATOM      9  O   UNL     1       3.542 -15.867 -11.154  0.00  0.00    +0.000 OA
ATOM     10  C   UNL     1       3.127 -14.950 -10.176  0.00  0.00    +0.000 C 
ENDBRANCH   6   9
BRANCH   8  11
ATOM     11  O   UNL     1       3.918 -18.431 -10.406  0.00  0.00    +0.000 OA
ATOM     12  H   UNL     1       4.658 -18.612 -11.015  0.00  0.00    +0.000 HD
ENDBRANCH   8  11
ENDBRANCH   2   3
BRANCH   1  14
ATOM     13  O   UNL     1      -3.121 -15.370 -15.510  0.00  0.00    +0.000 OA
ATOM     14  C   UNL     1      -3.005 -16.481 -15.016  0.00  0.00    +0.000 C 
ATOM     15  C   UNL     1      -4.033 -17.467 -15.206  0.00  0.00    +0.000 C 
ATOM     16  C   UNL     1      -5.047 -18.431 -15.393  0.00  0.00    +0.000 C 
BRANCH  16  17
ATOM     17  O   UNL     1      -4.757 -19.729 -15.048  0.00  0.00    +0.000 OA
ATOM     18  H   UNL     1      -5.522 -20.175 -14.644  0.00  0.00    +0.000 HD
ENDBRANCH  16  17
BRANCH  16  19
ATOM     19  C   UNL     1      -6.331 -18.129 -15.911  0.00  0.00    +0.000 C 
ATOM     20  C   UNL     1      -7.721 -17.796 -16.463  0.00  0.00    +0.000 C 
BRANCH  20  21
ATOM     21  C   UNL     1      -9.112 -17.459 -17.009  0.00  0.00    +0.000 C 
ATOM     22  C   UNL     1     -10.503 -17.121 -17.556  0.00  0.00    +0.000 C 
ATOM     23  C   UNL     1     -11.891 -16.775 -18.103  0.00  0.00    +0.000 C 
ENDBRANCH  20  21
ENDBRANCH  16  19
ENDBRANCH   1  14
TORSDOF 7
ENDMDL
MODEL 3
REMARK VINA RESULT:      -4.7     19.131     22.210
REMARK  Name = 442793_6gingerol.pdbqt.pdb
REMARK  7 active torsions:
REMARK  status: ('A' for Active; 'I' for Inactive)
REMARK    1  A    between atoms: C_1  and  C_3
REMARK    2  A    between atoms: C_5  and  O_6
REMARK    3  A    between atoms: C_5  and  C_8
REMARK    4  A    between atoms: C_9  and  C_10
REMARK    5  A    between atoms: C_13  and  C_14
REMARK    6  A    between atoms: C_17  and  O_20
REMARK    7  A    between atoms: C_19  and  O_22
REMARK                            x       y       z     vdW  Elec       q    Type
REMARK                         _______ _______ _______ _____ _____    ______ ____
ROOT
ATOM      1  C   UNL     1      -3.028 -16.268 -14.752  0.00  0.00    +0.000 C 
ATOM      2  C   UNL     1      -4.076 -15.160 -14.584  0.00  0.00    +0.000 C 
ENDROOT
BRANCH   2   3
ATOM      3  C   UNL     1      -5.047 -14.131 -14.428  0.00  0.00    +0.000 A 
ATOM      4  C   UNL     1      -4.728 -12.979 -13.712  0.00  0.00    +0.000 A 
ATOM      5  C   UNL     1      -6.312 -14.278 -14.992  0.00  0.00    +0.000 A 
ATOM      6  C   UNL     1      -5.671 -11.959 -13.550  0.00  0.00    +0.000 A 
ATOM      7  C   UNL     1      -7.260 -13.270 -14.839  0.00  0.00    +0.000 A 
ATOM      8  C   UNL     1      -6.937 -12.120 -14.120  0.00  0.00    +0.000 A 
BRANCH   6   9
ATOM      9  O   UNL     1      -5.441 -10.794 -12.860  0.00  0.00    +0.000 OA
ATOM     10  C   UNL     1      -5.399 -10.916 -11.462  0.00  0.00    +0.000 C 
ENDBRANCH   6   9
BRANCH   8  11
ATOM     11  O   UNL     1      -7.874 -11.134 -13.974  0.00  0.00    +0.000 OA
ATOM     12  H   UNL     1      -7.541 -10.321 -14.399  0.00  0.00    +0.000 HD
ENDBRANCH   8  11
ENDBRANCH   2   3
BRANCH   1  14
ATOM     13  O   UNL     1      -2.098 -18.069 -15.864  0.00  0.00    +0.000 OA
ATOM     14  C   UNL     1      -2.042 -17.306 -14.912  0.00  0.00    +0.000 C 
ATOM     15  C   UNL     1      -0.992 -17.439 -13.940  0.00  0.00    +0.000 C 
ATOM     16  C   UNL     1       0.040 -17.575 -12.987  0.00  0.00    +0.000 C 
BRANCH  16  17
ATOM     17  O   UNL     1       0.214 -16.548 -12.092  0.00  0.00    +0.000 OA
ATOM     18  H   UNL     1      -0.608 -16.045 -11.954  0.00  0.00    +0.000 HD
ENDBRANCH  16  17
BRANCH  16  19
ATOM     19  C   UNL     1       0.891 -18.705 -12.908  0.00  0.00    +0.000 C 
ATOM     20  C   UNL     1       1.816 -19.924 -12.831  0.00  0.00    +0.000 C 
BRANCH  20  21
ATOM     21  C   UNL     1       2.742 -21.142 -12.761  0.00  0.00    +0.000 C 
ATOM     22  C   UNL     1       3.668 -22.361 -12.692  0.00  0.00    +0.000 C 
ATOM     23  C   UNL     1       4.595 -23.579 -12.631  0.00  0.00    +0.000 C 
ENDBRANCH  20  21
ENDBRANCH  16  19
ENDBRANCH   1  14
TORSDOF 7
ENDMDL
MODEL 4
REMARK VINA RESULT:      -4.6     18.920     22.001
REMARK  Name = 442793_6gingerol.pdbqt.pdb
REMARK  7 active torsions:
REMARK  status: ('A' for Active; 'I' for Inactive)
REMARK    1  A    between atoms: C_1  and  C_3
REMARK    2  A    between atoms: C_5  and  O_6
REMARK    3  A    between atoms: C_5  and  C_8
REMARK    4  A    between atoms: C_9  and  C_10
REMARK    5  A    between atoms: C_13  and  C_14
REMARK    6  A    between atoms: C_17  and  O_20
REMARK    7  A    between atoms: C_19  and  O_22
REMARK                            x       y       z     vdW  Elec       q    Type
REMARK                         _______ _______ _______ _____ _____    ______ ____
ROOT
ATOM      1  C   UNL     1      -2.980 -16.272 -14.768  0.00  0.00    +0.000 C 
ATOM      2  C   UNL     1      -4.040 -15.177 -14.593  0.00  0.00    +0.000 C 
ENDROOT
BRANCH   2   3
ATOM      3  C   UNL     1      -5.025 -14.161 -14.433  0.00  0.00    +0.000 A 
ATOM      4  C   UNL     1      -6.303 -14.345 -14.956  0.00  0.00    +0.000 A 
ATOM      5  C   UNL     1      -4.708 -12.988 -13.754  0.00  0.00    +0.000 A 
ATOM      6  C   UNL     1      -7.280 -13.357 -14.808  0.00  0.00    +0.000 A 
ATOM      7  C   UNL     1      -5.672 -11.995 -13.599  0.00  0.00    +0.000 A 
ATOM      8  C   UNL     1      -6.949 -12.183 -14.125  0.00  0.00    +0.000 A 
BRANCH   6   9
ATOM      9  O   UNL     1      -8.562 -13.456 -15.293  0.00  0.00    +0.000 OA
ATOM     10  C   UNL     1      -9.438 -14.245 -14.532  0.00  0.00    +0.000 C 
ENDBRANCH   6   9
BRANCH   8  11
ATOM     11  O   UNL     1      -7.891 -11.204 -13.969  0.00  0.00    +0.000 OA
ATOM     12  H   UNL     1      -7.457 -10.335 -14.065  0.00  0.00    +0.000 HD
ENDBRANCH   8  11
ENDBRANCH   2   3
BRANCH   1  14
ATOM     13  O   UNL     1      -2.033 -18.054 -15.897  0.00  0.00    +0.000 OA
ATOM     14  C   UNL     1      -1.985 -17.301 -14.936  0.00  0.00    +0.000 C 
ATOM     15  C   UNL     1      -0.937 -17.436 -13.963  0.00  0.00    +0.000 C 
ATOM     16  C   UNL     1       0.093 -17.574 -13.008  0.00  0.00    +0.000 C 
BRANCH  16  17
ATOM     17  O   UNL     1       0.257 -16.555 -12.102  0.00  0.00    +0.000 OA
ATOM     18  H   UNL     1      -0.217 -15.750 -12.375  0.00  0.00    +0.000 HD
ENDBRANCH  16  17
BRANCH  16  19
ATOM     19  C   UNL     1       0.953 -18.698 -12.939  0.00  0.00    +0.000 C 
ATOM     20  C   UNL     1       1.876 -19.920 -12.867  0.00  0.00    +0.000 C 
BRANCH  20  21
ATOM     21  C   UNL     1       2.792 -21.144 -12.795  0.00  0.00    +0.000 C 
ATOM     22  C   UNL     1       3.711 -22.368 -12.724  0.00  0.00    +0.000 C 
ATOM     23  C   UNL     1       4.635 -23.588 -12.648  0.00  0.00    +0.000 C 
ENDBRANCH  20  21
ENDBRANCH  16  19
ENDBRANCH   1  14
TORSDOF 7
ENDMDL
MODEL 5
REMARK VINA RESULT:      -4.4     12.955     16.150
REMARK  Name = 442793_6gingerol.pdbqt.pdb
REMARK  7 active torsions:
REMARK  status: ('A' for Active; 'I' for Inactive)
REMARK    1  A    between atoms: C_1  and  C_3
REMARK    2  A    between atoms: C_5  and  O_6
REMARK    3  A    between atoms: C_5  and  C_8
REMARK    4  A    between atoms: C_9  and  C_10
REMARK    5  A    between atoms: C_13  and  C_14
REMARK    6  A    between atoms: C_17  and  O_20
REMARK    7  A    between atoms: C_19  and  O_22
REMARK                            x       y       z     vdW  Elec       q    Type
REMARK                         _______ _______ _______ _____ _____    ______ ____
ROOT
ATOM      1  C   UNL     1       4.985 -31.541   3.040  0.00  0.00    +0.000 C 
ATOM      2  C   UNL     1       4.508 -32.615   4.026  0.00  0.00    +0.000 C 
ENDROOT
BRANCH   2   3
ATOM      3  C   UNL     1       4.069 -33.612   4.942  0.00  0.00    +0.000 A 
ATOM      4  C   UNL     1       3.790 -33.266   6.263  0.00  0.00    +0.000 A 
ATOM      5  C   UNL     1       3.919 -34.929   4.516  0.00  0.00    +0.000 A 
ATOM      6  C   UNL     1       3.359 -34.234   7.175  0.00  0.00    +0.000 A 
ATOM      7  C   UNL     1       3.490 -35.903   5.413  0.00  0.00    +0.000 A 
ATOM      8  C   UNL     1       3.213 -35.552   6.734  0.00  0.00    +0.000 A 
BRANCH   6   9
ATOM      9  O   UNL     1       3.064 -33.980   8.492  0.00  0.00    +0.000 OA
ATOM     10  C   UNL     1       2.212 -32.889   8.723  0.00  0.00    +0.000 C 
ENDBRANCH   6   9
BRANCH   8  11
ATOM     11  O   UNL     1       2.791 -36.514   7.610  0.00  0.00    +0.000 OA
ATOM     12  H   UNL     1       1.871 -36.320   7.869  0.00  0.00    +0.000 HD
ENDBRANCH   8  11
ENDBRANCH   2   3
BRANCH   1  14
ATOM     13  O   UNL     1       6.398 -29.832   2.385  0.00  0.00    +0.000 OA
ATOM     14  C   UNL     1       5.435 -30.532   2.114  0.00  0.00    +0.000 C 
ATOM     15  C   UNL     1       4.741 -30.355   0.869  0.00  0.00    +0.000 C 
ATOM     16  C   UNL     1       4.060 -30.175  -0.355  0.00  0.00    +0.000 C 
BRANCH  16  17
ATOM     17  O   UNL     1       3.162 -31.146  -0.727  0.00  0.00    +0.000 OA
ATOM     18  H   UNL     1       3.445 -31.610  -1.534  0.00  0.00    +0.000 HD
ENDBRANCH  16  17
BRANCH  16  19
ATOM     19  C   UNL     1       4.254 -29.058  -1.204  0.00  0.00    +0.000 C 
ATOM     20  C   UNL     1       4.455 -27.845  -2.119  0.00  0.00    +0.000 C 
BRANCH  20  21
ATOM     21  C   UNL     1       4.650 -26.632  -3.032  0.00  0.00    +0.000 C 
ATOM     22  C   UNL     1       4.846 -25.419  -3.948  0.00  0.00    +0.000 C 
ATOM     23  C   UNL     1       5.043 -24.210  -4.869  0.00  0.00    +0.000 C 
ENDBRANCH  20  21
ENDBRANCH  16  19
ENDBRANCH   1  14
TORSDOF 7
ENDMDL
MODEL 6
REMARK VINA RESULT:      -4.4      7.921     10.494
REMARK  Name = 442793_6gingerol.pdbqt.pdb
REMARK  7 active torsions:
REMARK  status: ('A' for Active; 'I' for Inactive)
REMARK    1  A    between atoms: C_1  and  C_3
REMARK    2  A    between atoms: C_5  and  O_6
REMARK    3  A    between atoms: C_5  and  C_8
REMARK    4  A    between atoms: C_9  and  C_10
REMARK    5  A    between atoms: C_13  and  C_14
REMARK    6  A    between atoms: C_17  and  O_20
REMARK    7  A    between atoms: C_19  and  O_22
REMARK                            x       y       z     vdW  Elec       q    Type
REMARK                         _______ _______ _______ _____ _____    ______ ____
ROOT
ATOM      1  C   UNL     1      -1.900 -37.431  -1.843  0.00  0.00    +0.000 C 
ATOM      2  C   UNL     1      -2.861 -36.512  -2.608  0.00  0.00    +0.000 C 
ENDROOT
BRANCH   2   3
ATOM      3  C   UNL     1      -3.752 -35.657  -3.317  0.00  0.00    +0.000 A 
ATOM      4  C   UNL     1      -3.257 -34.804  -4.303  0.00  0.00    +0.000 A 
ATOM      5  C   UNL     1      -5.112 -35.675  -3.025  0.00  0.00    +0.000 A 
ATOM      6  C   UNL     1      -4.118 -33.959  -5.007  0.00  0.00    +0.000 A 
ATOM      7  C   UNL     1      -5.982 -34.838  -3.719  0.00  0.00    +0.000 A 
ATOM      8  C   UNL     1      -5.483 -33.986  -4.704  0.00  0.00    +0.000 A 
BRANCH   6   9
ATOM      9  O   UNL     1      -3.716 -33.088  -5.991  0.00  0.00    +0.000 OA
ATOM     10  C   UNL     1      -3.258 -33.684  -7.176  0.00  0.00    +0.000 C 
ENDBRANCH   6   9
BRANCH   8  11
ATOM     11  O   UNL     1      -6.342 -33.167  -5.382  0.00  0.00    +0.000 OA
ATOM     12  H   UNL     1      -6.577 -32.415  -4.806  0.00  0.00    +0.000 HD
ENDBRANCH   8  11
ENDBRANCH   2   3
BRANCH   1  14
ATOM     13  O   UNL     1       0.132 -38.497  -1.554  0.00  0.00    +0.000 OA
ATOM     14  C   UNL     1      -0.994 -38.292  -1.126  0.00  0.00    +0.000 C 
ATOM     15  C   UNL     1      -1.427 -38.912   0.096  0.00  0.00    +0.000 C 
ATOM     16  C   UNL     1      -1.848 -39.525   1.296  0.00  0.00    +0.000 C 
BRANCH  16  17
ATOM     17  O   UNL     1      -3.009 -39.064   1.867  0.00  0.00    +0.000 OA
ATOM     18  H   UNL     1      -2.866 -38.239   2.363  0.00  0.00    +0.000 HD
ENDBRANCH  16  17
BRANCH  16  19
ATOM     19  C   UNL     1      -1.142 -40.577   1.929  0.00  0.00    +0.000 C 
ATOM     20  C   UNL     1      -0.379 -41.721   2.606  0.00  0.00    +0.000 C 
BRANCH  20  21
ATOM     21  C   UNL     1       0.382 -42.868   3.277  0.00  0.00    +0.000 C 
ATOM     22  C   UNL     1       1.142 -44.017   3.947  0.00  0.00    +0.000 C 
ATOM     23  C   UNL     1       1.900 -45.171   4.612  0.00  0.00    +0.000 C 
ENDBRANCH  20  21
ENDBRANCH  16  19
ENDBRANCH   1  14
TORSDOF 7
ENDMDL
MODEL 7
REMARK VINA RESULT:      -4.4      6.796      9.433
REMARK  Name = 442793_6gingerol.pdbqt.pdb
REMARK  7 active torsions:
REMARK  status: ('A' for Active; 'I' for Inactive)
REMARK    1  A    between atoms: C_1  and  C_3
REMARK    2  A    between atoms: C_5  and  O_6
REMARK    3  A    between atoms: C_5  and  C_8
REMARK    4  A    between atoms: C_9  and  C_10
REMARK    5  A    between atoms: C_13  and  C_14
REMARK    6  A    between atoms: C_17  and  O_20
REMARK    7  A    between atoms: C_19  and  O_22
REMARK                            x       y       z     vdW  Elec       q    Type
REMARK                         _______ _______ _______ _____ _____    ______ ____
ROOT
ATOM      1  C   UNL     1      -1.787 -36.924  -4.323  0.00  0.00    +0.000 C 
ATOM      2  C   UNL     1      -2.396 -35.788  -5.153  0.00  0.00    +0.000 C 
ENDROOT
BRANCH   2   3
ATOM      3  C   UNL     1      -2.963 -34.735  -5.926  0.00  0.00    +0.000 A 
ATOM      4  C   UNL     1      -2.729 -34.679  -7.299  0.00  0.00    +0.000 A 
ATOM      5  C   UNL     1      -3.748 -33.765  -5.308  0.00  0.00    +0.000 A 
ATOM      6  C   UNL     1      -3.278 -33.651  -8.071  0.00  0.00    +0.000 A 
ATOM      7  C   UNL     1      -4.301 -32.736  -6.065  0.00  0.00    +0.000 A 
ATOM      8  C   UNL     1      -4.064 -32.683  -7.438  0.00  0.00    +0.000 A 
BRANCH   6   9
ATOM      9  O   UNL     1      -3.098 -33.519  -9.426  0.00  0.00    +0.000 OA
ATOM     10  C   UNL     1      -1.849 -33.019  -9.826  0.00  0.00    +0.000 C 
ENDBRANCH   6   9
BRANCH   8  11
ATOM     11  O   UNL     1      -4.611 -31.669  -8.176  0.00  0.00    +0.000 OA
ATOM     12  H   UNL     1      -5.168 -32.058  -8.876  0.00  0.00    +0.000 HD
ENDBRANCH   8  11
ENDBRANCH   2   3
BRANCH   1  14
ATOM     13  O   UNL     1      -0.647 -38.924  -4.097  0.00  0.00    +0.000 OA
ATOM     14  C   UNL     1      -1.215 -37.994  -3.544  0.00  0.00    +0.000 C 
ATOM     15  C   UNL     1      -1.320 -37.960  -2.112  0.00  0.00    +0.000 C 
ATOM     16  C   UNL     1      -1.423 -37.933  -0.704  0.00  0.00    +0.000 C 
BRANCH  16  17
ATOM     17  O   UNL     1      -1.830 -36.756  -0.123  0.00  0.00    +0.000 OA
ATOM     18  H   UNL     1      -2.198 -36.901   0.766  0.00  0.00    +0.000 HD
ENDBRANCH  16  17
BRANCH  16  19
ATOM     19  C   UNL     1      -1.132 -39.044   0.125  0.00  0.00    +0.000 C 
ATOM     20  C   UNL     1      -0.810 -40.241   1.026  0.00  0.00    +0.000 C 
BRANCH  20  21
ATOM     21  C   UNL     1      -0.482 -41.436   1.926  0.00  0.00    +0.000 C 
ATOM     22  C   UNL     1      -0.151 -42.631   2.826  0.00  0.00    +0.000 C 
ATOM     23  C   UNL     1       0.186 -43.826   3.724  0.00  0.00    +0.000 C 
ENDBRANCH  20  21
ENDBRANCH  16  19
ENDBRANCH   1  14
TORSDOF 7
ENDMDL
MODEL 8
REMARK VINA RESULT:      -4.4     10.472     11.803
REMARK  Name = 442793_6gingerol.pdbqt.pdb
REMARK  7 active torsions:
REMARK  status: ('A' for Active; 'I' for Inactive)
REMARK    1  A    between atoms: C_1  and  C_3
REMARK    2  A    between atoms: C_5  and  O_6
REMARK    3  A    between atoms: C_5  and  C_8
REMARK    4  A    between atoms: C_9  and  C_10
REMARK    5  A    between atoms: C_13  and  C_14
REMARK    6  A    between atoms: C_17  and  O_20
REMARK    7  A    between atoms: C_19  and  O_22
REMARK                            x       y       z     vdW  Elec       q    Type
REMARK                         _______ _______ _______ _____ _____    ______ ____
ROOT
ATOM      1  C   UNL     1      -8.767 -30.997   5.678  0.00  0.00    +0.000 C 
ATOM      2  C   UNL     1      -7.544 -31.764   6.196  0.00  0.00    +0.000 C 
ENDROOT
BRANCH   2   3
ATOM      3  C   UNL     1      -6.409 -32.479   6.676  0.00  0.00    +0.000 A 
ATOM      4  C   UNL     1      -5.509 -31.853   7.537  0.00  0.00    +0.000 A 
ATOM      5  C   UNL     1      -6.203 -33.798   6.284  0.00  0.00    +0.000 A 
ATOM      6  C   UNL     1      -4.390 -32.541   8.016  0.00  0.00    +0.000 A 
ATOM      7  C   UNL     1      -5.093 -34.496   6.754  0.00  0.00    +0.000 A 
ATOM      8  C   UNL     1      -4.194 -33.866   7.614  0.00  0.00    +0.000 A 
BRANCH   6   9
ATOM      9  O   UNL     1      -3.454 -32.002   8.864  0.00  0.00    +0.000 OA
ATOM     10  C   UNL     1      -3.962 -31.182   9.884  0.00  0.00    +0.000 C 
ENDBRANCH   6   9
BRANCH   8  11
ATOM     11  O   UNL     1      -3.106 -34.556   8.072  0.00  0.00    +0.000 OA
ATOM     12  H   UNL     1      -2.866 -34.212   8.952  0.00  0.00    +0.000 HD
ENDBRANCH   8  11
ENDBRANCH   2   3
BRANCH   1  14
ATOM     13  O   UNL     1     -10.687 -30.809   4.403  0.00  0.00    +0.000 OA
ATOM     14  C   UNL     1      -9.917 -30.279   5.190  0.00  0.00    +0.000 C 
ATOM     15  C   UNL     1     -10.151 -28.933   5.634  0.00  0.00    +0.000 C 
ATOM     16  C   UNL     1     -10.384 -27.610   6.066  0.00  0.00    +0.000 C 
BRANCH  16  17
ATOM     17  O   UNL     1      -9.652 -27.156   7.136  0.00  0.00    +0.000 OA
ATOM     18  H   UNL     1     -10.198 -27.069   7.937  0.00  0.00    +0.000 HD
ENDBRANCH  16  17
BRANCH  16  19
ATOM     19  C   UNL     1     -11.321 -26.739   5.457  0.00  0.00    +0.000 C 
ATOM     20  C   UNL     1     -12.331 -25.800   4.789  0.00  0.00    +0.000 C 
BRANCH  20  21
ATOM     21  C   UNL     1     -13.337 -24.862   4.116  0.00  0.00    +0.000 C 
ATOM     22  C   UNL     1     -14.344 -23.924   3.441  0.00  0.00    +0.000 C 
ATOM     23  C   UNL     1     -15.352 -22.993   2.761  0.00  0.00    +0.000 C 
ENDBRANCH  20  21
ENDBRANCH  16  19
ENDBRANCH   1  14
TORSDOF 7
ENDMDL
MODEL 9
REMARK VINA RESULT:      -4.2     14.398     15.690
REMARK  Name = 442793_6gingerol.pdbqt.pdb
REMARK  7 active torsions:
REMARK  status: ('A' for Active; 'I' for Inactive)
REMARK    1  A    between atoms: C_1  and  C_3
REMARK    2  A    between atoms: C_5  and  O_6
REMARK    3  A    between atoms: C_5  and  C_8
REMARK    4  A    between atoms: C_9  and  C_10
REMARK    5  A    between atoms: C_13  and  C_14
REMARK    6  A    between atoms: C_17  and  O_20
REMARK    7  A    between atoms: C_19  and  O_22
REMARK                            x       y       z     vdW  Elec       q    Type
REMARK                         _______ _______ _______ _____ _____    ______ ____
ROOT
ATOM      1  C   UNL     1       3.442 -35.974   5.721  0.00  0.00    +0.000 C 
ATOM      2  C   UNL     1       3.311 -35.018   4.528  0.00  0.00    +0.000 C 
ENDROOT
BRANCH   2   3
ATOM      3  C   UNL     1       3.191 -34.129   3.423  0.00  0.00    +0.000 A 
ATOM      4  C   UNL     1       3.843 -32.897   3.450  0.00  0.00    +0.000 A 
ATOM      5  C   UNL     1       2.425 -34.492   2.319  0.00  0.00    +0.000 A 
ATOM      6  C   UNL     1       3.734 -32.013   2.373  0.00  0.00    +0.000 A 
ATOM      7  C   UNL     1       2.309 -33.621   1.239  0.00  0.00    +0.000 A 
ATOM      8  C   UNL     1       2.961 -32.390   1.270  0.00  0.00    +0.000 A 
BRANCH   6   9
ATOM      9  O   UNL     1       4.341 -30.781   2.317  0.00  0.00    +0.000 OA
ATOM     10  C   UNL     1       5.739 -30.799   2.205  0.00  0.00    +0.000 C 
ENDBRANCH   6   9
BRANCH   8  11
ATOM     11  O   UNL     1       2.843 -31.539   0.206  0.00  0.00    +0.000 OA
ATOM     12  H   UNL     1       3.265 -31.951  -0.571  0.00  0.00    +0.000 HD
ENDBRANCH   8  11
ENDBRANCH   2   3
BRANCH   1  14
ATOM     13  O   UNL     1       3.824 -38.052   6.661  0.00  0.00    +0.000 OA
ATOM     14  C   UNL     1       3.567 -36.871   6.842  0.00  0.00    +0.000 C 
ATOM     15  C   UNL     1       3.386 -36.367   8.174  0.00  0.00    +0.000 C 
ATOM     16  C   UNL     1       3.207 -35.876   9.486  0.00  0.00    +0.000 C 
BRANCH  16  17
ATOM     17  O   UNL     1       3.183 -34.513   9.653  0.00  0.00    +0.000 OA
ATOM     18  H   UNL     1       4.076 -34.147   9.773  0.00  0.00    +0.000 HD
ENDBRANCH  16  17
BRANCH  16  19
ATOM     19  C   UNL     1       3.051 -36.709  10.621  0.00  0.00    +0.000 C 
ATOM     20  C   UNL     1       2.891 -37.615  11.846  0.00  0.00    +0.000 C 
BRANCH  20  21
ATOM     21  C   UNL     1       2.735 -38.525  13.069  0.00  0.00    +0.000 C 
ATOM     22  C   UNL     1       2.579 -39.436  14.290  0.00  0.00    +0.000 C 
ATOM     23  C   UNL     1       2.425 -40.353  15.508  0.00  0.00    +0.000 C 
ENDBRANCH  20  21
ENDBRANCH  16  19
ENDBRANCH   1  14
TORSDOF 7
ENDMDL
