MODEL 1
REMARK VINA RESULT:      -6.0      0.000      0.000
REMARK  Name = 44423609_SipholenoneA.pdbqt.pdb
REMARK  4 active torsions:
REMARK  status: ('A' for Active; 'I' for Inactive)
REMARK    1  A    between atoms: C_3  and  C_19
REMARK    2  A    between atoms: C_5  and  O_17
REMARK    3  A    between atoms: C_20  and  C_24
REMARK    4  A    between atoms: C_25  and  O_35
REMARK                            x       y       z     vdW  Elec       q    Type
REMARK                         _______ _______ _______ _____ _____    ______ ____
ROOT
ATOM      1  O   UNL     1       4.479 -36.123   9.103  0.00  0.00    +0.000 OA
ATOM      2  O   UNL     1       2.192 -38.590   7.562  0.00  0.00    +0.000 OA
ATOM      3  C   UNL     1       5.438 -33.606   6.212  0.00  0.00    +0.000 C 
ATOM      4  C   UNL     1       4.551 -34.314   7.234  0.00  0.00    +0.000 C 
ATOM      5  C   UNL     1       6.873 -33.251   6.563  0.00  0.00    +0.000 C 
ATOM      6  C   UNL     1       5.241 -35.301   8.264  0.00  0.00    +0.000 C 
ATOM      7  C   UNL     1       7.268 -34.001   7.740  0.00  0.00    +0.000 C 
ATOM      8  C   UNL     1       6.574 -34.999   8.604  0.00  0.00    +0.000 C 
ATOM      9  C   UNL     1       3.609 -35.225   6.562  0.00  0.00    +0.000 C 
ATOM     10  C   UNL     1       3.756 -33.256   8.050  0.00  0.00    +0.000 C 
ATOM     11  C   UNL     1       7.810 -33.522   5.381  0.00  0.00    +0.000 C 
ATOM     12  C   UNL     1       2.956 -36.578   6.752  0.00  0.00    +0.000 C 
ATOM     13  C   UNL     1       4.217 -37.516   8.724  0.00  0.00    +0.000 C 
ATOM     14  C   UNL     1       3.003 -37.681   7.683  0.00  0.00    +0.000 C 
ATOM     15  C   UNL     1       3.871 -38.236  10.068  0.00  0.00    +0.000 C 
ATOM     16  C   UNL     1       5.511 -38.172   8.113  0.00  0.00    +0.000 C 
ENDROOT
BRANCH   5  17
ATOM     17  O   UNL     1       6.970 -31.873   6.823  0.00  0.00    +0.000 OA
ATOM     18  H   UNL     1       6.742 -31.501   5.951  0.00  0.00    +0.000 HD
ENDBRANCH   5  17
BRANCH   3  19
ATOM     19  C   UNL     1       4.840 -33.052   5.024  0.00  0.00    +0.000 C 
ATOM     20  C   UNL     1       4.201 -32.475   3.759  0.00  0.00    +0.000 C 
BRANCH  20  24
ATOM     21  C   UNL     1       4.733 -30.126   1.043  0.00  0.00    +0.000 C 
ATOM     22  C   UNL     1       3.734 -30.444   2.183  0.00  0.00    +0.000 C 
ATOM     23  C   UNL     1       4.605 -30.576  -0.390  0.00  0.00    +0.000 C 
ATOM     24  C   UNL     1       3.610 -31.939   2.566  0.00  0.00    +0.000 C 
ATOM     25  C   UNL     1       5.747 -30.045  -1.258  0.00  0.00    +0.000 C 
ATOM     26  C   UNL     1       5.901 -29.312   1.110  0.00  0.00    +0.000 C 
ATOM     27  C   UNL     1       6.487 -29.266  -0.273  0.00  0.00    +0.000 C 
ATOM     28  C   UNL     1       3.860 -31.758  -0.577  0.00  0.00    +0.000 C 
ATOM     29  C   UNL     1       2.950 -32.871   1.650  0.00  0.00    +0.000 C 
ATOM     30  C   UNL     1       4.178 -29.628   3.458  0.00  0.00    +0.000 C 
ATOM     31  C   UNL     1       2.329 -29.881   1.781  0.00  0.00    +0.000 C 
ATOM     32  C   UNL     1       3.166 -32.684   0.385  0.00  0.00    +0.000 C 
ATOM     33  C   UNL     1       5.237 -29.283  -2.469  0.00  0.00    +0.000 C 
ATOM     34  C   UNL     1       2.428 -34.224   2.059  0.00  0.00    +0.000 C 
BRANCH  25  35
ATOM     35  O   UNL     1       6.536 -31.107  -1.737  0.00  0.00    +0.000 OA
ATOM     36  H   UNL     1       6.203 -31.840  -1.191  0.00  0.00    +0.000 HD
ENDBRANCH  25  35
ENDBRANCH  20  24
ENDBRANCH   3  19
TORSDOF 4
ENDMDL
MODEL 2
REMARK VINA RESULT:      -5.8     24.035     29.349
REMARK  Name = 44423609_SipholenoneA.pdbqt.pdb
REMARK  4 active torsions:
REMARK  status: ('A' for Active; 'I' for Inactive)
REMARK    1  A    between atoms: C_3  and  C_19
REMARK    2  A    between atoms: C_5  and  O_17
REMARK    3  A    between atoms: C_20  and  C_24
REMARK    4  A    between atoms: C_25  and  O_35
REMARK                            x       y       z     vdW  Elec       q    Type
REMARK                         _______ _______ _______ _____ _____    ______ ____
ROOT
ATOM      1  O   UNL     1      -4.185  -7.790 -10.995  0.00  0.00    +0.000 OA
ATOM      2  O   UNL     1      -3.162  -9.748  -8.026  0.00  0.00    +0.000 OA
ATOM      3  C   UNL     1      -3.026  -9.910 -14.122  0.00  0.00    +0.000 C 
ATOM      4  C   UNL     1      -3.830  -9.557 -12.871  0.00  0.00    +0.000 C 
ATOM      5  C   UNL     1      -2.653  -8.826 -15.119  0.00  0.00    +0.000 C 
ATOM      6  C   UNL     1      -3.630  -8.119 -12.237  0.00  0.00    +0.000 C 
ATOM      7  C   UNL     1      -2.833  -7.530 -14.494  0.00  0.00    +0.000 C 
ATOM      8  C   UNL     1      -3.277  -7.095 -13.138  0.00  0.00    +0.000 C 
ATOM      9  C   UNL     1      -3.438 -10.417 -11.742  0.00  0.00    +0.000 C 
ATOM     10  C   UNL     1      -5.347  -9.742 -13.161  0.00  0.00    +0.000 C 
ATOM     11  C   UNL     1      -1.217  -9.014 -15.621  0.00  0.00    +0.000 C 
ATOM     12  C   UNL     1      -3.231 -10.355 -10.244  0.00  0.00    +0.000 C 
ATOM     13  C   UNL     1      -3.368  -7.880  -9.780  0.00  0.00    +0.000 C 
ATOM     14  C   UNL     1      -3.260  -9.371  -9.187  0.00  0.00    +0.000 C 
ATOM     15  C   UNL     1      -4.081  -6.945  -8.749  0.00  0.00    +0.000 C 
ATOM     16  C   UNL     1      -1.918  -7.329 -10.050  0.00  0.00    +0.000 C 
ENDROOT
BRANCH   5  17
ATOM     17  O   UNL     1      -3.474  -8.924 -16.255  0.00  0.00    +0.000 OA
ATOM     18  H   UNL     1      -3.006  -8.340 -16.878  0.00  0.00    +0.000 HD
ENDBRANCH   5  17
BRANCH   3  19
ATOM     19  C   UNL     1      -2.851 -11.294 -14.479  0.00  0.00    +0.000 C 
ATOM     20  C   UNL     1      -2.677 -12.767 -14.856  0.00  0.00    +0.000 C 
BRANCH  20  24
ATOM     21  C   UNL     1      -0.284 -15.495 -14.932  0.00  0.00    +0.000 C 
ATOM     22  C   UNL     1      -1.228 -14.694 -15.863  0.00  0.00    +0.000 C 
ATOM     23  C   UNL     1      -0.608 -16.811 -14.273  0.00  0.00    +0.000 C 
ATOM     24  C   UNL     1      -2.518 -14.151 -15.200  0.00  0.00    +0.000 C 
ATOM     25  C   UNL     1       0.570 -17.345 -13.456  0.00  0.00    +0.000 C 
ATOM     26  C   UNL     1       1.062 -15.186 -14.582  0.00  0.00    +0.000 C 
ATOM     27  C   UNL     1       1.560 -16.305 -13.710  0.00  0.00    +0.000 C 
ATOM     28  C   UNL     1      -1.981 -17.046 -14.057  0.00  0.00    +0.000 C 
ATOM     29  C   UNL     1      -3.585 -15.079 -14.821  0.00  0.00    +0.000 C 
ATOM     30  C   UNL     1      -0.411 -13.481 -16.453  0.00  0.00    +0.000 C 
ATOM     31  C   UNL     1      -1.600 -15.597 -17.087  0.00  0.00    +0.000 C 
ATOM     32  C   UNL     1      -3.209 -16.224 -14.344  0.00  0.00    +0.000 C 
ATOM     33  C   UNL     1       0.959 -18.754 -13.868  0.00  0.00    +0.000 C 
ATOM     34  C   UNL     1      -5.005 -14.658 -14.543  0.00  0.00    +0.000 C 
BRANCH  25  35
ATOM     35  O   UNL     1       0.243 -17.387 -12.089  0.00  0.00    +0.000 OA
ATOM     36  H   UNL     1      -0.707 -17.595 -12.138  0.00  0.00    +0.000 HD
ENDBRANCH  25  35
ENDBRANCH  20  24
ENDBRANCH   3  19
TORSDOF 4
ENDMDL
MODEL 3
REMARK VINA RESULT:      -5.4      5.696     10.821
REMARK  Name = 44423609_SipholenoneA.pdbqt.pdb
REMARK  4 active torsions:
REMARK  status: ('A' for Active; 'I' for Inactive)
REMARK    1  A    between atoms: C_3  and  C_19
REMARK    2  A    between atoms: C_5  and  O_17
REMARK    3  A    between atoms: C_20  and  C_24
REMARK    4  A    between atoms: C_25  and  O_35
REMARK                            x       y       z     vdW  Elec       q    Type
REMARK                         _______ _______ _______ _____ _____    ______ ____
ROOT
ATOM      1  O   UNL     1       2.266 -31.541  12.101  0.00  0.00    +0.000 OA
ATOM      2  O   UNL     1       4.080 -32.500  15.181  0.00  0.00    +0.000 OA
ATOM      3  C   UNL     1       2.957 -34.441   9.509  0.00  0.00    +0.000 C 
ATOM      4  C   UNL     1       2.400 -33.767  10.761  0.00  0.00    +0.000 C 
ATOM      5  C   UNL     1       3.001 -33.686   8.191  0.00  0.00    +0.000 C 
ATOM      6  C   UNL     1       2.580 -32.199  10.907  0.00  0.00    +0.000 C 
ATOM      7  C   UNL     1       2.824 -32.271   8.455  0.00  0.00    +0.000 C 
ATOM      8  C   UNL     1       2.631 -31.473   9.701  0.00  0.00    +0.000 C 
ATOM      9  C   UNL     1       3.105 -34.242  11.964  0.00  0.00    +0.000 C 
ATOM     10  C   UNL     1       0.883 -34.085  10.890  0.00  0.00    +0.000 C 
ATOM     11  C   UNL     1       4.312 -33.960   7.446  0.00  0.00    +0.000 C 
ATOM     12  C   UNL     1       3.612 -33.735  13.297  0.00  0.00    +0.000 C 
ATOM     13  C   UNL     1       3.323 -31.239  13.072  0.00  0.00    +0.000 C 
ATOM     14  C   UNL     1       3.704 -32.485  14.016  0.00  0.00    +0.000 C 
ATOM     15  C   UNL     1       2.749 -30.069  13.937  0.00  0.00    +0.000 C 
ATOM     16  C   UNL     1       4.621 -30.739  12.334  0.00  0.00    +0.000 C 
ENDROOT
BRANCH   5  17
ATOM     17  O   UNL     1       1.975 -34.145   7.347  0.00  0.00    +0.000 OA
ATOM     18  H   UNL     1       2.085 -35.110   7.424  0.00  0.00    +0.000 HD
ENDBRANCH   5  17
BRANCH   3  19
ATOM     19  C   UNL     1       3.194 -35.862   9.521  0.00  0.00    +0.000 C 
ATOM     20  C   UNL     1       3.458 -37.370   9.538  0.00  0.00    +0.000 C 
BRANCH  20  24
ATOM     21  C   UNL     1       2.675 -40.463  11.268  0.00  0.00    +0.000 C 
ATOM     22  C   UNL     1       3.882 -39.583  10.860  0.00  0.00    +0.000 C 
ATOM     23  C   UNL     1       2.156 -41.653  10.503  0.00  0.00    +0.000 C 
ATOM     24  C   UNL     1       3.713 -38.782   9.546  0.00  0.00    +0.000 C 
ATOM     25  C   UNL     1       0.977 -42.319  11.215  0.00  0.00    +0.000 C 
ATOM     26  C   UNL     1       1.883 -40.362  12.448  0.00  0.00    +0.000 C 
ATOM     27  C   UNL     1       0.882 -41.483  12.405  0.00  0.00    +0.000 C 
ATOM     28  C   UNL     1       2.427 -41.635   9.119  0.00  0.00    +0.000 C 
ATOM     29  C   UNL     1       3.718 -39.485   8.262  0.00  0.00    +0.000 C 
ATOM     30  C   UNL     1       4.164 -38.572  12.038  0.00  0.00    +0.000 C 
ATOM     31  C   UNL     1       5.151 -40.496  10.765  0.00  0.00    +0.000 C 
ATOM     32  C   UNL     1       3.129 -40.640   8.235  0.00  0.00    +0.000 C 
ATOM     33  C   UNL     1       1.215 -43.800  11.453  0.00  0.00    +0.000 C 
ATOM     34  C   UNL     1       3.953 -38.810   6.935  0.00  0.00    +0.000 C 
BRANCH  25  35
ATOM     35  O   UNL     1      -0.192 -42.205  10.441  0.00  0.00    +0.000 OA
ATOM     36  H   UNL     1       0.154 -41.744   9.657  0.00  0.00    +0.000 HD
ENDBRANCH  25  35
ENDBRANCH  20  24
ENDBRANCH   3  19
TORSDOF 4
ENDMDL
MODEL 4
REMARK VINA RESULT:      -5.4     18.157     22.360
REMARK  Name = 44423609_SipholenoneA.pdbqt.pdb
REMARK  4 active torsions:
REMARK  status: ('A' for Active; 'I' for Inactive)
REMARK    1  A    between atoms: C_3  and  C_19
REMARK    2  A    between atoms: C_5  and  O_17
REMARK    3  A    between atoms: C_20  and  C_24
REMARK    4  A    between atoms: C_25  and  O_35
REMARK                            x       y       z     vdW  Elec       q    Type
REMARK                         _______ _______ _______ _____ _____    ______ ____
ROOT
ATOM      1  O   UNL     1      -7.306 -11.154   4.094  0.00  0.00    +0.000 OA
ATOM      2  O   UNL     1      -5.272 -12.741   6.747  0.00  0.00    +0.000 OA
ATOM      3  C   UNL     1      -5.803 -12.452   0.678  0.00  0.00    +0.000 C 
ATOM      4  C   UNL     1      -6.527 -12.521   2.022  0.00  0.00    +0.000 C 
ATOM      5  C   UNL     1      -5.991 -11.248  -0.229  0.00  0.00    +0.000 C 
ATOM      6  C   UNL     1      -6.818 -11.161   2.783  0.00  0.00    +0.000 C 
ATOM      7  C   UNL     1      -6.578 -10.167   0.540  0.00  0.00    +0.000 C 
ATOM      8  C   UNL     1      -6.991 -10.027   1.966  0.00  0.00    +0.000 C 
ATOM      9  C   UNL     1      -5.707 -13.228   3.019  0.00  0.00    +0.000 C 
ATOM     10  C   UNL     1      -7.881 -13.264   1.843  0.00  0.00    +0.000 C 
ATOM     11  C   UNL     1      -4.662 -10.829  -0.867  0.00  0.00    +0.000 C 
ATOM     12  C   UNL     1      -5.365 -13.186   4.493  0.00  0.00    +0.000 C 
ATOM     13  C   UNL     1      -6.380 -10.994   5.220  0.00  0.00    +0.000 C 
ATOM     14  C   UNL     1      -5.642 -12.360   5.644  0.00  0.00    +0.000 C 
ATOM     15  C   UNL     1      -7.269 -10.479   6.398  0.00  0.00    +0.000 C 
ATOM     16  C   UNL     1      -5.293  -9.905   4.888  0.00  0.00    +0.000 C 
ENDROOT
BRANCH   5  17
ATOM     17  O   UNL     1      -6.841 -11.587  -1.296  0.00  0.00    +0.000 OA
ATOM     18  H   UNL     1      -6.725 -12.554  -1.329  0.00  0.00    +0.000 HD
ENDBRANCH   5  17
BRANCH   3  19
ATOM     19  C   UNL     1      -5.156 -13.633   0.166  0.00  0.00    +0.000 C 
ATOM     20  C   UNL     1      -4.468 -14.882  -0.389  0.00  0.00    +0.000 C 
BRANCH  20  24
ATOM     21  C   UNL     1      -1.400 -16.102  -1.897  0.00  0.00    +0.000 C 
ATOM     22  C   UNL     1      -2.922 -16.007  -2.169  0.00  0.00    +0.000 C 
ATOM     23  C   UNL     1      -0.684 -17.292  -1.311  0.00  0.00    +0.000 C 
ATOM     24  C   UNL     1      -3.830 -16.054  -0.916  0.00  0.00    +0.000 C 
ATOM     25  C   UNL     1       0.825 -17.062  -1.221  0.00  0.00    +0.000 C 
ATOM     26  C   UNL     1      -0.398 -15.136  -2.201  0.00  0.00    +0.000 C 
ATOM     27  C   UNL     1       0.924 -15.728  -1.801  0.00  0.00    +0.000 C 
ATOM     28  C   UNL     1      -1.479 -18.120  -0.492  0.00  0.00    +0.000 C 
ATOM     29  C   UNL     1      -3.982 -17.309  -0.177  0.00  0.00    +0.000 C 
ATOM     30  C   UNL     1      -3.191 -14.659  -2.942  0.00  0.00    +0.000 C 
ATOM     31  C   UNL     1      -3.321 -17.155  -3.157  0.00  0.00    +0.000 C 
ATOM     32  C   UNL     1      -2.920 -18.044  -0.066  0.00  0.00    +0.000 C 
ATOM     33  C   UNL     1       1.613 -18.156  -1.920  0.00  0.00    +0.000 C 
ATOM     34  C   UNL     1      -5.105 -17.583   0.790  0.00  0.00    +0.000 C 
BRANCH  25  35
ATOM     35  O   UNL     1       1.241 -17.044   0.123  0.00  0.00    +0.000 OA
ATOM     36  H   UNL     1       0.998 -16.136   0.375  0.00  0.00    +0.000 HD
ENDBRANCH  25  35
ENDBRANCH  20  24
ENDBRANCH   3  19
TORSDOF 4
ENDMDL
MODEL 5
REMARK VINA RESULT:      -5.2     13.821     16.061
REMARK  Name = 44423609_SipholenoneA.pdbqt.pdb
REMARK  4 active torsions:
REMARK  status: ('A' for Active; 'I' for Inactive)
REMARK    1  A    between atoms: C_3  and  C_19
REMARK    2  A    between atoms: C_5  and  O_17
REMARK    3  A    between atoms: C_20  and  C_24
REMARK    4  A    between atoms: C_25  and  O_35
REMARK                            x       y       z     vdW  Elec       q    Type
REMARK                         _______ _______ _______ _____ _____    ______ ____
ROOT
ATOM      1  O   UNL     1       5.081 -39.241 -10.619  0.00  0.00    +0.000 OA
ATOM      2  O   UNL     1       6.492 -35.823 -10.476  0.00  0.00    +0.000 OA
ATOM      3  C   UNL     1       1.347 -38.906  -9.369  0.00  0.00    +0.000 C 
ATOM      4  C   UNL     1       2.552 -38.722 -10.290  0.00  0.00    +0.000 C 
ATOM      5  C   UNL     1       1.136 -40.225  -8.644  0.00  0.00    +0.000 C 
ATOM      6  C   UNL     1       3.887 -39.501  -9.937  0.00  0.00    +0.000 C 
ATOM      7  C   UNL     1       2.369 -40.986  -8.684  0.00  0.00    +0.000 C 
ATOM      8  C   UNL     1       3.721 -40.724  -9.259  0.00  0.00    +0.000 C 
ATOM      9  C   UNL     1       3.025 -37.328 -10.254  0.00  0.00    +0.000 C 
ATOM     10  C   UNL     1       2.154 -39.096 -11.746  0.00  0.00    +0.000 C 
ATOM     11  C   UNL     1       0.666 -39.989  -7.205  0.00  0.00    +0.000 C 
ATOM     12  C   UNL     1       4.311 -36.529 -10.289  0.00  0.00    +0.000 C 
ATOM     13  C   UNL     1       6.068 -38.321 -10.044  0.00  0.00    +0.000 C 
ATOM     14  C   UNL     1       5.734 -36.771 -10.311  0.00  0.00    +0.000 C 
ATOM     15  C   UNL     1       7.418 -38.704 -10.734  0.00  0.00    +0.000 C 
ATOM     16  C   UNL     1       6.203 -38.558  -8.494  0.00  0.00    +0.000 C 
ENDROOT
BRANCH   5  17
ATOM     17  O   UNL     1       0.108 -40.950  -9.271  0.00  0.00    +0.000 OA
ATOM     18  H   UNL     1       0.508 -41.129 -10.142  0.00  0.00    +0.000 HD
ENDBRANCH   5  17
BRANCH   3  19
ATOM     19  C   UNL     1       0.287 -37.932  -9.395  0.00  0.00    +0.000 C 
ATOM     20  C   UNL     1      -0.832 -36.887  -9.416  0.00  0.00    +0.000 C 
BRANCH  20  24
ATOM     21  C   UNL     1      -3.665 -35.630  -7.527  0.00  0.00    +0.000 C 
ATOM     22  C   UNL     1      -3.307 -36.220  -8.913  0.00  0.00    +0.000 C 
ATOM     23  C   UNL     1      -3.769 -34.163  -7.195  0.00  0.00    +0.000 C 
ATOM     24  C   UNL     1      -1.880 -35.907  -9.426  0.00  0.00    +0.000 C 
ATOM     25  C   UNL     1      -4.185 -33.936  -5.741  0.00  0.00    +0.000 C 
ATOM     26  C   UNL     1      -4.021 -36.339  -6.344  0.00  0.00    +0.000 C 
ATOM     27  C   UNL     1      -4.338 -35.314  -5.292  0.00  0.00    +0.000 C 
ATOM     28  C   UNL     1      -2.995 -33.312  -8.012  0.00  0.00    +0.000 C 
ATOM     29  C   UNL     1      -1.544 -34.548  -9.853  0.00  0.00    +0.000 C 
ATOM     30  C   UNL     1      -3.488 -37.785  -8.835  0.00  0.00    +0.000 C 
ATOM     31  C   UNL     1      -4.366 -35.717  -9.953  0.00  0.00    +0.000 C 
ATOM     32  C   UNL     1      -2.059 -33.582  -9.160  0.00  0.00    +0.000 C 
ATOM     33  C   UNL     1      -5.417 -33.054  -5.630  0.00  0.00    +0.000 C 
ATOM     34  C   UNL     1      -0.355 -34.208 -10.715  0.00  0.00    +0.000 C 
BRANCH  25  35
ATOM     35  O   UNL     1      -3.153 -33.299  -5.027  0.00  0.00    +0.000 OA
ATOM     36  H   UNL     1      -3.567 -32.438  -4.841  0.00  0.00    +0.000 HD
ENDBRANCH  25  35
ENDBRANCH  20  24
ENDBRANCH   3  19
TORSDOF 4
ENDMDL
MODEL 6
REMARK VINA RESULT:      -5.1     20.180     24.226
REMARK  Name = 44423609_SipholenoneA.pdbqt.pdb
REMARK  4 active torsions:
REMARK  status: ('A' for Active; 'I' for Inactive)
REMARK    1  A    between atoms: C_3  and  C_19
REMARK    2  A    between atoms: C_5  and  O_17
REMARK    3  A    between atoms: C_20  and  C_24
REMARK    4  A    between atoms: C_25  and  O_35
REMARK                            x       y       z     vdW  Elec       q    Type
REMARK                         _______ _______ _______ _____ _____    ______ ____
ROOT
ATOM      1  O   UNL     1      -4.998  -8.816   2.375  0.00  0.00    +0.000 OA
ATOM      2  O   UNL     1      -2.527  -6.245   1.387  0.00  0.00    +0.000 OA
ATOM      3  C   UNL     1      -4.293 -11.926   0.042  0.00  0.00    +0.000 C 
ATOM      4  C   UNL     1      -4.037 -10.895   1.140  0.00  0.00    +0.000 C 
ATOM      5  C   UNL     1      -5.687 -12.493  -0.163  0.00  0.00    +0.000 C 
ATOM      6  C   UNL     1      -5.213  -9.902   1.519  0.00  0.00    +0.000 C 
ATOM      7  C   UNL     1      -6.644 -11.647   0.525  0.00  0.00    +0.000 C 
ATOM      8  C   UNL     1      -6.518 -10.399   1.333  0.00  0.00    +0.000 C 
ATOM      9  C   UNL     1      -2.992  -9.944   0.725  0.00  0.00    +0.000 C 
ATOM     10  C   UNL     1      -3.590 -11.621   2.440  0.00  0.00    +0.000 C 
ATOM     11  C   UNL     1      -6.015 -12.616  -1.654  0.00  0.00    +0.000 C 
ATOM     12  C   UNL     1      -2.636  -8.477   0.839  0.00  0.00    +0.000 C 
ATOM     13  C   UNL     1      -4.737  -7.484   1.819  0.00  0.00    +0.000 C 
ATOM     14  C   UNL     1      -3.208  -7.263   1.372  0.00  0.00    +0.000 C 
ATOM     15  C   UNL     1      -5.108  -6.492   2.969  0.00  0.00    +0.000 C 
ATOM     16  C   UNL     1      -5.678  -7.209   0.586  0.00  0.00    +0.000 C 
ENDROOT
BRANCH   5  17
ATOM     17  O   UNL     1      -5.749 -13.798   0.355  0.00  0.00    +0.000 OA
ATOM     18  H   UNL     1      -4.844 -14.113   0.181  0.00  0.00    +0.000 HD
ENDBRANCH   5  17
BRANCH   3  19
ATOM     19  C   UNL     1      -3.171 -12.545  -0.617  0.00  0.00    +0.000 C 
ATOM     20  C   UNL     1      -1.972 -13.193  -1.314  0.00  0.00    +0.000 C 
BRANCH  20  24
ATOM     21  C   UNL     1      -0.769 -14.379  -4.526  0.00  0.00    +0.000 C 
ATOM     22  C   UNL     1      -1.012 -14.866  -3.076  0.00  0.00    +0.000 C 
ATOM     23  C   UNL     1       0.543 -13.883  -5.079  0.00  0.00    +0.000 C 
ATOM     24  C   UNL     1      -0.847 -13.792  -1.973  0.00  0.00    +0.000 C 
ATOM     25  C   UNL     1       0.437 -13.525  -6.562  0.00  0.00    +0.000 C 
ATOM     26  C   UNL     1      -1.695 -14.369  -5.608  0.00  0.00    +0.000 C 
ATOM     27  C   UNL     1      -0.957 -13.867  -6.817  0.00  0.00    +0.000 C 
ATOM     28  C   UNL     1       1.423 -13.337  -4.122  0.00  0.00    +0.000 C 
ATOM     29  C   UNL     1       0.488 -13.291  -1.642  0.00  0.00    +0.000 C 
ATOM     30  C   UNL     1      -2.475 -15.451  -3.001  0.00  0.00    +0.000 C 
ATOM     31  C   UNL     1      -0.053 -16.071  -2.790  0.00  0.00    +0.000 C 
ATOM     32  C   UNL     1       1.306 -13.132  -2.635  0.00  0.00    +0.000 C 
ATOM     33  C   UNL     1       1.471 -14.255  -7.402  0.00  0.00    +0.000 C 
ATOM     34  C   UNL     1       0.820 -12.564  -0.365  0.00  0.00    +0.000 C 
BRANCH  25  35
ATOM     35  O   UNL     1       0.647 -12.147  -6.752  0.00  0.00    +0.000 OA
ATOM     36  H   UNL     1       1.157 -11.930  -5.952  0.00  0.00    +0.000 HD
ENDBRANCH  25  35
ENDBRANCH  20  24
ENDBRANCH   3  19
TORSDOF 4
ENDMDL
MODEL 7
REMARK VINA RESULT:      -5.0     22.222     26.583
REMARK  Name = 44423609_SipholenoneA.pdbqt.pdb
REMARK  4 active torsions:
REMARK  status: ('A' for Active; 'I' for Inactive)
REMARK    1  A    between atoms: C_3  and  C_19
REMARK    2  A    between atoms: C_5  and  O_17
REMARK    3  A    between atoms: C_20  and  C_24
REMARK    4  A    between atoms: C_25  and  O_35
REMARK                            x       y       z     vdW  Elec       q    Type
REMARK                         _______ _______ _______ _____ _____    ______ ____
ROOT
ATOM      1  O   UNL     1     -18.699 -16.577  -2.064  0.00  0.00    +0.000 OA
ATOM      2  O   UNL     1     -20.358 -15.987   1.190  0.00  0.00    +0.000 OA
ATOM      3  C   UNL     1     -15.902 -19.278  -1.361  0.00  0.00    +0.000 C 
ATOM      4  C   UNL     1     -17.311 -18.707  -1.508  0.00  0.00    +0.000 C 
ATOM      5  C   UNL     1     -14.804 -18.856  -2.323  0.00  0.00    +0.000 C 
ATOM      6  C   UNL     1     -17.464 -17.235  -2.076  0.00  0.00    +0.000 C 
ATOM      7  C   UNL     1     -15.227 -17.658  -3.022  0.00  0.00    +0.000 C 
ATOM      8  C   UNL     1     -16.456 -16.814  -2.966  0.00  0.00    +0.000 C 
ATOM      9  C   UNL     1     -17.953 -18.564  -0.190  0.00  0.00    +0.000 C 
ATOM     10  C   UNL     1     -18.164 -19.652  -2.400  0.00  0.00    +0.000 C 
ATOM     11  C   UNL     1     -13.481 -18.638  -1.581  0.00  0.00    +0.000 C 
ATOM     12  C   UNL     1     -18.882 -17.635   0.563  0.00  0.00    +0.000 C 
ATOM     13  C   UNL     1     -19.022 -15.644  -0.979  0.00  0.00    +0.000 C 
ATOM     14  C   UNL     1     -19.547 -16.370   0.357  0.00  0.00    +0.000 C 
ATOM     15  C   UNL     1     -20.144 -14.725  -1.564  0.00  0.00    +0.000 C 
ATOM     16  C   UNL     1     -17.770 -14.758  -0.624  0.00  0.00    +0.000 C 
ENDROOT
BRANCH   5  17
ATOM     17  O   UNL     1     -14.562 -19.886  -3.248  0.00  0.00    +0.000 OA
ATOM     18  H   UNL     1     -14.610 -19.398  -4.090  0.00  0.00    +0.000 HD
ENDBRANCH   5  17
BRANCH   3  19
ATOM     19  C   UNL     1     -15.686 -20.401  -0.485  0.00  0.00    +0.000 C 
ATOM     20  C   UNL     1     -15.466 -21.599   0.441  0.00  0.00    +0.000 C 
BRANCH  20  24
ATOM     21  C   UNL     1     -14.998 -22.545   3.914  0.00  0.00    +0.000 C 
ATOM     22  C   UNL     1     -14.313 -22.664   2.530  0.00  0.00    +0.000 C 
ATOM     23  C   UNL     1     -15.888 -23.584   4.547  0.00  0.00    +0.000 C 
ATOM     24  C   UNL     1     -15.269 -22.722   1.313  0.00  0.00    +0.000 C 
ATOM     25  C   UNL     1     -16.359 -23.159   5.939  0.00  0.00    +0.000 C 
ATOM     26  C   UNL     1     -14.870 -21.489   4.862  0.00  0.00    +0.000 C 
ATOM     27  C   UNL     1     -15.679 -21.876   6.068  0.00  0.00    +0.000 C 
ATOM     28  C   UNL     1     -16.550 -24.435   3.638  0.00  0.00    +0.000 C 
ATOM     29  C   UNL     1     -16.077 -23.920   1.081  0.00  0.00    +0.000 C 
ATOM     30  C   UNL     1     -13.347 -21.429   2.360  0.00  0.00    +0.000 C 
ATOM     31  C   UNL     1     -13.392 -23.931   2.541  0.00  0.00    +0.000 C 
ATOM     32  C   UNL     1     -16.556 -24.505   2.134  0.00  0.00    +0.000 C 
ATOM     33  C   UNL     1     -16.030 -24.200   6.996  0.00  0.00    +0.000 C 
ATOM     34  C   UNL     1     -16.727 -24.253  -0.237  0.00  0.00    +0.000 C 
BRANCH  25  35
ATOM     35  O   UNL     1     -17.754 -22.979   5.953  0.00  0.00    +0.000 OA
ATOM     36  H   UNL     1     -17.920 -22.927   6.911  0.00  0.00    +0.000 HD
ENDBRANCH  25  35
ENDBRANCH  20  24
ENDBRANCH   3  19
TORSDOF 4
ENDMDL
MODEL 8
REMARK VINA RESULT:      -5.0     18.417     23.074
REMARK  Name = 44423609_SipholenoneA.pdbqt.pdb
REMARK  4 active torsions:
REMARK  status: ('A' for Active; 'I' for Inactive)
REMARK    1  A    between atoms: C_3  and  C_19
REMARK    2  A    between atoms: C_5  and  O_17
REMARK    3  A    between atoms: C_20  and  C_24
REMARK    4  A    between atoms: C_25  and  O_35
REMARK                            x       y       z     vdW  Elec       q    Type
REMARK                         _______ _______ _______ _____ _____    ______ ____
ROOT
ATOM      1  O   UNL     1      -4.819  -8.814   2.735  0.00  0.00    +0.000 OA
ATOM      2  O   UNL     1      -1.352  -7.548   2.466  0.00  0.00    +0.000 OA
ATOM      3  C   UNL     1      -4.936 -12.082   0.516  0.00  0.00    +0.000 C 
ATOM      4  C   UNL     1      -4.541 -11.178   1.683  0.00  0.00    +0.000 C 
ATOM      5  C   UNL     1      -6.350 -12.039  -0.037  0.00  0.00    +0.000 C 
ATOM      6  C   UNL     1      -5.256  -9.768   1.810  0.00  0.00    +0.000 C 
ATOM      7  C   UNL     1      -7.004 -10.834   0.436  0.00  0.00    +0.000 C 
ATOM      8  C   UNL     1      -6.567  -9.698   1.299  0.00  0.00    +0.000 C 
ATOM      9  C   UNL     1      -3.132 -10.766   1.567  0.00  0.00    +0.000 C 
ATOM     10  C   UNL     1      -4.750 -11.939   3.022  0.00  0.00    +0.000 C 
ATOM     11  C   UNL     1      -6.342 -12.112  -1.568  0.00  0.00    +0.000 C 
ATOM     12  C   UNL     1      -2.240  -9.569   1.821  0.00  0.00    +0.000 C 
ATOM     13  C   UNL     1      -3.910  -7.743   2.309  0.00  0.00    +0.000 C 
ATOM     14  C   UNL     1      -2.368  -8.196   2.249  0.00  0.00    +0.000 C 
ATOM     15  C   UNL     1      -4.095  -6.616   3.377  0.00  0.00    +0.000 C 
ATOM     16  C   UNL     1      -4.337  -7.187   0.900  0.00  0.00    +0.000 C 
ENDROOT
BRANCH   5  17
ATOM     17  O   UNL     1      -7.063 -13.169   0.398  0.00  0.00    +0.000 OA
ATOM     18  H   UNL     1      -7.952 -12.978   0.048  0.00  0.00    +0.000 HD
ENDBRANCH   5  17
BRANCH   3  19
ATOM     19  C   UNL     1      -4.049 -13.146   0.120  0.00  0.00    +0.000 C 
ATOM     20  C   UNL     1      -3.113 -14.284  -0.293  0.00  0.00    +0.000 C 
BRANCH  20  24
ATOM     21  C   UNL     1      -1.111 -17.013   1.019  0.00  0.00    +0.000 C 
ATOM     22  C   UNL     1      -0.984 -15.727   0.165  0.00  0.00    +0.000 C 
ATOM     23  C   UNL     1      -1.284 -18.411   0.484  0.00  0.00    +0.000 C 
ATOM     24  C   UNL     1      -2.233 -15.352  -0.670  0.00  0.00    +0.000 C 
ATOM     25  C   UNL     1      -1.331 -19.449   1.606  0.00  0.00    +0.000 C 
ATOM     26  C   UNL     1      -1.024 -17.129   2.437  0.00  0.00    +0.000 C 
ATOM     27  C   UNL     1      -1.146 -18.590   2.769  0.00  0.00    +0.000 C 
ATOM     28  C   UNL     1      -1.890 -18.490  -0.787  0.00  0.00    +0.000 C 
ATOM     29  C   UNL     1      -2.595 -16.161  -1.836  0.00  0.00    +0.000 C 
ATOM     30  C   UNL     1      -0.645 -14.532   1.137  0.00  0.00    +0.000 C 
ATOM     31  C   UNL     1       0.258 -15.880  -0.777  0.00  0.00    +0.000 C 
ATOM     32  C   UNL     1      -2.420 -17.440  -1.727  0.00  0.00    +0.000 C 
ATOM     33  C   UNL     1      -0.298 -20.546   1.413  0.00  0.00    +0.000 C 
ATOM     34  C   UNL     1      -3.521 -15.691  -2.928  0.00  0.00    +0.000 C 
BRANCH  25  35
ATOM     35  O   UNL     1      -2.592 -20.070   1.650  0.00  0.00    +0.000 OA
ATOM     36  H   UNL     1      -3.067 -19.473   2.254  0.00  0.00    +0.000 HD
ENDBRANCH  25  35
ENDBRANCH  20  24
ENDBRANCH   3  19
TORSDOF 4
ENDMDL
MODEL 9
REMARK VINA RESULT:      -5.0     18.762     22.623
REMARK  Name = 44423609_SipholenoneA.pdbqt.pdb
REMARK  4 active torsions:
REMARK  status: ('A' for Active; 'I' for Inactive)
REMARK    1  A    between atoms: C_3  and  C_19
REMARK    2  A    between atoms: C_5  and  O_17
REMARK    3  A    between atoms: C_20  and  C_24
REMARK    4  A    between atoms: C_25  and  O_35
REMARK                            x       y       z     vdW  Elec       q    Type
REMARK                         _______ _______ _______ _____ _____    ______ ____
ROOT
ATOM      1  O   UNL     1      -0.965 -17.938   0.450  0.00  0.00    +0.000 OA
ATOM      2  O   UNL     1      -2.018 -18.278   3.982  0.00  0.00    +0.000 OA
ATOM      3  C   UNL     1      -2.946 -14.823  -0.958  0.00  0.00    +0.000 C 
ATOM      4  C   UNL     1      -1.935 -15.589  -0.107  0.00  0.00    +0.000 C 
ATOM      5  C   UNL     1      -3.192 -15.229  -2.401  0.00  0.00    +0.000 C 
ATOM      6  C   UNL     1      -1.730 -17.133  -0.401  0.00  0.00    +0.000 C 
ATOM      7  C   UNL     1      -2.652 -16.558  -2.614  0.00  0.00    +0.000 C 
ATOM      8  C   UNL     1      -1.957 -17.539  -1.731  0.00  0.00    +0.000 C 
ATOM      9  C   UNL     1      -2.364 -15.628   1.301  0.00  0.00    +0.000 C 
ATOM     10  C   UNL     1      -0.545 -14.898  -0.206  0.00  0.00    +0.000 C 
ATOM     11  C   UNL     1      -4.684 -15.166  -2.742  0.00  0.00    +0.000 C 
ATOM     12  C   UNL     1      -2.363 -16.555   2.497  0.00  0.00    +0.000 C 
ATOM     13  C   UNL     1      -1.624 -18.744   1.485  0.00  0.00    +0.000 C 
ATOM     14  C   UNL     1      -1.984 -17.913   2.814  0.00  0.00    +0.000 C 
ATOM     15  C   UNL     1      -0.598 -19.875   1.823  0.00  0.00    +0.000 C 
ATOM     16  C   UNL     1      -2.937 -19.400   0.917  0.00  0.00    +0.000 C 
ENDROOT
BRANCH   5  17
ATOM     17  O   UNL     1      -2.561 -14.316  -3.264  0.00  0.00    +0.000 OA
ATOM     18  H   UNL     1      -3.021 -13.489  -3.031  0.00  0.00    +0.000 HD
ENDBRANCH   5  17
BRANCH   3  19
ATOM     19  C   UNL     1      -3.467 -13.570  -0.474  0.00  0.00    +0.000 C 
ATOM     20  C   UNL     1      -4.011 -12.233   0.035  0.00  0.00    +0.000 C 
BRANCH  20  24
ATOM     21  C   UNL     1      -3.243  -8.696   0.302  0.00  0.00    +0.000 C 
ATOM     22  C   UNL     1      -3.594  -9.922   1.180  0.00  0.00    +0.000 C 
ATOM     23  C   UNL     1      -4.220  -7.664  -0.200  0.00  0.00    +0.000 C 
ATOM     24  C   UNL     1      -4.512 -10.978   0.518  0.00  0.00    +0.000 C 
ATOM     25  C   UNL     1      -3.526  -6.563  -1.004  0.00  0.00    +0.000 C 
ATOM     26  C   UNL     1      -1.953  -8.278  -0.136  0.00  0.00    +0.000 C 
ATOM     27  C   UNL     1      -2.138  -7.000  -0.904  0.00  0.00    +0.000 C 
ATOM     28  C   UNL     1      -5.549  -8.118  -0.332  0.00  0.00    +0.000 C 
ATOM     29  C   UNL     1      -5.924 -10.668   0.285  0.00  0.00    +0.000 C 
ATOM     30  C   UNL     1      -2.243 -10.617   1.603  0.00  0.00    +0.000 C 
ATOM     31  C   UNL     1      -4.247  -9.409   2.508  0.00  0.00    +0.000 C 
ATOM     32  C   UNL     1      -6.194  -9.455  -0.083  0.00  0.00    +0.000 C 
ATOM     33  C   UNL     1      -3.833  -5.179  -0.461  0.00  0.00    +0.000 C 
ATOM     34  C   UNL     1      -6.981 -11.710   0.023  0.00  0.00    +0.000 C 
BRANCH  25  35
ATOM     35  O   UNL     1      -3.953  -6.589  -2.344  0.00  0.00    +0.000 OA
ATOM     36  H   UNL     1      -3.702  -7.494  -2.596  0.00  0.00    +0.000 HD
ENDBRANCH  25  35
ENDBRANCH  20  24
ENDBRANCH   3  19
TORSDOF 4
ENDMDL
