MODEL 1
REMARK VINA RESULT:      -5.3      0.000      0.000
REMARK  Name = 445154_Resveratrol.pdbqt.pdb
REMARK  5 active torsions:
REMARK  status: ('A' for Active; 'I' for Inactive)
REMARK    1  A    between atoms: C_1  and  C_11
REMARK    2  A    between atoms: C_4  and  O_7
REMARK    3  A    between atoms: C_5  and  O_9
REMARK    4  A    between atoms: C_12  and  C_13
REMARK    5  A    between atoms: C_18  and  O_19
REMARK                            x       y       z     vdW  Elec       q    Type
REMARK                         _______ _______ _______ _____ _____    ______ ____
ROOT
ATOM      1  C   UNL     1      -3.823 -34.625  -6.256  0.00  0.00    +0.000 A 
ATOM      2  C   UNL     1      -3.408 -33.303  -6.413  0.00  0.00    +0.000 A 
ATOM      3  C   UNL     1      -4.879 -35.124  -7.018  0.00  0.00    +0.000 A 
ATOM      4  C   UNL     1      -5.515 -34.291  -7.936  0.00  0.00    +0.000 A 
ATOM      5  C   UNL     1      -4.057 -32.488  -7.335  0.00  0.00    +0.000 A 
ATOM      6  C   UNL     1      -5.111 -32.971  -8.103  0.00  0.00    +0.000 A 
ENDROOT
BRANCH   4   7
ATOM      7  O   UNL     1      -6.551 -34.753  -8.695  0.00  0.00    +0.000 OA
ATOM      8  H   UNL     1      -7.138 -34.002  -8.895  0.00  0.00    +0.000 HD
ENDBRANCH   4   7
BRANCH   5   9
ATOM      9  O   UNL     1      -3.633 -31.197  -7.471  0.00  0.00    +0.000 OA
ATOM     10  H   UNL     1      -2.659 -31.197  -7.454  0.00  0.00    +0.000 HD
ENDBRANCH   5   9
BRANCH   1  11
ATOM     11  C   UNL     1      -3.167 -35.471  -5.314  0.00  0.00    +0.000 C 
ATOM     12  C   UNL     1      -2.615 -36.183  -4.519  0.00  0.00    +0.000 C 
BRANCH  12  13
ATOM     13  C   UNL     1      -1.960 -37.029  -3.577  0.00  0.00    +0.000 A 
ATOM     14  C   UNL     1      -2.289 -36.947  -2.224  0.00  0.00    +0.000 A 
ATOM     15  C   UNL     1      -0.993 -37.936  -4.010  0.00  0.00    +0.000 A 
ATOM     16  C   UNL     1      -1.651 -37.772  -1.302  0.00  0.00    +0.000 A 
ATOM     17  C   UNL     1      -0.353 -38.762  -3.090  0.00  0.00    +0.000 A 
ATOM     18  C   UNL     1      -0.687 -38.674  -1.743  0.00  0.00    +0.000 A 
BRANCH  18  19
ATOM     19  O   UNL     1      -0.046 -39.494  -0.861  0.00  0.00    +0.000 OA
ATOM     20  H   UNL     1       0.207 -38.968  -0.082  0.00  0.00    +0.000 HD
ENDBRANCH  18  19
ENDBRANCH  12  13
ENDBRANCH   1  11
TORSDOF 5
ENDMDL
MODEL 2
REMARK VINA RESULT:      -5.3      0.180      2.011
REMARK  Name = 445154_Resveratrol.pdbqt.pdb
REMARK  5 active torsions:
REMARK  status: ('A' for Active; 'I' for Inactive)
REMARK    1  A    between atoms: C_1  and  C_11
REMARK    2  A    between atoms: C_4  and  O_7
REMARK    3  A    between atoms: C_5  and  O_9
REMARK    4  A    between atoms: C_12  and  C_13
REMARK    5  A    between atoms: C_18  and  O_19
REMARK                            x       y       z     vdW  Elec       q    Type
REMARK                         _______ _______ _______ _____ _____    ______ ____
ROOT
ATOM      1  C   UNL     1      -3.764 -34.574  -6.392  0.00  0.00    +0.000 A 
ATOM      2  C   UNL     1      -4.735 -35.102  -7.243  0.00  0.00    +0.000 A 
ATOM      3  C   UNL     1      -3.409 -33.229  -6.482  0.00  0.00    +0.000 A 
ATOM      4  C   UNL     1      -4.032 -32.418  -7.427  0.00  0.00    +0.000 A 
ATOM      5  C   UNL     1      -5.345 -34.275  -8.180  0.00  0.00    +0.000 A 
ATOM      6  C   UNL     1      -5.002 -32.930  -8.281  0.00  0.00    +0.000 A 
ENDROOT
BRANCH   4   7
ATOM      7  O   UNL     1      -3.704 -31.097  -7.537  0.00  0.00    +0.000 OA
ATOM      8  H   UNL     1      -3.830 -30.680  -6.666  0.00  0.00    +0.000 HD
ENDBRANCH   4   7
BRANCH   5   9
ATOM      9  O   UNL     1      -6.292 -34.813  -9.002  0.00  0.00    +0.000 OA
ATOM     10  H   UNL     1      -6.693 -34.089  -9.515  0.00  0.00    +0.000 HD
ENDBRANCH   5   9
BRANCH   1  11
ATOM     11  C   UNL     1      -3.131 -35.412  -5.427  0.00  0.00    +0.000 C 
ATOM     12  C   UNL     1      -2.596 -36.118  -4.615  0.00  0.00    +0.000 C 
BRANCH  12  13
ATOM     13  C   UNL     1      -1.962 -36.954  -3.649  0.00  0.00    +0.000 A 
ATOM     14  C   UNL     1      -2.309 -36.847  -2.303  0.00  0.00    +0.000 A 
ATOM     15  C   UNL     1      -0.998 -37.877  -4.054  0.00  0.00    +0.000 A 
ATOM     16  C   UNL     1      -1.692 -37.663  -1.359  0.00  0.00    +0.000 A 
ATOM     17  C   UNL     1      -0.379 -38.695  -3.113  0.00  0.00    +0.000 A 
ATOM     18  C   UNL     1      -0.730 -38.581  -1.772  0.00  0.00    +0.000 A 
BRANCH  18  19
ATOM     19  O   UNL     1      -0.109 -39.393  -0.868  0.00  0.00    +0.000 OA
ATOM     20  H   UNL     1      -0.789 -39.784  -0.292  0.00  0.00    +0.000 HD
ENDBRANCH  18  19
ENDBRANCH  12  13
ENDBRANCH   1  11
TORSDOF 5
ENDMDL
MODEL 3
REMARK VINA RESULT:      -5.3      4.978      7.715
REMARK  Name = 445154_Resveratrol.pdbqt.pdb
REMARK  5 active torsions:
REMARK  status: ('A' for Active; 'I' for Inactive)
REMARK    1  A    between atoms: C_1  and  C_11
REMARK    2  A    between atoms: C_4  and  O_7
REMARK    3  A    between atoms: C_5  and  O_9
REMARK    4  A    between atoms: C_12  and  C_13
REMARK    5  A    between atoms: C_18  and  O_19
REMARK                            x       y       z     vdW  Elec       q    Type
REMARK                         _______ _______ _______ _____ _____    ______ ____
ROOT
ATOM      1  C   UNL     1      -7.173 -33.117  -3.220  0.00  0.00    +0.000 A 
ATOM      2  C   UNL     1      -8.264 -32.282  -2.981  0.00  0.00    +0.000 A 
ATOM      3  C   UNL     1      -6.644 -33.892  -2.188  0.00  0.00    +0.000 A 
ATOM      4  C   UNL     1      -7.214 -33.825  -0.920  0.00  0.00    +0.000 A 
ATOM      5  C   UNL     1      -8.818 -32.229  -1.706  0.00  0.00    +0.000 A 
ATOM      6  C   UNL     1      -8.302 -32.996  -0.667  0.00  0.00    +0.000 A 
ENDROOT
BRANCH   4   7
ATOM      7  O   UNL     1      -6.718 -34.573   0.108  0.00  0.00    +0.000 OA
ATOM      8  H   UNL     1      -7.194 -35.422   0.124  0.00  0.00    +0.000 HD
ENDBRANCH   4   7
BRANCH   5   9
ATOM      9  O   UNL     1      -9.886 -31.404  -1.496  0.00  0.00    +0.000 OA
ATOM     10  H   UNL     1     -10.402 -31.763  -0.753  0.00  0.00    +0.000 HD
ENDBRANCH   5   9
BRANCH   1  11
ATOM     11  C   UNL     1      -6.595 -33.180  -4.522  0.00  0.00    +0.000 C 
ATOM     12  C   UNL     1      -6.108 -33.233  -5.619  0.00  0.00    +0.000 C 
BRANCH  12  13
ATOM     13  C   UNL     1      -5.530 -33.296  -6.921  0.00  0.00    +0.000 A 
ATOM     14  C   UNL     1      -6.151 -34.044  -7.921  0.00  0.00    +0.000 A 
ATOM     15  C   UNL     1      -4.346 -32.611  -7.191  0.00  0.00    +0.000 A 
ATOM     16  C   UNL     1      -5.590 -34.107  -9.193  0.00  0.00    +0.000 A 
ATOM     17  C   UNL     1      -3.781 -32.671  -8.462  0.00  0.00    +0.000 A 
ATOM     18  C   UNL     1      -4.407 -33.420  -9.453  0.00  0.00    +0.000 A 
BRANCH  18  19
ATOM     19  O   UNL     1      -3.835 -33.464 -10.691  0.00  0.00    +0.000 OA
ATOM     20  H   UNL     1      -3.445 -34.348 -10.815  0.00  0.00    +0.000 HD
ENDBRANCH  18  19
ENDBRANCH  12  13
ENDBRANCH   1  11
TORSDOF 5
ENDMDL
MODEL 4
REMARK VINA RESULT:      -5.0      5.211      5.930
REMARK  Name = 445154_Resveratrol.pdbqt.pdb
REMARK  5 active torsions:
REMARK  status: ('A' for Active; 'I' for Inactive)
REMARK    1  A    between atoms: C_1  and  C_11
REMARK    2  A    between atoms: C_4  and  O_7
REMARK    3  A    between atoms: C_5  and  O_9
REMARK    4  A    between atoms: C_12  and  C_13
REMARK    5  A    between atoms: C_18  and  O_19
REMARK                            x       y       z     vdW  Elec       q    Type
REMARK                         _______ _______ _______ _____ _____    ______ ____
ROOT
ATOM      1  C   UNL     1      -5.475 -33.236  -7.000  0.00  0.00    +0.000 A 
ATOM      2  C   UNL     1      -4.300 -32.535  -7.268  0.00  0.00    +0.000 A 
ATOM      3  C   UNL     1      -6.070 -34.014  -7.992  0.00  0.00    +0.000 A 
ATOM      4  C   UNL     1      -5.480 -34.087  -9.251  0.00  0.00    +0.000 A 
ATOM      5  C   UNL     1      -3.727 -32.621  -8.532  0.00  0.00    +0.000 A 
ATOM      6  C   UNL     1      -4.307 -33.395  -9.532  0.00  0.00    +0.000 A 
ENDROOT
BRANCH   4   7
ATOM      7  O   UNL     1      -6.039 -34.842 -10.240  0.00  0.00    +0.000 OA
ATOM      8  H   UNL     1      -6.895 -34.444 -10.479  0.00  0.00    +0.000 HD
ENDBRANCH   4   7
BRANCH   5   9
ATOM      9  O   UNL     1      -2.575 -31.927  -8.772  0.00  0.00    +0.000 OA
ATOM     10  H   UNL     1      -2.512 -31.771  -9.731  0.00  0.00    +0.000 HD
ENDBRANCH   5   9
BRANCH   1  11
ATOM     11  C   UNL     1      -6.073 -33.155  -5.707  0.00  0.00    +0.000 C 
ATOM     12  C   UNL     1      -6.577 -33.088  -4.619  0.00  0.00    +0.000 C 
BRANCH  12  13
ATOM     13  C   UNL     1      -7.174 -33.007  -3.326  0.00  0.00    +0.000 A 
ATOM     14  C   UNL     1      -8.227 -32.120  -3.101  0.00  0.00    +0.000 A 
ATOM     15  C   UNL     1      -6.704 -33.814  -2.291  0.00  0.00    +0.000 A 
ATOM     16  C   UNL     1      -8.812 -32.040  -1.841  0.00  0.00    +0.000 A 
ATOM     17  C   UNL     1      -7.287 -33.737  -1.029  0.00  0.00    +0.000 A 
ATOM     18  C   UNL     1      -8.336 -32.849  -0.814  0.00  0.00    +0.000 A 
BRANCH  18  19
ATOM     19  O   UNL     1      -8.890 -32.791   0.432  0.00  0.00    +0.000 OA
ATOM     20  H   UNL     1      -8.718 -33.635   0.883  0.00  0.00    +0.000 HD
ENDBRANCH  18  19
ENDBRANCH  12  13
ENDBRANCH   1  11
TORSDOF 5
ENDMDL
MODEL 5
REMARK VINA RESULT:      -4.8     19.238     21.817
REMARK  Name = 445154_Resveratrol.pdbqt.pdb
REMARK  5 active torsions:
REMARK  status: ('A' for Active; 'I' for Inactive)
REMARK    1  A    between atoms: C_1  and  C_11
REMARK    2  A    between atoms: C_4  and  O_7
REMARK    3  A    between atoms: C_5  and  O_9
REMARK    4  A    between atoms: C_12  and  C_13
REMARK    5  A    between atoms: C_18  and  O_19
REMARK                            x       y       z     vdW  Elec       q    Type
REMARK                         _______ _______ _______ _____ _____    ______ ____
ROOT
ATOM      1  C   UNL     1       0.549 -17.201 -12.708  0.00  0.00    +0.000 A 
ATOM      2  C   UNL     1       0.911 -18.385 -12.067  0.00  0.00    +0.000 A 
ATOM      3  C   UNL     1       1.436 -16.126 -12.751  0.00  0.00    +0.000 A 
ATOM      4  C   UNL     1       2.685 -16.245 -12.148  0.00  0.00    +0.000 A 
ATOM      5  C   UNL     1       2.164 -18.483 -11.470  0.00  0.00    +0.000 A 
ATOM      6  C   UNL     1       3.060 -17.420 -11.504  0.00  0.00    +0.000 A 
ENDROOT
BRANCH   4   7
ATOM      7  O   UNL     1       3.574 -15.209 -12.174  0.00  0.00    +0.000 OA
ATOM      8  H   UNL     1       3.087 -14.387 -11.988  0.00  0.00    +0.000 HD
ENDBRANCH   4   7
BRANCH   5   9
ATOM      9  O   UNL     1       2.497 -19.652 -10.847  0.00  0.00    +0.000 OA
ATOM     10  H   UNL     1       1.952 -20.362 -11.231  0.00  0.00    +0.000 HD
ENDBRANCH   5   9
BRANCH   1  11
ATOM     11  C   UNL     1      -0.733 -17.087 -13.323  0.00  0.00    +0.000 C 
ATOM     12  C   UNL     1      -1.813 -16.990 -13.841  0.00  0.00    +0.000 C 
BRANCH  12  13
ATOM     13  C   UNL     1      -3.094 -16.876 -14.456  0.00  0.00    +0.000 A 
ATOM     14  C   UNL     1      -3.616 -17.949 -15.179  0.00  0.00    +0.000 A 
ATOM     15  C   UNL     1      -3.822 -15.693 -14.334  0.00  0.00    +0.000 A 
ATOM     16  C   UNL     1      -4.867 -17.840 -15.780  0.00  0.00    +0.000 A 
ATOM     17  C   UNL     1      -5.073 -15.580 -14.934  0.00  0.00    +0.000 A 
ATOM     18  C   UNL     1      -5.585 -16.655 -15.653  0.00  0.00    +0.000 A 
BRANCH  18  19
ATOM     19  O   UNL     1      -6.813 -16.520 -16.232  0.00  0.00    +0.000 OA
ATOM     20  H   UNL     1      -7.432 -16.183 -15.561  0.00  0.00    +0.000 HD
ENDBRANCH  18  19
ENDBRANCH  12  13
ENDBRANCH   1  11
TORSDOF 5
ENDMDL
MODEL 6
REMARK VINA RESULT:      -4.7     19.392     22.088
REMARK  Name = 445154_Resveratrol.pdbqt.pdb
REMARK  5 active torsions:
REMARK  status: ('A' for Active; 'I' for Inactive)
REMARK    1  A    between atoms: C_1  and  C_11
REMARK    2  A    between atoms: C_4  and  O_7
REMARK    3  A    between atoms: C_5  and  O_9
REMARK    4  A    between atoms: C_12  and  C_13
REMARK    5  A    between atoms: C_18  and  O_19
REMARK                            x       y       z     vdW  Elec       q    Type
REMARK                         _______ _______ _______ _____ _____    ______ ____
ROOT
ATOM      1  C   UNL     1      -8.926 -16.317 -15.666  0.00  0.00    +0.000 A 
ATOM      2  C   UNL     1     -10.030 -16.716 -16.418  0.00  0.00    +0.000 A 
ATOM      3  C   UNL     1      -9.006 -15.193 -14.844  0.00  0.00    +0.000 A 
ATOM      4  C   UNL     1     -10.196 -14.474 -14.781  0.00  0.00    +0.000 A 
ATOM      5  C   UNL     1     -11.210 -15.983 -16.341  0.00  0.00    +0.000 A 
ATOM      6  C   UNL     1     -11.306 -14.860 -15.526  0.00  0.00    +0.000 A 
ENDROOT
BRANCH   4   7
ATOM      7  O   UNL     1     -10.303 -13.370 -13.985  0.00  0.00    +0.000 OA
ATOM      8  H   UNL     1     -10.118 -12.584 -14.529  0.00  0.00    +0.000 HD
ENDBRANCH   4   7
BRANCH   5   9
ATOM      9  O   UNL     1     -12.278 -16.392 -17.087  0.00  0.00    +0.000 OA
ATOM     10  H   UNL     1     -12.362 -15.790 -17.848  0.00  0.00    +0.000 HD
ENDBRANCH   5   9
BRANCH   1  11
ATOM     11  C   UNL     1      -7.710 -17.059 -15.736  0.00  0.00    +0.000 C 
ATOM     12  C   UNL     1      -6.686 -17.684 -15.796  0.00  0.00    +0.000 C 
BRANCH  12  13
ATOM     13  C   UNL     1      -5.471 -18.426 -15.867  0.00  0.00    +0.000 A 
ATOM     14  C   UNL     1      -5.488 -19.748 -16.313  0.00  0.00    +0.000 A 
ATOM     15  C   UNL     1      -4.268 -17.830 -15.490  0.00  0.00    +0.000 A 
ATOM     16  C   UNL     1      -4.303 -20.474 -16.384  0.00  0.00    +0.000 A 
ATOM     17  C   UNL     1      -3.080 -18.553 -15.559  0.00  0.00    +0.000 A 
ATOM     18  C   UNL     1      -3.108 -19.870 -16.006  0.00  0.00    +0.000 A 
BRANCH  18  19
ATOM     19  O   UNL     1      -1.931 -20.559 -16.065  0.00  0.00    +0.000 OA
ATOM     20  H   UNL     1      -1.787 -20.991 -15.205  0.00  0.00    +0.000 HD
ENDBRANCH  18  19
ENDBRANCH  12  13
ENDBRANCH   1  11
TORSDOF 5
ENDMDL
MODEL 7
REMARK VINA RESULT:      -4.6     20.140     23.544
REMARK  Name = 445154_Resveratrol.pdbqt.pdb
REMARK  5 active torsions:
REMARK  status: ('A' for Active; 'I' for Inactive)
REMARK    1  A    between atoms: C_1  and  C_11
REMARK    2  A    between atoms: C_4  and  O_7
REMARK    3  A    between atoms: C_5  and  O_9
REMARK    4  A    between atoms: C_12  and  C_13
REMARK    5  A    between atoms: C_18  and  O_19
REMARK                            x       y       z     vdW  Elec       q    Type
REMARK                         _______ _______ _______ _____ _____    ______ ____
ROOT
ATOM      1  C   UNL     1     -13.877 -17.502  -1.072  0.00  0.00    +0.000 A 
ATOM      2  C   UNL     1     -13.332 -16.588  -0.171  0.00  0.00    +0.000 A 
ATOM      3  C   UNL     1     -13.725 -18.872  -0.861  0.00  0.00    +0.000 A 
ATOM      4  C   UNL     1     -13.027 -19.319   0.258  0.00  0.00    +0.000 A 
ATOM      5  C   UNL     1     -12.637 -17.056   0.940  0.00  0.00    +0.000 A 
ATOM      6  C   UNL     1     -12.478 -18.419   1.166  0.00  0.00    +0.000 A 
ENDROOT
BRANCH   4   7
ATOM      7  O   UNL     1     -12.863 -20.654   0.490  0.00  0.00    +0.000 OA
ATOM      8  H   UNL     1     -12.807 -20.790   1.453  0.00  0.00    +0.000 HD
ENDBRANCH   4   7
BRANCH   5   9
ATOM      9  O   UNL     1     -12.113 -16.143   1.810  0.00  0.00    +0.000 OA
ATOM     10  H   UNL     1     -12.682 -15.353   1.795  0.00  0.00    +0.000 HD
ENDBRANCH   5   9
BRANCH   1  11
ATOM     11  C   UNL     1     -14.590 -17.035  -2.215  0.00  0.00    +0.000 C 
ATOM     12  C   UNL     1     -15.192 -16.642  -3.178  0.00  0.00    +0.000 C 
BRANCH  12  13
ATOM     13  C   UNL     1     -15.905 -16.175  -4.321  0.00  0.00    +0.000 A 
ATOM     14  C   UNL     1     -17.052 -16.844  -4.746  0.00  0.00    +0.000 A 
ATOM     15  C   UNL     1     -15.453 -15.050  -5.011  0.00  0.00    +0.000 A 
ATOM     16  C   UNL     1     -17.750 -16.390  -5.861  0.00  0.00    +0.000 A 
ATOM     17  C   UNL     1     -16.148 -14.593  -6.127  0.00  0.00    +0.000 A 
ATOM     18  C   UNL     1     -17.292 -15.267  -6.544  0.00  0.00    +0.000 A 
BRANCH  18  19
ATOM     19  O   UNL     1     -17.956 -14.800  -7.641  0.00  0.00    +0.000 OA
ATOM     20  H   UNL     1     -18.048 -13.835  -7.554  0.00  0.00    +0.000 HD
ENDBRANCH  18  19
ENDBRANCH  12  13
ENDBRANCH   1  11
TORSDOF 5
ENDMDL
MODEL 8
REMARK VINA RESULT:      -4.6      4.169      6.773
REMARK  Name = 445154_Resveratrol.pdbqt.pdb
REMARK  5 active torsions:
REMARK  status: ('A' for Active; 'I' for Inactive)
REMARK    1  A    between atoms: C_1  and  C_11
REMARK    2  A    between atoms: C_4  and  O_7
REMARK    3  A    between atoms: C_5  and  O_9
REMARK    4  A    between atoms: C_12  and  C_13
REMARK    5  A    between atoms: C_18  and  O_19
REMARK                            x       y       z     vdW  Elec       q    Type
REMARK                         _______ _______ _______ _____ _____    ______ ____
ROOT
ATOM      1  C   UNL     1      -5.200 -33.811  -4.968  0.00  0.00    +0.000 A 
ATOM      2  C   UNL     1      -6.347 -33.022  -4.894  0.00  0.00    +0.000 A 
ATOM      3  C   UNL     1      -4.886 -34.691  -3.933  0.00  0.00    +0.000 A 
ATOM      4  C   UNL     1      -5.727 -34.775  -2.827  0.00  0.00    +0.000 A 
ATOM      5  C   UNL     1      -7.174 -33.121  -3.780  0.00  0.00    +0.000 A 
ATOM      6  C   UNL     1      -6.875 -33.994  -2.739  0.00  0.00    +0.000 A 
ENDROOT
BRANCH   4   7
ATOM      7  O   UNL     1      -5.445 -35.628  -1.799  0.00  0.00    +0.000 OA
ATOM      8  H   UNL     1      -4.483 -35.612  -1.647  0.00  0.00    +0.000 HD
ENDBRANCH   4   7
BRANCH   5   9
ATOM      9  O   UNL     1      -8.292 -32.338  -3.729  0.00  0.00    +0.000 OA
ATOM     10  H   UNL     1      -8.881 -32.700  -3.043  0.00  0.00    +0.000 HD
ENDBRANCH   5   9
BRANCH   1  11
ATOM     11  C   UNL     1      -4.344 -33.718  -6.104  0.00  0.00    +0.000 C 
ATOM     12  C   UNL     1      -3.621 -33.640  -7.061  0.00  0.00    +0.000 C 
BRANCH  12  13
ATOM     13  C   UNL     1      -2.765 -33.548  -8.198  0.00  0.00    +0.000 A 
ATOM     14  C   UNL     1      -2.182 -34.701  -8.723  0.00  0.00    +0.000 A 
ATOM     15  C   UNL     1      -2.512 -32.307  -8.780  0.00  0.00    +0.000 A 
ATOM     16  C   UNL     1      -1.346 -34.614  -9.833  0.00  0.00    +0.000 A 
ATOM     17  C   UNL     1      -1.676 -32.215  -9.889  0.00  0.00    +0.000 A 
ATOM     18  C   UNL     1      -1.099 -33.371 -10.407  0.00  0.00    +0.000 A 
BRANCH  18  19
ATOM     19  O   UNL     1      -0.283 -33.256 -11.494  0.00  0.00    +0.000 OA
ATOM     20  H   UNL     1      -0.518 -32.439 -11.968  0.00  0.00    +0.000 HD
ENDBRANCH  18  19
ENDBRANCH  12  13
ENDBRANCH   1  11
TORSDOF 5
ENDMDL
MODEL 9
REMARK VINA RESULT:      -4.6     20.163     22.062
REMARK  Name = 445154_Resveratrol.pdbqt.pdb
REMARK  5 active torsions:
REMARK  status: ('A' for Active; 'I' for Inactive)
REMARK    1  A    between atoms: C_1  and  C_11
REMARK    2  A    between atoms: C_4  and  O_7
REMARK    3  A    between atoms: C_5  and  O_9
REMARK    4  A    between atoms: C_12  and  C_13
REMARK    5  A    between atoms: C_18  and  O_19
REMARK                            x       y       z     vdW  Elec       q    Type
REMARK                         _______ _______ _______ _____ _____    ______ ____
ROOT
ATOM      1  C   UNL     1      -0.437 -16.703 -13.842  0.00  0.00    +0.000 A 
ATOM      2  C   UNL     1       0.050 -17.449 -12.769  0.00  0.00    +0.000 A 
ATOM      3  C   UNL     1       0.381 -15.770 -14.477  0.00  0.00    +0.000 A 
ATOM      4  C   UNL     1       1.688 -15.590 -14.033  0.00  0.00    +0.000 A 
ATOM      5  C   UNL     1       1.359 -17.253 -12.340  0.00  0.00    +0.000 A 
ATOM      6  C   UNL     1       2.188 -16.326 -12.964  0.00  0.00    +0.000 A 
ENDROOT
BRANCH   4   7
ATOM      7  O   UNL     1       2.511 -14.684 -14.636  0.00  0.00    +0.000 OA
ATOM      8  H   UNL     1       1.956 -14.013 -15.073  0.00  0.00    +0.000 HD
ENDBRANCH   4   7
BRANCH   5   9
ATOM      9  O   UNL     1       1.816 -17.994 -11.288  0.00  0.00    +0.000 OA
ATOM     10  H   UNL     1       1.125 -17.997 -10.601  0.00  0.00    +0.000 HD
ENDBRANCH   5   9
BRANCH   1  11
ATOM     11  C   UNL     1      -1.778 -16.894 -14.290  0.00  0.00    +0.000 C 
ATOM     12  C   UNL     1      -2.907 -17.055 -14.668  0.00  0.00    +0.000 C 
BRANCH  12  13
ATOM     13  C   UNL     1      -4.247 -17.245 -15.116  0.00  0.00    +0.000 A 
ATOM     14  C   UNL     1      -5.095 -16.147 -15.256  0.00  0.00    +0.000 A 
ATOM     15  C   UNL     1      -4.706 -18.528 -15.413  0.00  0.00    +0.000 A 
ATOM     16  C   UNL     1      -6.404 -16.330 -15.694  0.00  0.00    +0.000 A 
ATOM     17  C   UNL     1      -6.014 -18.716 -15.850  0.00  0.00    +0.000 A 
ATOM     18  C   UNL     1      -6.854 -17.615 -15.987  0.00  0.00    +0.000 A 
BRANCH  18  19
ATOM     19  O   UNL     1      -8.131 -17.823 -16.417  0.00  0.00    +0.000 OA
ATOM     20  H   UNL     1      -8.741 -17.495 -15.733  0.00  0.00    +0.000 HD
ENDBRANCH  18  19
ENDBRANCH  12  13
ENDBRANCH   1  11
TORSDOF 5
ENDMDL
