MODEL 1
REMARK VINA RESULT:      -6.0      0.000      0.000
REMARK  Name = 448438_Violaxanthin.pdbqt.pdb
REMARK  16 active torsions:
REMARK  status: ('A' for Active; 'I' for Inactive)
REMARK    1  A    between atoms: C_1  and  C_5
REMARK    2  A    between atoms: C_2  and  C_27
REMARK    3  A    between atoms: C_3  and  C_5
REMARK    4  A    between atoms: C_3  and  C_7
REMARK    5  A    between atoms: C_6  and  C_10
REMARK    6  A    between atoms: C_8  and  C_10
REMARK    7  A    between atoms: C_8  and  C_12
REMARK    8  A    between atoms: C_11  and  C_14
REMARK    9  A    between atoms: C_19  and  O_23
REMARK   10  A    between atoms: C_25  and  C_27
REMARK   11  A    between atoms: C_25  and  C_29
REMARK   12  A    between atoms: C_28  and  C_32
REMARK   13  A    between atoms: C_30  and  C_32
REMARK   14  A    between atoms: C_30  and  C_34
REMARK   15  A    between atoms: C_33  and  C_36
REMARK   16  A    between atoms: C_41  and  O_45
REMARK                            x       y       z     vdW  Elec       q    Type
REMARK                         _______ _______ _______ _____ _____    ______ ____
ROOT
ATOM      1  C   UNL     1      -4.158 -38.372   2.065  0.00  0.00    +0.000 C 
ATOM      2  C   UNL     1      -5.076 -37.944   2.708  0.00  0.00    +0.000 C 
ENDROOT
BRANCH   2   3
ATOM      3  C   UNL     1      -6.250 -37.398   3.529  0.00  0.00    +0.000 C 
BRANCH   3   4
ATOM      4  C   UNL     1      -7.242 -36.933   4.221  0.00  0.00    +0.000 C 
ATOM      5  C   UNL     1      -8.501 -37.737   4.353  0.00  0.00    +0.000 C 
BRANCH   4   7
ATOM      6  C   UNL     1      -7.093 -34.546   5.281  0.00  0.00    +0.000 C 
ATOM      7  C   UNL     1      -7.162 -35.643   4.794  0.00  0.00    +0.000 C 
BRANCH   6   8
ATOM      8  C   UNL     1      -7.005 -33.148   5.904  0.00  0.00    +0.000 C 
BRANCH   8   9
ATOM      9  C   UNL     1      -6.932 -31.966   6.434  0.00  0.00    +0.000 C 
ATOM     10  C   UNL     1      -7.845 -30.877   5.960  0.00  0.00    +0.000 C 
BRANCH   9  12
ATOM     11  C   UNL     1      -5.350 -31.560   8.482  0.00  0.00    +0.000 C 
ATOM     12  C   UNL     1      -6.076 -31.742   7.541  0.00  0.00    +0.000 C 
BRANCH  11  14
ATOM     13  O   UNL     1      -4.031 -29.979   9.669  0.00  0.00    +0.000 OA
ATOM     14  C   UNL     1      -4.476 -31.364   9.628  0.00  0.00    +0.000 C 
ATOM     15  C   UNL     1      -4.888 -30.374  10.739  0.00  0.00    +0.000 C 
ATOM     16  C   UNL     1      -3.403 -32.450   9.975  0.00  0.00    +0.000 C 
ATOM     17  C   UNL     1      -4.190 -30.468  11.979  0.00  0.00    +0.000 C 
ATOM     18  C   UNL     1      -2.868 -32.132  11.306  0.00  0.00    +0.000 C 
ATOM     19  C   UNL     1      -3.128 -31.284  12.402  0.00  0.00    +0.000 C 
ATOM     20  C   UNL     1      -6.232 -29.639  10.745  0.00  0.00    +0.000 C 
ATOM     21  C   UNL     1      -4.160 -33.800  10.011  0.00  0.00    +0.000 C 
ATOM     22  C   UNL     1      -2.335 -32.387   8.862  0.00  0.00    +0.000 C 
BRANCH  19  23
ATOM     23  O   UNL     1      -2.143 -30.811  13.214  0.00  0.00    +0.000 OA
ATOM     24  H   UNL     1      -2.451 -30.650  14.124  0.00  0.00    +0.000 HD
ENDBRANCH  19  23
ENDBRANCH  11  14
ENDBRANCH   9  12
ENDBRANCH   8   9
ENDBRANCH   6   8
ENDBRANCH   4   7
ENDBRANCH   3   4
ENDBRANCH   2   3
BRANCH   1  25
ATOM     25  C   UNL     1      -2.984 -38.918   1.243  0.00  0.00    +0.000 C 
BRANCH  25  26
ATOM     26  C   UNL     1      -1.992 -39.380   0.549  0.00  0.00    +0.000 C 
ATOM     27  C   UNL     1      -0.942 -40.217   1.215  0.00  0.00    +0.000 C 
BRANCH  26  29
ATOM     28  C   UNL     1      -1.845 -38.892  -2.016  0.00  0.00    +0.000 C 
ATOM     29  C   UNL     1      -1.915 -39.116  -0.838  0.00  0.00    +0.000 C 
BRANCH  28  30
ATOM     30  C   UNL     1      -1.749 -38.603  -3.519  0.00  0.00    +0.000 C 
BRANCH  30  31
ATOM     31  C   UNL     1      -1.664 -38.358  -4.789  0.00  0.00    +0.000 C 
ATOM     32  C   UNL     1      -0.917 -39.300  -5.683  0.00  0.00    +0.000 C 
BRANCH  31  34
ATOM     33  C   UNL     1      -2.871 -36.267  -5.807  0.00  0.00    +0.000 C 
ATOM     34  C   UNL     1      -2.317 -37.226  -5.337  0.00  0.00    +0.000 C 
BRANCH  33  36
ATOM     35  O   UNL     1      -4.800 -34.876  -5.679  0.00  0.00    +0.000 OA
ATOM     36  C   UNL     1      -3.545 -35.111  -6.380  0.00  0.00    +0.000 C 
ATOM     37  C   UNL     1      -3.806 -33.868  -5.504  0.00  0.00    +0.000 C 
ATOM     38  C   UNL     1      -3.577 -34.934  -7.940  0.00  0.00    +0.000 C 
ATOM     39  C   UNL     1      -4.142 -32.656  -6.177  0.00  0.00    +0.000 C 
ATOM     40  C   UNL     1      -4.037 -33.570  -8.208  0.00  0.00    +0.000 C 
ATOM     41  C   UNL     1      -4.321 -32.364  -7.539  0.00  0.00    +0.000 C 
ATOM     42  C   UNL     1      -3.327 -33.736  -4.056  0.00  0.00    +0.000 C 
ATOM     43  C   UNL     1      -4.527 -36.029  -8.477  0.00  0.00    +0.000 C 
ATOM     44  C   UNL     1      -2.113 -35.131  -8.412  0.00  0.00    +0.000 C 
BRANCH  41  45
ATOM     45  O   UNL     1      -3.998 -31.158  -8.084  0.00  0.00    +0.000 OA
ATOM     46  H   UNL     1      -4.745 -30.532  -8.071  0.00  0.00    +0.000 HD
ENDBRANCH  41  45
ENDBRANCH  33  36
ENDBRANCH  31  34
ENDBRANCH  30  31
ENDBRANCH  28  30
ENDBRANCH  26  29
ENDBRANCH  25  26
ENDBRANCH   1  25
TORSDOF 16
ENDMDL
MODEL 2
REMARK VINA RESULT:      -5.9     11.071     18.681
REMARK  Name = 448438_Violaxanthin.pdbqt.pdb
REMARK  16 active torsions:
REMARK  status: ('A' for Active; 'I' for Inactive)
REMARK    1  A    between atoms: C_1  and  C_5
REMARK    2  A    between atoms: C_2  and  C_27
REMARK    3  A    between atoms: C_3  and  C_5
REMARK    4  A    between atoms: C_3  and  C_7
REMARK    5  A    between atoms: C_6  and  C_10
REMARK    6  A    between atoms: C_8  and  C_10
REMARK    7  A    between atoms: C_8  and  C_12
REMARK    8  A    between atoms: C_11  and  C_14
REMARK    9  A    between atoms: C_19  and  O_23
REMARK   10  A    between atoms: C_25  and  C_27
REMARK   11  A    between atoms: C_25  and  C_29
REMARK   12  A    between atoms: C_28  and  C_32
REMARK   13  A    between atoms: C_30  and  C_32
REMARK   14  A    between atoms: C_30  and  C_34
REMARK   15  A    between atoms: C_33  and  C_36
REMARK   16  A    between atoms: C_41  and  O_45
REMARK                            x       y       z     vdW  Elec       q    Type
REMARK                         _______ _______ _______ _____ _____    ______ ____
ROOT
ATOM      1  C   UNL     1       4.327 -27.833 -11.261  0.00  0.00    +0.000 C 
ATOM      2  C   UNL     1       3.502 -28.553 -11.751  0.00  0.00    +0.000 C 
ENDROOT
BRANCH   2   3
ATOM      3  C   UNL     1       2.447 -29.471 -12.379  0.00  0.00    +0.000 C 
BRANCH   3   4
ATOM      4  C   UNL     1       1.555 -30.248 -12.908  0.00  0.00    +0.000 C 
ATOM      5  C   UNL     1       0.965 -29.905 -14.243  0.00  0.00    +0.000 C 
BRANCH   4   7
ATOM      6  C   UNL     1       0.693 -32.338 -11.592  0.00  0.00    +0.000 C 
ATOM      7  C   UNL     1       1.089 -31.378 -12.196  0.00  0.00    +0.000 C 
BRANCH   6   8
ATOM      8  C   UNL     1       0.187 -33.564 -10.822  0.00  0.00    +0.000 C 
BRANCH   8   9
ATOM      9  C   UNL     1      -0.240 -34.603 -10.174  0.00  0.00    +0.000 C 
ATOM     10  C   UNL     1       0.594 -35.846 -10.120  0.00  0.00    +0.000 C 
BRANCH   9  12
ATOM     11  C   UNL     1      -2.452 -34.456  -8.779  0.00  0.00    +0.000 C 
ATOM     12  C   UNL     1      -1.436 -34.519  -9.418  0.00  0.00    +0.000 C 
BRANCH  11  14
ATOM     13  O   UNL     1      -4.322 -35.711  -8.019  0.00  0.00    +0.000 OA
ATOM     14  C   UNL     1      -3.690 -34.400  -8.016  0.00  0.00    +0.000 C 
ATOM     15  C   UNL     1      -3.843 -35.270  -6.749  0.00  0.00    +0.000 C 
ATOM     16  C   UNL     1      -4.642 -33.167  -8.178  0.00  0.00    +0.000 C 
ATOM     17  C   UNL     1      -4.906 -34.935  -5.860  0.00  0.00    +0.000 C 
ATOM     18  C   UNL     1      -5.648 -33.244  -7.109  0.00  0.00    +0.000 C 
ATOM     19  C   UNL     1      -5.915 -33.959  -5.925  0.00  0.00    +0.000 C 
ATOM     20  C   UNL     1      -2.711 -36.137  -6.191  0.00  0.00    +0.000 C 
ATOM     21  C   UNL     1      -3.753 -31.915  -7.989  0.00  0.00    +0.000 C 
ATOM     22  C   UNL     1      -5.252 -33.265  -9.593  0.00  0.00    +0.000 C 
BRANCH  19  23
ATOM     23  O   UNL     1      -7.180 -34.209  -5.487  0.00  0.00    +0.000 OA
ATOM     24  H   UNL     1      -7.775 -33.447  -5.601  0.00  0.00    +0.000 HD
ENDBRANCH  19  23
ENDBRANCH  11  14
ENDBRANCH   9  12
ENDBRANCH   8   9
ENDBRANCH   6   8
ENDBRANCH   4   7
ENDBRANCH   3   4
ENDBRANCH   2   3
BRANCH   1  25
ATOM     25  C   UNL     1       5.381 -26.913 -10.633  0.00  0.00    +0.000 C 
BRANCH  25  26
ATOM     26  C   UNL     1       6.272 -26.136 -10.103  0.00  0.00    +0.000 C 
ATOM     27  C   UNL     1       7.415 -26.727  -9.334  0.00  0.00    +0.000 C 
BRANCH  26  29
ATOM     28  C   UNL     1       6.099 -23.545 -10.412  0.00  0.00    +0.000 C 
ATOM     29  C   UNL     1       6.180 -24.735 -10.271  0.00  0.00    +0.000 C 
BRANCH  28  30
ATOM     30  C   UNL     1       5.990 -22.025 -10.587  0.00  0.00    +0.000 C 
BRANCH  30  31
ATOM     31  C   UNL     1       5.900 -20.741 -10.740  0.00  0.00    +0.000 C 
ATOM     32  C   UNL     1       7.066 -19.865 -10.397  0.00  0.00    +0.000 C 
BRANCH  31  34
ATOM     33  C   UNL     1       3.712 -19.689 -11.725  0.00  0.00    +0.000 C 
ATOM     34  C   UNL     1       4.718 -20.173 -11.276  0.00  0.00    +0.000 C 
BRANCH  33  36
ATOM     35  O   UNL     1       1.551 -18.846 -11.184  0.00  0.00    +0.000 OA
ATOM     36  C   UNL     1       2.495 -19.100 -12.263  0.00  0.00    +0.000 C 
ATOM     37  C   UNL     1       2.074 -17.682 -11.822  0.00  0.00    +0.000 C 
ATOM     38  C   UNL     1       1.889 -19.668 -13.596  0.00  0.00    +0.000 C 
ATOM     39  C   UNL     1       1.093 -17.017 -12.618  0.00  0.00    +0.000 C 
ATOM     40  C   UNL     1       0.875 -18.713 -14.048  0.00  0.00    +0.000 C 
ATOM     41  C   UNL     1       0.380 -17.427 -13.756  0.00  0.00    +0.000 C 
ATOM     42  C   UNL     1       2.908 -16.802 -10.888  0.00  0.00    +0.000 C 
ATOM     43  C   UNL     1       1.320 -21.063 -13.247  0.00  0.00    +0.000 C 
ATOM     44  C   UNL     1       3.072 -19.739 -14.596  0.00  0.00    +0.000 C 
BRANCH  41  45
ATOM     45  O   UNL     1       0.012 -16.567 -14.746  0.00  0.00    +0.000 OA
ATOM     46  H   UNL     1       0.727 -15.951 -14.987  0.00  0.00    +0.000 HD
ENDBRANCH  41  45
ENDBRANCH  33  36
ENDBRANCH  31  34
ENDBRANCH  30  31
ENDBRANCH  28  30
ENDBRANCH  26  29
ENDBRANCH  25  26
ENDBRANCH   1  25
TORSDOF 16
ENDMDL
MODEL 3
REMARK VINA RESULT:      -5.8      8.851     13.794
REMARK  Name = 448438_Violaxanthin.pdbqt.pdb
REMARK  16 active torsions:
REMARK  status: ('A' for Active; 'I' for Inactive)
REMARK    1  A    between atoms: C_1  and  C_5
REMARK    2  A    between atoms: C_2  and  C_27
REMARK    3  A    between atoms: C_3  and  C_5
REMARK    4  A    between atoms: C_3  and  C_7
REMARK    5  A    between atoms: C_6  and  C_10
REMARK    6  A    between atoms: C_8  and  C_10
REMARK    7  A    between atoms: C_8  and  C_12
REMARK    8  A    between atoms: C_11  and  C_14
REMARK    9  A    between atoms: C_19  and  O_23
REMARK   10  A    between atoms: C_25  and  C_27
REMARK   11  A    between atoms: C_25  and  C_29
REMARK   12  A    between atoms: C_28  and  C_32
REMARK   13  A    between atoms: C_30  and  C_32
REMARK   14  A    between atoms: C_30  and  C_34
REMARK   15  A    between atoms: C_33  and  C_36
REMARK   16  A    between atoms: C_41  and  O_45
REMARK                            x       y       z     vdW  Elec       q    Type
REMARK                         _______ _______ _______ _____ _____    ______ ____
ROOT
ATOM      1  C   UNL     1       2.415 -31.869  -9.859  0.00  0.00    +0.000 C 
ATOM      2  C   UNL     1       3.335 -31.657  -9.119  0.00  0.00    +0.000 C 
ENDROOT
BRANCH   2   3
ATOM      3  C   UNL     1       4.510 -31.387  -8.172  0.00  0.00    +0.000 C 
BRANCH   3   4
ATOM      4  C   UNL     1       5.504 -31.162  -7.371  0.00  0.00    +0.000 C 
ATOM      5  C   UNL     1       6.862 -31.707  -7.697  0.00  0.00    +0.000 C 
BRANCH   4   7
ATOM      6  C   UNL     1       5.112 -29.870  -5.131  0.00  0.00    +0.000 C 
ATOM      7  C   UNL     1       5.292 -30.463  -6.160  0.00  0.00    +0.000 C 
BRANCH   6   8
ATOM      8  C   UNL     1       4.880 -29.111  -3.818  0.00  0.00    +0.000 C 
BRANCH   8   9
ATOM      9  C   UNL     1       4.686 -28.472  -2.706  0.00  0.00    +0.000 C 
ATOM     10  C   UNL     1       4.595 -29.228  -1.416  0.00  0.00    +0.000 C 
BRANCH   9  12
ATOM     11  C   UNL     1       4.684 -25.853  -2.702  0.00  0.00    +0.000 C 
ATOM     12  C   UNL     1       4.684 -27.055  -2.699  0.00  0.00    +0.000 C 
BRANCH  11  14
ATOM     13  O   UNL     1       3.841 -23.889  -1.662  0.00  0.00    +0.000 OA
ATOM     14  C   UNL     1       4.688 -24.398  -2.730  0.00  0.00    +0.000 C 
ATOM     15  C   UNL     1       5.234 -23.615  -1.516  0.00  0.00    +0.000 C 
ATOM     16  C   UNL     1       4.600 -23.652  -4.104  0.00  0.00    +0.000 C 
ATOM     17  C   UNL     1       5.535 -22.236  -1.719  0.00  0.00    +0.000 C 
ATOM     18  C   UNL     1       4.900 -22.235  -3.856  0.00  0.00    +0.000 C 
ATOM     19  C   UNL     1       5.389 -21.396  -2.836  0.00  0.00    +0.000 C 
ATOM     20  C   UNL     1       5.864 -24.297  -0.299  0.00  0.00    +0.000 C 
ATOM     21  C   UNL     1       5.694 -24.282  -5.001  0.00  0.00    +0.000 C 
ATOM     22  C   UNL     1       3.172 -23.885  -4.642  0.00  0.00    +0.000 C 
BRANCH  19  23
ATOM     23  O   UNL     1       5.005 -20.096  -2.706  0.00  0.00    +0.000 OA
ATOM     24  H   UNL     1       5.037 -19.784  -1.784  0.00  0.00    +0.000 HD
ENDBRANCH  19  23
ENDBRANCH  11  14
ENDBRANCH   9  12
ENDBRANCH   8   9
ENDBRANCH   6   8
ENDBRANCH   4   7
ENDBRANCH   3   4
ENDBRANCH   2   3
BRANCH   1  25
ATOM     25  C   UNL     1       1.238 -32.139 -10.806  0.00  0.00    +0.000 C 
BRANCH  25  26
ATOM     26  C   UNL     1       0.245 -32.367 -11.605  0.00  0.00    +0.000 C 
ATOM     27  C   UNL     1       0.380 -32.067 -13.068  0.00  0.00    +0.000 C 
BRANCH  26  29
ATOM     28  C   UNL     1      -1.976 -33.390 -10.676  0.00  0.00    +0.000 C 
ATOM     29  C   UNL     1      -0.955 -32.922 -11.103  0.00  0.00    +0.000 C 
BRANCH  28  30
ATOM     30  C   UNL     1      -3.281 -33.982 -10.129  0.00  0.00    +0.000 C 
BRANCH  30  31
ATOM     31  C   UNL     1      -4.385 -34.477  -9.665  0.00  0.00    +0.000 C 
ATOM     32  C   UNL     1      -5.454 -34.936 -10.610  0.00  0.00    +0.000 C 
BRANCH  31  34
ATOM     33  C   UNL     1      -4.707 -34.750  -7.079  0.00  0.00    +0.000 C 
ATOM     34  C   UNL     1      -4.560 -34.627  -8.267  0.00  0.00    +0.000 C 
BRANCH  33  36
ATOM     35  O   UNL     1      -5.834 -33.893  -5.164  0.00  0.00    +0.000 OA
ATOM     36  C   UNL     1      -4.887 -34.891  -5.642  0.00  0.00    +0.000 C 
ATOM     37  C   UNL     1      -6.280 -35.245  -5.079  0.00  0.00    +0.000 C 
ATOM     38  C   UNL     1      -3.634 -35.153  -4.732  0.00  0.00    +0.000 C 
ATOM     39  C   UNL     1      -6.338 -35.710  -3.731  0.00  0.00    +0.000 C 
ATOM     40  C   UNL     1      -4.137 -35.549  -3.414  0.00  0.00    +0.000 C 
ATOM     41  C   UNL     1      -5.337 -35.888  -2.761  0.00  0.00    +0.000 C 
ATOM     42  C   UNL     1      -7.500 -35.536  -5.956  0.00  0.00    +0.000 C 
ATOM     43  C   UNL     1      -2.828 -33.834  -4.722  0.00  0.00    +0.000 C 
ATOM     44  C   UNL     1      -2.865 -36.318  -5.406  0.00  0.00    +0.000 C 
BRANCH  41  45
ATOM     45  O   UNL     1      -5.381 -36.880  -1.829  0.00  0.00    +0.000 OA
ATOM     46  H   UNL     1      -4.640 -36.831  -1.198  0.00  0.00    +0.000 HD
ENDBRANCH  41  45
ENDBRANCH  33  36
ENDBRANCH  31  34
ENDBRANCH  30  31
ENDBRANCH  28  30
ENDBRANCH  26  29
ENDBRANCH  25  26
ENDBRANCH   1  25
TORSDOF 16
ENDMDL
MODEL 4
REMARK VINA RESULT:      -5.7      1.466      2.021
REMARK  Name = 448438_Violaxanthin.pdbqt.pdb
REMARK  16 active torsions:
REMARK  status: ('A' for Active; 'I' for Inactive)
REMARK    1  A    between atoms: C_1  and  C_5
REMARK    2  A    between atoms: C_2  and  C_27
REMARK    3  A    between atoms: C_3  and  C_5
REMARK    4  A    between atoms: C_3  and  C_7
REMARK    5  A    between atoms: C_6  and  C_10
REMARK    6  A    between atoms: C_8  and  C_10
REMARK    7  A    between atoms: C_8  and  C_12
REMARK    8  A    between atoms: C_11  and  C_14
REMARK    9  A    between atoms: C_19  and  O_23
REMARK   10  A    between atoms: C_25  and  C_27
REMARK   11  A    between atoms: C_25  and  C_29
REMARK   12  A    between atoms: C_28  and  C_32
REMARK   13  A    between atoms: C_30  and  C_32
REMARK   14  A    between atoms: C_30  and  C_34
REMARK   15  A    between atoms: C_33  and  C_36
REMARK   16  A    between atoms: C_41  and  O_45
REMARK                            x       y       z     vdW  Elec       q    Type
REMARK                         _______ _______ _______ _____ _____    ______ ____
ROOT
ATOM      1  C   UNL     1      -4.426 -36.943   1.651  0.00  0.00    +0.000 C 
ATOM      2  C   UNL     1      -5.358 -36.474   2.243  0.00  0.00    +0.000 C 
ENDROOT
BRANCH   2   3
ATOM      3  C   UNL     1      -6.550 -35.875   2.997  0.00  0.00    +0.000 C 
BRANCH   3   4
ATOM      4  C   UNL     1      -7.557 -35.366   3.635  0.00  0.00    +0.000 C 
ATOM      5  C   UNL     1      -8.954 -35.766   3.264  0.00  0.00    +0.000 C 
BRANCH   4   7
ATOM      6  C   UNL     1      -7.158 -33.551   5.476  0.00  0.00    +0.000 C 
ATOM      7  C   UNL     1      -7.342 -34.384   4.630  0.00  0.00    +0.000 C 
BRANCH   6   8
ATOM      8  C   UNL     1      -6.924 -32.489   6.557  0.00  0.00    +0.000 C 
BRANCH   8   9
ATOM      9  C   UNL     1      -6.730 -31.590   7.472  0.00  0.00    +0.000 C 
ATOM     10  C   UNL     1      -7.756 -30.524   7.702  0.00  0.00    +0.000 C 
BRANCH   9  12
ATOM     11  C   UNL     1      -4.661 -31.784   9.067  0.00  0.00    +0.000 C 
ATOM     12  C   UNL     1      -5.608 -31.692   8.332  0.00  0.00    +0.000 C 
BRANCH  11  14
ATOM     13  O   UNL     1      -3.079 -30.589  10.378  0.00  0.00    +0.000 OA
ATOM     14  C   UNL     1      -3.527 -31.912   9.969  0.00  0.00    +0.000 C 
ATOM     15  C   UNL     1      -3.643 -31.387  11.417  0.00  0.00    +0.000 C 
ATOM     16  C   UNL     1      -2.406 -32.961   9.657  0.00  0.00    +0.000 C 
ATOM     17  C   UNL     1      -2.658 -31.834  12.347  0.00  0.00    +0.000 C 
ATOM     18  C   UNL     1      -1.555 -33.063  10.850  0.00  0.00    +0.000 C 
ATOM     19  C   UNL     1      -1.529 -32.655  12.199  0.00  0.00    +0.000 C 
ATOM     20  C   UNL     1      -4.939 -30.809  11.993  0.00  0.00    +0.000 C 
ATOM     21  C   UNL     1      -3.138 -34.301   9.404  0.00  0.00    +0.000 C 
ATOM     22  C   UNL     1      -1.650 -32.442   8.415  0.00  0.00    +0.000 C 
BRANCH  19  23
ATOM     23  O   UNL     1      -0.370 -32.403  12.867  0.00  0.00    +0.000 OA
ATOM     24  H   UNL     1       0.372 -32.196  12.271  0.00  0.00    +0.000 HD
ENDBRANCH  19  23
ENDBRANCH  11  14
ENDBRANCH   9  12
ENDBRANCH   8   9
ENDBRANCH   6   8
ENDBRANCH   4   7
ENDBRANCH   3   4
ENDBRANCH   2   3
BRANCH   1  25
ATOM     25  C   UNL     1      -3.233 -37.542   0.895  0.00  0.00    +0.000 C 
BRANCH  25  26
ATOM     26  C   UNL     1      -2.225 -38.048   0.257  0.00  0.00    +0.000 C 
ATOM     27  C   UNL     1      -1.061 -38.604   1.021  0.00  0.00    +0.000 C 
BRANCH  26  29
ATOM     28  C   UNL     1      -2.240 -38.142  -2.356  0.00  0.00    +0.000 C 
ATOM     29  C   UNL     1      -2.235 -38.100  -1.156  0.00  0.00    +0.000 C 
BRANCH  28  30
ATOM     30  C   UNL     1      -2.241 -38.192  -3.890  0.00  0.00    +0.000 C 
BRANCH  30  31
ATOM     31  C   UNL     1      -2.237 -38.232  -5.185  0.00  0.00    +0.000 C 
ATOM     32  C   UNL     1      -1.771 -39.467  -5.893  0.00  0.00    +0.000 C 
BRANCH  31  34
ATOM     33  C   UNL     1      -3.122 -36.183  -6.558  0.00  0.00    +0.000 C 
ATOM     34  C   UNL     1      -2.718 -37.126  -5.928  0.00  0.00    +0.000 C 
BRANCH  33  36
ATOM     35  O   UNL     1      -2.634 -33.959  -7.255  0.00  0.00    +0.000 OA
ATOM     36  C   UNL     1      -3.604 -35.043  -7.323  0.00  0.00    +0.000 C 
ATOM     37  C   UNL     1      -2.801 -34.547  -8.543  0.00  0.00    +0.000 C 
ATOM     38  C   UNL     1      -5.116 -34.629  -7.217  0.00  0.00    +0.000 C 
ATOM     39  C   UNL     1      -3.469 -33.675  -9.453  0.00  0.00    +0.000 C 
ATOM     40  C   UNL     1      -5.376 -33.674  -8.296  0.00  0.00    +0.000 C 
ATOM     41  C   UNL     1      -4.763 -33.127  -9.440  0.00  0.00    +0.000 C 
ATOM     42  C   UNL     1      -1.536 -35.237  -9.062  0.00  0.00    +0.000 C 
ATOM     43  C   UNL     1      -5.301 -34.037  -5.802  0.00  0.00    +0.000 C 
ATOM     44  C   UNL     1      -5.922 -35.937  -7.427  0.00  0.00    +0.000 C 
BRANCH  41  45
ATOM     45  O   UNL     1      -5.472 -32.884 -10.577  0.00  0.00    +0.000 OA
ATOM     46  H   UNL     1      -6.231 -32.293 -10.423  0.00  0.00    +0.000 HD
ENDBRANCH  41  45
ENDBRANCH  33  36
ENDBRANCH  31  34
ENDBRANCH  30  31
ENDBRANCH  28  30
ENDBRANCH  26  29
ENDBRANCH  25  26
ENDBRANCH   1  25
TORSDOF 16
ENDMDL
MODEL 5
REMARK VINA RESULT:      -5.5     21.486     24.102
REMARK  Name = 448438_Violaxanthin.pdbqt.pdb
REMARK  16 active torsions:
REMARK  status: ('A' for Active; 'I' for Inactive)
REMARK    1  A    between atoms: C_1  and  C_5
REMARK    2  A    between atoms: C_2  and  C_27
REMARK    3  A    between atoms: C_3  and  C_5
REMARK    4  A    between atoms: C_3  and  C_7
REMARK    5  A    between atoms: C_6  and  C_10
REMARK    6  A    between atoms: C_8  and  C_10
REMARK    7  A    between atoms: C_8  and  C_12
REMARK    8  A    between atoms: C_11  and  C_14
REMARK    9  A    between atoms: C_19  and  O_23
REMARK   10  A    between atoms: C_25  and  C_27
REMARK   11  A    between atoms: C_25  and  C_29
REMARK   12  A    between atoms: C_28  and  C_32
REMARK   13  A    between atoms: C_30  and  C_32
REMARK   14  A    between atoms: C_30  and  C_34
REMARK   15  A    between atoms: C_33  and  C_36
REMARK   16  A    between atoms: C_41  and  O_45
REMARK                            x       y       z     vdW  Elec       q    Type
REMARK                         _______ _______ _______ _____ _____    ______ ____
ROOT
ATOM      1  C   UNL     1     -19.033 -26.293 -16.829  0.00  0.00    +0.000 C 
ATOM      2  C   UNL     1     -19.833 -26.197 -15.940  0.00  0.00    +0.000 C 
ENDROOT
BRANCH   2   3
ATOM      3  C   UNL     1     -20.856 -26.077 -14.805  0.00  0.00    +0.000 C 
BRANCH   3   4
ATOM      4  C   UNL     1     -21.719 -25.976 -13.843  0.00  0.00    +0.000 C 
ATOM      5  C   UNL     1     -23.038 -26.682 -13.947  0.00  0.00    +0.000 C 
BRANCH   4   7
ATOM      6  C   UNL     1     -21.213 -24.441 -11.787  0.00  0.00    +0.000 C 
ATOM      7  C   UNL     1     -21.445 -25.146 -12.731  0.00  0.00    +0.000 C 
BRANCH   6   8
ATOM      8  C   UNL     1     -20.917 -23.542 -10.579  0.00  0.00    +0.000 C 
BRANCH   8   9
ATOM      9  C   UNL     1     -20.666 -22.780  -9.561  0.00  0.00    +0.000 C 
ATOM     10  C   UNL     1     -20.828 -23.313  -8.171  0.00  0.00    +0.000 C 
BRANCH   9  12
ATOM     11  C   UNL     1     -19.654 -20.392  -9.931  0.00  0.00    +0.000 C 
ATOM     12  C   UNL     1     -20.121 -21.487  -9.765  0.00  0.00    +0.000 C 
BRANCH  11  14
ATOM     13  O   UNL     1     -18.373 -19.013 -11.382  0.00  0.00    +0.000 OA
ATOM     14  C   UNL     1     -19.078 -19.068 -10.111  0.00  0.00    +0.000 C 
ATOM     15  C   UNL     1     -19.537 -18.192 -11.296  0.00  0.00    +0.000 C 
ATOM     16  C   UNL     1     -18.385 -18.358  -8.899  0.00  0.00    +0.000 C 
ATOM     17  C   UNL     1     -19.212 -16.805 -11.238  0.00  0.00    +0.000 C 
ATOM     18  C   UNL     1     -18.149 -16.959  -9.284  0.00  0.00    +0.000 C 
ATOM     19  C   UNL     1     -18.491 -16.046 -10.301  0.00  0.00    +0.000 C 
ATOM     20  C   UNL     1     -20.650 -18.611 -12.261  0.00  0.00    +0.000 C 
ATOM     21  C   UNL     1     -19.396 -18.429  -7.729  0.00  0.00    +0.000 C 
ATOM     22  C   UNL     1     -17.082 -19.137  -8.618  0.00  0.00    +0.000 C 
BRANCH  19  23
ATOM     23  O   UNL     1     -17.667 -15.033 -10.686  0.00  0.00    +0.000 OA
ATOM     24  H   UNL     1     -17.893 -14.183 -10.267  0.00  0.00    +0.000 HD
ENDBRANCH  19  23
ENDBRANCH  11  14
ENDBRANCH   9  12
ENDBRANCH   8   9
ENDBRANCH   6   8
ENDBRANCH   4   7
ENDBRANCH   3   4
ENDBRANCH   2   3
BRANCH   1  25
ATOM     25  C   UNL     1     -18.010 -26.414 -17.965  0.00  0.00    +0.000 C 
BRANCH  25  26
ATOM     26  C   UNL     1     -17.146 -26.516 -18.925  0.00  0.00    +0.000 C 
ATOM     27  C   UNL     1     -17.421 -27.429 -20.082  0.00  0.00    +0.000 C 
BRANCH  26  29
ATOM     28  C   UNL     1     -14.949 -25.098 -18.870  0.00  0.00    +0.000 C 
ATOM     29  C   UNL     1     -15.959 -25.748 -18.894  0.00  0.00    +0.000 C 
BRANCH  28  30
ATOM     30  C   UNL     1     -13.656 -24.273 -18.843  0.00  0.00    +0.000 C 
BRANCH  30  31
ATOM     31  C   UNL     1     -12.562 -23.578 -18.815  0.00  0.00    +0.000 C 
ATOM     32  C   UNL     1     -12.629 -22.083 -18.748  0.00  0.00    +0.000 C 
BRANCH  31  34
ATOM     33  C   UNL     1     -10.242 -24.796 -18.782  0.00  0.00    +0.000 C 
ATOM     34  C   UNL     1     -11.307 -24.235 -18.800  0.00  0.00    +0.000 C 
BRANCH  33  36
ATOM     35  O   UNL     1      -8.705 -26.095 -20.055  0.00  0.00    +0.000 OA
ATOM     36  C   UNL     1      -8.958 -25.480 -18.759  0.00  0.00    +0.000 C 
ATOM     37  C   UNL     1      -7.832 -25.021 -19.709  0.00  0.00    +0.000 C 
ATOM     38  C   UNL     1      -8.560 -26.328 -17.498  0.00  0.00    +0.000 C 
ATOM     39  C   UNL     1      -6.510 -25.472 -19.417  0.00  0.00    +0.000 C 
ATOM     40  C   UNL     1      -7.134 -26.636 -17.621  0.00  0.00    +0.000 C 
ATOM     41  C   UNL     1      -6.013 -26.316 -18.410  0.00  0.00    +0.000 C 
ATOM     42  C   UNL     1      -7.952 -23.817 -20.647  0.00  0.00    +0.000 C 
ATOM     43  C   UNL     1      -9.472 -27.576 -17.516  0.00  0.00    +0.000 C 
ATOM     44  C   UNL     1      -8.828 -25.410 -16.277  0.00  0.00    +0.000 C 
BRANCH  41  45
ATOM     45  O   UNL     1      -4.779 -26.155 -17.856  0.00  0.00    +0.000 OA
ATOM     46  H   UNL     1      -4.324 -27.004 -17.709  0.00  0.00    +0.000 HD
ENDBRANCH  41  45
ENDBRANCH  33  36
ENDBRANCH  31  34
ENDBRANCH  30  31
ENDBRANCH  28  30
ENDBRANCH  26  29
ENDBRANCH  25  26
ENDBRANCH   1  25
TORSDOF 16
ENDMDL
MODEL 6
REMARK VINA RESULT:      -5.5     10.042     16.012
REMARK  Name = 448438_Violaxanthin.pdbqt.pdb
REMARK  16 active torsions:
REMARK  status: ('A' for Active; 'I' for Inactive)
REMARK    1  A    between atoms: C_1  and  C_5
REMARK    2  A    between atoms: C_2  and  C_27
REMARK    3  A    between atoms: C_3  and  C_5
REMARK    4  A    between atoms: C_3  and  C_7
REMARK    5  A    between atoms: C_6  and  C_10
REMARK    6  A    between atoms: C_8  and  C_10
REMARK    7  A    between atoms: C_8  and  C_12
REMARK    8  A    between atoms: C_11  and  C_14
REMARK    9  A    between atoms: C_19  and  O_23
REMARK   10  A    between atoms: C_25  and  C_27
REMARK   11  A    between atoms: C_25  and  C_29
REMARK   12  A    between atoms: C_28  and  C_32
REMARK   13  A    between atoms: C_30  and  C_32
REMARK   14  A    between atoms: C_30  and  C_34
REMARK   15  A    between atoms: C_33  and  C_36
REMARK   16  A    between atoms: C_41  and  O_45
REMARK                            x       y       z     vdW  Elec       q    Type
REMARK                         _______ _______ _______ _____ _____    ______ ____
ROOT
ATOM      1  C   UNL     1     -11.000 -23.154   6.745  0.00  0.00    +0.000 C 
ATOM      2  C   UNL     1     -11.343 -24.301   6.669  0.00  0.00    +0.000 C 
ENDROOT
BRANCH   2   3
ATOM      3  C   UNL     1     -11.780 -25.767   6.573  0.00  0.00    +0.000 C 
BRANCH   3   4
ATOM      4  C   UNL     1     -12.147 -27.008   6.494  0.00  0.00    +0.000 C 
ATOM      5  C   UNL     1     -13.537 -27.401   6.893  0.00  0.00    +0.000 C 
BRANCH   4   7
ATOM      6  C   UNL     1     -10.427 -28.838   5.761  0.00  0.00    +0.000 C 
ATOM      7  C   UNL     1     -11.217 -27.997   6.097  0.00  0.00    +0.000 C 
BRANCH   6   8
ATOM      8  C   UNL     1      -9.418 -29.911   5.333  0.00  0.00    +0.000 C 
BRANCH   8   9
ATOM      9  C   UNL     1      -8.563 -30.816   4.973  0.00  0.00    +0.000 C 
ATOM     10  C   UNL     1      -7.491 -31.252   5.925  0.00  0.00    +0.000 C 
BRANCH   9  12
ATOM     11  C   UNL     1      -8.849 -32.032   2.671  0.00  0.00    +0.000 C 
ATOM     12  C   UNL     1      -8.718 -31.478   3.730  0.00  0.00    +0.000 C 
BRANCH  11  14
ATOM     13  O   UNL     1      -8.299 -33.953   1.383  0.00  0.00    +0.000 OA
ATOM     14  C   UNL     1      -9.006 -32.681   1.377  0.00  0.00    +0.000 C 
ATOM     15  C   UNL     1      -9.720 -34.047   1.293  0.00  0.00    +0.000 C 
ATOM     16  C   UNL     1      -8.895 -31.828   0.068  0.00  0.00    +0.000 C 
ATOM     17  C   UNL     1     -10.150 -34.472   0.001  0.00  0.00    +0.000 C 
ATOM     18  C   UNL     1      -9.361 -32.668  -1.044  0.00  0.00    +0.000 C 
ATOM     19  C   UNL     1     -10.012 -33.896  -1.273  0.00  0.00    +0.000 C 
ATOM     20  C   UNL     1     -10.363 -34.728   2.504  0.00  0.00    +0.000 C 
ATOM     21  C   UNL     1      -9.845 -30.622   0.264  0.00  0.00    +0.000 C 
ATOM     22  C   UNL     1      -7.414 -31.413  -0.064  0.00  0.00    +0.000 C 
BRANCH  19  23
ATOM     23  O   UNL     1      -9.778 -34.656  -2.378  0.00  0.00    +0.000 OA
ATOM     24  H   UNL     1     -10.591 -35.048  -2.745  0.00  0.00    +0.000 HD
ENDBRANCH  19  23
ENDBRANCH  11  14
ENDBRANCH   9  12
ENDBRANCH   8   9
ENDBRANCH   6   8
ENDBRANCH   4   7
ENDBRANCH   3   4
ENDBRANCH   2   3
BRANCH   1  25
ATOM     25  C   UNL     1     -10.563 -21.687   6.842  0.00  0.00    +0.000 C 
BRANCH  25  26
ATOM     26  C   UNL     1     -10.193 -20.448   6.924  0.00  0.00    +0.000 C 
ATOM     27  C   UNL     1     -11.169 -19.407   7.383  0.00  0.00    +0.000 C 
BRANCH  26  29
ATOM     28  C   UNL     1      -7.737 -19.770   6.334  0.00  0.00    +0.000 C 
ATOM     29  C   UNL     1      -8.864 -20.083   6.605  0.00  0.00    +0.000 C 
BRANCH  28  30
ATOM     30  C   UNL     1      -6.300 -19.364   5.983  0.00  0.00    +0.000 C 
BRANCH  30  31
ATOM     31  C   UNL     1      -5.084 -19.026   5.689  0.00  0.00    +0.000 C 
ATOM     32  C   UNL     1      -4.052 -18.933   6.771  0.00  0.00    +0.000 C 
BRANCH  31  34
ATOM     33  C   UNL     1      -4.414 -18.586   3.194  0.00  0.00    +0.000 C 
ATOM     34  C   UNL     1      -4.721 -18.791   4.340  0.00  0.00    +0.000 C 
BRANCH  33  36
ATOM     35  O   UNL     1      -4.807 -19.199   0.927  0.00  0.00    +0.000 OA
ATOM     36  C   UNL     1      -4.040 -18.333   1.811  0.00  0.00    +0.000 C 
ATOM     37  C   UNL     1      -5.098 -17.807   0.818  0.00  0.00    +0.000 C 
ATOM     38  C   UNL     1      -2.525 -18.135   1.448  0.00  0.00    +0.000 C 
ATOM     39  C   UNL     1      -4.622 -17.250  -0.406  0.00  0.00    +0.000 C 
ATOM     40  C   UNL     1      -2.476 -17.606   0.083  0.00  0.00    +0.000 C 
ATOM     41  C   UNL     1      -3.324 -17.108  -0.924  0.00  0.00    +0.000 C 
ATOM     42  C   UNL     1      -6.533 -17.456   1.217  0.00  0.00    +0.000 C 
ATOM     43  C   UNL     1      -1.863 -19.524   1.602  0.00  0.00    +0.000 C 
ATOM     44  C   UNL     1      -1.983 -17.099   2.466  0.00  0.00    +0.000 C 
BRANCH  41  45
ATOM     45  O   UNL     1      -2.954 -16.056  -1.707  0.00  0.00    +0.000 OA
ATOM     46  H   UNL     1      -2.225 -15.541  -1.317  0.00  0.00    +0.000 HD
ENDBRANCH  41  45
ENDBRANCH  33  36
ENDBRANCH  31  34
ENDBRANCH  30  31
ENDBRANCH  28  30
ENDBRANCH  26  29
ENDBRANCH  25  26
ENDBRANCH   1  25
TORSDOF 16
ENDMDL
MODEL 7
REMARK VINA RESULT:      -5.5      6.966     10.270
REMARK  Name = 448438_Violaxanthin.pdbqt.pdb
REMARK  16 active torsions:
REMARK  status: ('A' for Active; 'I' for Inactive)
REMARK    1  A    between atoms: C_1  and  C_5
REMARK    2  A    between atoms: C_2  and  C_27
REMARK    3  A    between atoms: C_3  and  C_5
REMARK    4  A    between atoms: C_3  and  C_7
REMARK    5  A    between atoms: C_6  and  C_10
REMARK    6  A    between atoms: C_8  and  C_10
REMARK    7  A    between atoms: C_8  and  C_12
REMARK    8  A    between atoms: C_11  and  C_14
REMARK    9  A    between atoms: C_19  and  O_23
REMARK   10  A    between atoms: C_25  and  C_27
REMARK   11  A    between atoms: C_25  and  C_29
REMARK   12  A    between atoms: C_28  and  C_32
REMARK   13  A    between atoms: C_30  and  C_32
REMARK   14  A    between atoms: C_30  and  C_34
REMARK   15  A    between atoms: C_33  and  C_36
REMARK   16  A    between atoms: C_41  and  O_45
REMARK                            x       y       z     vdW  Elec       q    Type
REMARK                         _______ _______ _______ _____ _____    ______ ____
ROOT
ATOM      1  C   UNL     1       2.816 -40.132   7.371  0.00  0.00    +0.000 C 
ATOM      2  C   UNL     1       2.918 -39.104   7.981  0.00  0.00    +0.000 C 
ENDROOT
BRANCH   2   3
ATOM      3  C   UNL     1       3.049 -37.789   8.758  0.00  0.00    +0.000 C 
BRANCH   3   4
ATOM      4  C   UNL     1       3.159 -36.679   9.417  0.00  0.00    +0.000 C 
ATOM      5  C   UNL     1       2.832 -36.644  10.880  0.00  0.00    +0.000 C 
BRANCH   4   7
ATOM      6  C   UNL     1       3.826 -34.478   8.170  0.00  0.00    +0.000 C 
ATOM      7  C   UNL     1       3.519 -35.489   8.743  0.00  0.00    +0.000 C 
BRANCH   6   8
ATOM      8  C   UNL     1       4.216 -33.186   7.441  0.00  0.00    +0.000 C 
BRANCH   8   9
ATOM      9  C   UNL     1       4.549 -32.093   6.827  0.00  0.00    +0.000 C 
ATOM     10  C   UNL     1       5.083 -30.931   7.607  0.00  0.00    +0.000 C 
BRANCH   9  12
ATOM     11  C   UNL     1       4.500 -31.994   4.210  0.00  0.00    +0.000 C 
ATOM     12  C   UNL     1       4.523 -32.044   5.411  0.00  0.00    +0.000 C 
BRANCH  11  14
ATOM     13  O   UNL     1       5.287 -32.968   2.190  0.00  0.00    +0.000 OA
ATOM     14  C   UNL     1       4.466 -31.909   2.758  0.00  0.00    +0.000 C 
ATOM     15  C   UNL     1       3.887 -33.084   1.940  0.00  0.00    +0.000 C 
ATOM     16  C   UNL     1       4.558 -30.508   2.065  0.00  0.00    +0.000 C 
ATOM     17  C   UNL     1       3.561 -32.823   0.577  0.00  0.00    +0.000 C 
ATOM     18  C   UNL     1       4.227 -30.696   0.645  0.00  0.00    +0.000 C 
ATOM     19  C   UNL     1       3.706 -31.677  -0.222  0.00  0.00    +0.000 C 
ATOM     20  C   UNL     1       3.254 -34.319   2.588  0.00  0.00    +0.000 C 
ATOM     21  C   UNL     1       3.491 -29.622   2.752  0.00  0.00    +0.000 C 
ATOM     22  C   UNL     1       5.999 -29.999   2.288  0.00  0.00    +0.000 C 
BRANCH  19  23
ATOM     23  O   UNL     1       4.061 -31.761  -1.534  0.00  0.00    +0.000 OA
ATOM     24  H   UNL     1       4.984 -32.047  -1.656  0.00  0.00    +0.000 HD
ENDBRANCH  19  23
ENDBRANCH  11  14
ENDBRANCH   9  12
ENDBRANCH   8   9
ENDBRANCH   6   8
ENDBRANCH   4   7
ENDBRANCH   3   4
ENDBRANCH   2   3
BRANCH   1  25
ATOM     25  C   UNL     1       2.685 -41.447   6.592  0.00  0.00    +0.000 C 
BRANCH  25  26
ATOM     26  C   UNL     1       2.575 -42.558   5.934  0.00  0.00    +0.000 C 
ATOM     27  C   UNL     1       3.267 -43.792   6.432  0.00  0.00    +0.000 C 
BRANCH  26  29
ATOM     28  C   UNL     1       1.107 -42.659   3.773  0.00  0.00    +0.000 C 
ATOM     29  C   UNL     1       1.783 -42.612   4.765  0.00  0.00    +0.000 C 
BRANCH  28  30
ATOM     30  C   UNL     1       0.238 -42.722   2.510  0.00  0.00    +0.000 C 
BRANCH  30  31
ATOM     31  C   UNL     1      -0.494 -42.771   1.441  0.00  0.00    +0.000 C 
ATOM     32  C   UNL     1      -1.194 -44.043   1.073  0.00  0.00    +0.000 C 
BRANCH  31  34
ATOM     33  C   UNL     1      -0.812 -40.623  -0.026  0.00  0.00    +0.000 C 
ATOM     34  C   UNL     1      -0.668 -41.609   0.650  0.00  0.00    +0.000 C 
BRANCH  33  36
ATOM     35  O   UNL     1       0.309 -38.996  -1.355  0.00  0.00    +0.000 OA
ATOM     36  C   UNL     1      -0.984 -39.435  -0.848  0.00  0.00    +0.000 C 
ATOM     37  C   UNL     1      -0.601 -39.479  -2.342  0.00  0.00    +0.000 C 
ATOM     38  C   UNL     1      -1.962 -38.303  -0.370  0.00  0.00    +0.000 C 
ATOM     39  C   UNL     1      -1.099 -38.432  -3.173  0.00  0.00    +0.000 C 
ATOM     40  C   UNL     1      -2.164 -37.402  -1.507  0.00  0.00    +0.000 C 
ATOM     41  C   UNL     1      -1.880 -37.301  -2.882  0.00  0.00    +0.000 C 
ATOM     42  C   UNL     1      -0.108 -40.741  -3.054  0.00  0.00    +0.000 C 
ATOM     43  C   UNL     1      -1.281 -37.632   0.845  0.00  0.00    +0.000 C 
ATOM     44  C   UNL     1      -3.281 -39.025   0.009  0.00  0.00    +0.000 C 
BRANCH  41  45
ATOM     45  O   UNL     1      -2.787 -36.785  -3.757  0.00  0.00    +0.000 OA
ATOM     46  H   UNL     1      -2.445 -36.749  -4.669  0.00  0.00    +0.000 HD
ENDBRANCH  41  45
ENDBRANCH  33  36
ENDBRANCH  31  34
ENDBRANCH  30  31
ENDBRANCH  28  30
ENDBRANCH  26  29
ENDBRANCH  25  26
ENDBRANCH   1  25
TORSDOF 16
ENDMDL
MODEL 8
REMARK VINA RESULT:      -5.4     10.436     16.493
REMARK  Name = 448438_Violaxanthin.pdbqt.pdb
REMARK  16 active torsions:
REMARK  status: ('A' for Active; 'I' for Inactive)
REMARK    1  A    between atoms: C_1  and  C_5
REMARK    2  A    between atoms: C_2  and  C_27
REMARK    3  A    between atoms: C_3  and  C_5
REMARK    4  A    between atoms: C_3  and  C_7
REMARK    5  A    between atoms: C_6  and  C_10
REMARK    6  A    between atoms: C_8  and  C_10
REMARK    7  A    between atoms: C_8  and  C_12
REMARK    8  A    between atoms: C_11  and  C_14
REMARK    9  A    between atoms: C_19  and  O_23
REMARK   10  A    between atoms: C_25  and  C_27
REMARK   11  A    between atoms: C_25  and  C_29
REMARK   12  A    between atoms: C_28  and  C_32
REMARK   13  A    between atoms: C_30  and  C_32
REMARK   14  A    between atoms: C_30  and  C_34
REMARK   15  A    between atoms: C_33  and  C_36
REMARK   16  A    between atoms: C_41  and  O_45
REMARK                            x       y       z     vdW  Elec       q    Type
REMARK                         _______ _______ _______ _____ _____    ______ ____
ROOT
ATOM      1  C   UNL     1     -11.078 -23.126   6.819  0.00  0.00    +0.000 C 
ATOM      2  C   UNL     1     -11.428 -24.262   6.663  0.00  0.00    +0.000 C 
ENDROOT
BRANCH   2   3
ATOM      3  C   UNL     1     -11.874 -25.716   6.464  0.00  0.00    +0.000 C 
BRANCH   3   4
ATOM      4  C   UNL     1     -12.248 -26.945   6.298  0.00  0.00    +0.000 C 
ATOM      5  C   UNL     1     -13.673 -27.332   6.560  0.00  0.00    +0.000 C 
BRANCH   4   7
ATOM      6  C   UNL     1     -10.496 -28.769   5.630  0.00  0.00    +0.000 C 
ATOM      7  C   UNL     1     -11.301 -27.931   5.936  0.00  0.00    +0.000 C 
BRANCH   6   8
ATOM      8  C   UNL     1      -9.468 -29.839   5.240  0.00  0.00    +0.000 C 
BRANCH   8   9
ATOM      9  C   UNL     1      -8.598 -30.743   4.914  0.00  0.00    +0.000 C 
ATOM     10  C   UNL     1      -7.544 -31.153   5.896  0.00  0.00    +0.000 C 
BRANCH   9  12
ATOM     11  C   UNL     1      -8.830 -32.000   2.628  0.00  0.00    +0.000 C 
ATOM     12  C   UNL     1      -8.721 -31.427   3.679  0.00  0.00    +0.000 C 
BRANCH  11  14
ATOM     13  O   UNL     1      -8.245 -33.934   1.375  0.00  0.00    +0.000 OA
ATOM     14  C   UNL     1      -8.974 -32.674   1.346  0.00  0.00    +0.000 C 
ATOM     15  C   UNL     1      -9.664 -34.054   1.286  0.00  0.00    +0.000 C 
ATOM     16  C   UNL     1      -8.876 -31.844   0.022  0.00  0.00    +0.000 C 
ATOM     17  C   UNL     1     -10.085 -34.510   0.001  0.00  0.00    +0.000 C 
ATOM     18  C   UNL     1      -9.326 -32.711  -1.076  0.00  0.00    +0.000 C 
ATOM     19  C   UNL     1      -9.955 -33.955  -1.283  0.00  0.00    +0.000 C 
ATOM     20  C   UNL     1     -10.297 -34.725   2.508  0.00  0.00    +0.000 C 
ATOM     21  C   UNL     1      -9.848 -30.651   0.196  0.00  0.00    +0.000 C 
ATOM     22  C   UNL     1      -7.402 -31.406  -0.116  0.00  0.00    +0.000 C 
BRANCH  19  23
ATOM     23  O   UNL     1      -9.707 -34.730  -2.374  0.00  0.00    +0.000 OA
ATOM     24  H   UNL     1     -10.516 -34.961  -2.864  0.00  0.00    +0.000 HD
ENDBRANCH  19  23
ENDBRANCH  11  14
ENDBRANCH   9  12
ENDBRANCH   8   9
ENDBRANCH   6   8
ENDBRANCH   4   7
ENDBRANCH   3   4
ENDBRANCH   2   3
BRANCH   1  25
ATOM     25  C   UNL     1     -10.632 -21.672   7.018  0.00  0.00    +0.000 C 
BRANCH  25  26
ATOM     26  C   UNL     1     -10.254 -20.444   7.187  0.00  0.00    +0.000 C 
ATOM     27  C   UNL     1     -10.177 -19.870   8.570  0.00  0.00    +0.000 C 
BRANCH  26  29
ATOM     28  C   UNL     1      -9.587 -18.987   5.121  0.00  0.00    +0.000 C 
ATOM     29  C   UNL     1      -9.892 -19.655   6.071  0.00  0.00    +0.000 C 
BRANCH  28  30
ATOM     30  C   UNL     1      -9.202 -18.136   3.903  0.00  0.00    +0.000 C 
BRANCH  30  31
ATOM     31  C   UNL     1      -8.872 -17.421   2.873  0.00  0.00    +0.000 C 
ATOM     32  C   UNL     1      -9.906 -16.585   2.184  0.00  0.00    +0.000 C 
BRANCH  31  34
ATOM     33  C   UNL     1      -6.384 -17.377   2.055  0.00  0.00    +0.000 C 
ATOM     34  C   UNL     1      -7.526 -17.395   2.432  0.00  0.00    +0.000 C 
BRANCH  33  36
ATOM     35  O   UNL     1      -4.964 -17.041   0.173  0.00  0.00    +0.000 OA
ATOM     36  C   UNL     1      -5.004 -17.360   1.593  0.00  0.00    +0.000 C 
ATOM     37  C   UNL     1      -4.402 -16.054   1.035  0.00  0.00    +0.000 C 
ATOM     38  C   UNL     1      -4.015 -18.478   2.082  0.00  0.00    +0.000 C 
ATOM     39  C   UNL     1      -2.981 -15.986   0.924  0.00  0.00    +0.000 C 
ATOM     40  C   UNL     1      -2.664 -18.046   1.717  0.00  0.00    +0.000 C 
ATOM     41  C   UNL     1      -1.977 -16.927   1.206  0.00  0.00    +0.000 C 
ATOM     42  C   UNL     1      -5.155 -14.721   1.000  0.00  0.00    +0.000 C 
ATOM     43  C   UNL     1      -4.463 -19.782   1.383  0.00  0.00    +0.000 C 
ATOM     44  C   UNL     1      -4.182 -18.539   3.622  0.00  0.00    +0.000 C 
BRANCH  41  45
ATOM     45  O   UNL     1      -0.747 -16.576   1.674  0.00  0.00    +0.000 OA
ATOM     46  H   UNL     1      -0.536 -17.006   2.523  0.00  0.00    +0.000 HD
ENDBRANCH  41  45
ENDBRANCH  33  36
ENDBRANCH  31  34
ENDBRANCH  30  31
ENDBRANCH  28  30
ENDBRANCH  26  29
ENDBRANCH  25  26
ENDBRANCH   1  25
TORSDOF 16
ENDMDL
MODEL 9
REMARK VINA RESULT:      -5.3      6.854     11.864
REMARK  Name = 448438_Violaxanthin.pdbqt.pdb
REMARK  16 active torsions:
REMARK  status: ('A' for Active; 'I' for Inactive)
REMARK    1  A    between atoms: C_1  and  C_5
REMARK    2  A    between atoms: C_2  and  C_27
REMARK    3  A    between atoms: C_3  and  C_5
REMARK    4  A    between atoms: C_3  and  C_7
REMARK    5  A    between atoms: C_6  and  C_10
REMARK    6  A    between atoms: C_8  and  C_10
REMARK    7  A    between atoms: C_8  and  C_12
REMARK    8  A    between atoms: C_11  and  C_14
REMARK    9  A    between atoms: C_19  and  O_23
REMARK   10  A    between atoms: C_25  and  C_27
REMARK   11  A    between atoms: C_25  and  C_29
REMARK   12  A    between atoms: C_28  and  C_32
REMARK   13  A    between atoms: C_30  and  C_32
REMARK   14  A    between atoms: C_30  and  C_34
REMARK   15  A    between atoms: C_33  and  C_36
REMARK   16  A    between atoms: C_41  and  O_45
REMARK                            x       y       z     vdW  Elec       q    Type
REMARK                         _______ _______ _______ _____ _____    ______ ____
ROOT
ATOM      1  C   UNL     1      -1.242 -35.603  -9.438  0.00  0.00    +0.000 C 
ATOM      2  C   UNL     1      -2.212 -35.215  -8.849  0.00  0.00    +0.000 C 
ENDROOT
BRANCH   2   3
ATOM      3  C   UNL     1      -3.454 -34.719  -8.098  0.00  0.00    +0.000 C 
BRANCH   3   4
ATOM      4  C   UNL     1      -4.501 -34.297  -7.463  0.00  0.00    +0.000 C 
ATOM      5  C   UNL     1      -5.418 -33.304  -8.112  0.00  0.00    +0.000 C 
BRANCH   4   7
ATOM      6  C   UNL     1      -4.944 -35.080  -5.007  0.00  0.00    +0.000 C 
ATOM      7  C   UNL     1      -4.741 -34.720  -6.135  0.00  0.00    +0.000 C 
BRANCH   6   8
ATOM      8  C   UNL     1      -5.205 -35.541  -3.567  0.00  0.00    +0.000 C 
BRANCH   8   9
ATOM      9  C   UNL     1      -5.421 -35.930  -2.349  0.00  0.00    +0.000 C 
ATOM     10  C   UNL     1      -6.734 -35.631  -1.692  0.00  0.00    +0.000 C 
BRANCH   9  12
ATOM     11  C   UNL     1      -3.659 -37.439  -1.132  0.00  0.00    +0.000 C 
ATOM     12  C   UNL     1      -4.466 -36.743  -1.688  0.00  0.00    +0.000 C 
BRANCH  11  14
ATOM     13  O   UNL     1      -1.635 -37.488   0.113  0.00  0.00    +0.000 OA
ATOM     14  C   UNL     1      -2.691 -38.301  -0.471  0.00  0.00    +0.000 C 
ATOM     15  C   UNL     1      -2.468 -38.168   1.051  0.00  0.00    +0.000 C 
ATOM     16  C   UNL     1      -2.244 -39.632  -1.165  0.00  0.00    +0.000 C 
ATOM     17  C   UNL     1      -1.785 -39.238   1.700  0.00  0.00    +0.000 C 
ATOM     18  C   UNL     1      -1.495 -40.416  -0.171  0.00  0.00    +0.000 C 
ATOM     19  C   UNL     1      -1.209 -40.422   1.208  0.00  0.00    +0.000 C 
ATOM     20  C   UNL     1      -3.287 -37.222   1.934  0.00  0.00    +0.000 C 
ATOM     21  C   UNL     1      -3.548 -40.368  -1.556  0.00  0.00    +0.000 C 
ATOM     22  C   UNL     1      -1.390 -39.228  -2.385  0.00  0.00    +0.000 C 
BRANCH  19  23
ATOM     23  O   UNL     1      -0.045 -40.914   1.715  0.00  0.00    +0.000 OA
ATOM     24  H   UNL     1      -0.185 -41.658   2.327  0.00  0.00    +0.000 HD
ENDBRANCH  19  23
ENDBRANCH  11  14
ENDBRANCH   9  12
ENDBRANCH   8   9
ENDBRANCH   6   8
ENDBRANCH   4   7
ENDBRANCH   3   4
ENDBRANCH   2   3
BRANCH   1  25
ATOM     25  C   UNL     1      -0.001 -36.099 -10.190  0.00  0.00    +0.000 C 
BRANCH  25  26
ATOM     26  C   UNL     1       1.048 -36.518 -10.825  0.00  0.00    +0.000 C 
ATOM     27  C   UNL     1       0.931 -37.666 -11.783  0.00  0.00    +0.000 C 
BRANCH  26  29
ATOM     28  C   UNL     1       3.352 -35.332 -10.476  0.00  0.00    +0.000 C 
ATOM     29  C   UNL     1       2.294 -35.878 -10.634  0.00  0.00    +0.000 C 
BRANCH  28  30
ATOM     30  C   UNL     1       4.704 -34.634 -10.280  0.00  0.00    +0.000 C 
BRANCH  30  31
ATOM     31  C   UNL     1       5.846 -34.045 -10.110  0.00  0.00    +0.000 C 
ATOM     32  C   UNL     1       6.948 -34.250 -11.104  0.00  0.00    +0.000 C 
BRANCH  31  34
ATOM     33  C   UNL     1       6.197 -32.432  -8.075  0.00  0.00    +0.000 C 
ATOM     34  C   UNL     1       6.034 -33.170  -9.011  0.00  0.00    +0.000 C 
BRANCH  33  36
ATOM     35  O   UNL     1       6.587 -32.324  -5.729  0.00  0.00    +0.000 OA
ATOM     36  C   UNL     1       6.400 -31.541  -6.942  0.00  0.00    +0.000 C 
ATOM     37  C   UNL     1       7.730 -31.590  -6.162  0.00  0.00    +0.000 C 
ATOM     38  C   UNL     1       5.512 -30.253  -6.807  0.00  0.00    +0.000 C 
ATOM     39  C   UNL     1       8.022 -30.488  -5.303  0.00  0.00    +0.000 C 
ATOM     40  C   UNL     1       6.126 -29.414  -5.776  0.00  0.00    +0.000 C 
ATOM     41  C   UNL     1       7.291 -29.331  -4.988  0.00  0.00    +0.000 C 
ATOM     42  C   UNL     1       8.910 -32.483  -6.554  0.00  0.00    +0.000 C 
ATOM     43  C   UNL     1       4.092 -30.746  -6.446  0.00  0.00    +0.000 C 
ATOM     44  C   UNL     1       5.568 -29.561  -8.194  0.00  0.00    +0.000 C 
BRANCH  41  45
ATOM     45  O   UNL     1       7.883 -28.134  -4.722  0.00  0.00    +0.000 OA
ATOM     46  H   UNL     1       8.755 -28.236  -4.299  0.00  0.00    +0.000 HD
ENDBRANCH  41  45
ENDBRANCH  33  36
ENDBRANCH  31  34
ENDBRANCH  30  31
ENDBRANCH  28  30
ENDBRANCH  26  29
ENDBRANCH  25  26
ENDBRANCH   1  25
TORSDOF 16
ENDMDL
