MODEL 1
REMARK VINA RESULT:      -7.4      0.000      0.000
REMARK  Name = 490561_Nocardiopsis.pdbqt.pdb
REMARK  3 active torsions:
REMARK  status: ('A' for Active; 'I' for Inactive)
REMARK    1  A    between atoms: C_7  and  O_32
REMARK    2  A    between atoms: C_7  and  C_35
REMARK    3  A    between atoms: C_35  and  O_36
REMARK                            x       y       z     vdW  Elec       q    Type
REMARK                         _______ _______ _______ _____ _____    ______ ____
ROOT
ATOM      1  O   UNL     1      -4.316 -36.257  -5.840  0.00  0.00    +0.000 OA
ATOM      2  O   UNL     1      -3.630 -38.582   1.291  0.00  0.00    +0.000 OA
ATOM      3  N   UNL     1      -5.371 -34.994  -4.143  0.00  0.00    +0.000 N 
ATOM      4  N   UNL     1      -3.028 -36.863  -3.993  0.00  0.00    +0.000 N 
ATOM      5  N   UNL     1      -5.471 -37.173   1.421  0.00  0.00    +0.000 N 
ATOM      6  C   UNL     1      -4.825 -34.916  -5.513  0.00  0.00    +0.000 C 
ATOM      7  C   UNL     1      -3.545 -33.980  -5.626  0.00  0.00    +0.000 C 
ATOM      8  C   UNL     1      -3.039 -36.295  -5.255  0.00  0.00    +0.000 C 
ATOM      9  C   UNL     1      -2.516 -34.983  -5.368  0.00  0.00    +0.000 C 
ATOM     10  C   UNL     1      -5.026 -35.792  -3.082  0.00  0.00    +0.000 A 
ATOM     11  C   UNL     1      -3.949 -36.676  -3.007  0.00  0.00    +0.000 A 
ATOM     12  C   UNL     1      -5.747 -35.690  -1.889  0.00  0.00    +0.000 A 
ATOM     13  C   UNL     1      -3.766 -37.301  -1.769  0.00  0.00    +0.000 A 
ATOM     14  C   UNL     1      -5.936 -34.628  -6.576  0.00  0.00    +0.000 C 
ATOM     15  C   UNL     1      -6.395 -34.223  -3.537  0.00  0.00    +0.000 A 
ATOM     16  C   UNL     1      -2.095 -37.671  -3.316  0.00  0.00    +0.000 A 
ATOM     17  C   UNL     1      -6.654 -34.655  -2.183  0.00  0.00    +0.000 A 
ATOM     18  C   UNL     1      -5.598 -36.321  -0.647  0.00  0.00    +0.000 A 
ATOM     19  C   UNL     1      -4.495 -37.222  -0.564  0.00  0.00    +0.000 A 
ATOM     20  C   UNL     1      -2.538 -37.970  -1.972  0.00  0.00    +0.000 A 
ATOM     21  C   UNL     1      -6.223 -36.314   0.701  0.00  0.00    +0.000 C 
ATOM     22  C   UNL     1      -7.124 -33.152  -4.080  0.00  0.00    +0.000 A 
ATOM     23  C   UNL     1      -4.394 -37.786   0.764  0.00  0.00    +0.000 C 
ATOM     24  C   UNL     1      -0.881 -38.178  -3.803  0.00  0.00    +0.000 A 
ATOM     25  C   UNL     1      -7.655 -33.992  -1.444  0.00  0.00    +0.000 A 
ATOM     26  C   UNL     1      -1.708 -38.777  -1.170  0.00  0.00    +0.000 A 
ATOM     27  C   UNL     1      -8.106 -32.528  -3.310  0.00  0.00    +0.000 A 
ATOM     28  C   UNL     1      -8.374 -32.943  -2.016  0.00  0.00    +0.000 A 
ATOM     29  C   UNL     1      -0.103 -38.978  -2.966  0.00  0.00    +0.000 A 
ATOM     30  C   UNL     1      -0.506 -39.274  -1.672  0.00  0.00    +0.000 A 
ATOM     31  H   UNL     1      -5.659 -37.378   2.391  0.00  0.00    +0.000 HD
ENDROOT
BRANCH   7  32
ATOM     32  O   UNL     1      -3.456 -32.955  -4.626  0.00  0.00    +0.000 OA
ATOM     33  H   UNL     1      -4.240 -32.373  -4.735  0.00  0.00    +0.000 HD
ENDBRANCH   7  32
BRANCH   7  35
ATOM     34  O   UNL     1      -2.885 -34.025  -7.934  0.00  0.00    +0.000 OA
ATOM     35  C   UNL     1      -3.404 -33.377  -7.023  0.00  0.00    +0.000 C 
BRANCH  35  36
ATOM     36  O   UNL     1      -3.957 -32.129  -7.093  0.00  0.00    +0.000 OA
ATOM     37  C   UNL     1      -3.714 -31.372  -8.248  0.00  0.00    +0.000 C 
ENDBRANCH  35  36
ENDBRANCH   7  35
TORSDOF 3
ENDMDL
MODEL 2
REMARK VINA RESULT:      -7.3     20.009     22.650
REMARK  Name = 490561_Nocardiopsis.pdbqt.pdb
REMARK  3 active torsions:
REMARK  status: ('A' for Active; 'I' for Inactive)
REMARK    1  A    between atoms: C_7  and  O_32
REMARK    2  A    between atoms: C_7  and  C_35
REMARK    3  A    between atoms: C_35  and  O_36
REMARK                            x       y       z     vdW  Elec       q    Type
REMARK                         _______ _______ _______ _____ _____    ______ ____
ROOT
ATOM      1  O   UNL     1     -16.877 -17.110  -1.808  0.00  0.00    +0.000 OA
ATOM      2  O   UNL     1     -19.305 -17.049  -8.937  0.00  0.00    +0.000 OA
ATOM      3  N   UNL     1     -17.640 -19.140  -2.749  0.00  0.00    +0.000 N 
ATOM      4  N   UNL     1     -16.571 -16.670  -4.078  0.00  0.00    +0.000 N 
ATOM      5  N   UNL     1     -20.240 -19.015  -8.129  0.00  0.00    +0.000 N 
ATOM      6  C   UNL     1     -16.772 -18.573  -1.696  0.00  0.00    +0.000 C 
ATOM      7  C   UNL     1     -15.228 -18.868  -1.930  0.00  0.00    +0.000 C 
ATOM      8  C   UNL     1     -15.975 -16.775  -2.833  0.00  0.00    +0.000 C 
ATOM      9  C   UNL     1     -14.896 -17.684  -2.718  0.00  0.00    +0.000 C 
ATOM     10  C   UNL     1     -18.006 -18.644  -3.975  0.00  0.00    +0.000 A 
ATOM     11  C   UNL     1     -17.527 -17.490  -4.595  0.00  0.00    +0.000 A 
ATOM     12  C   UNL     1     -18.890 -19.379  -4.771  0.00  0.00    +0.000 A 
ATOM     13  C   UNL     1     -17.998 -17.262  -5.893  0.00  0.00    +0.000 A 
ATOM     14  C   UNL     1     -17.289 -18.913  -0.260  0.00  0.00    +0.000 C 
ATOM     15  C   UNL     1     -18.310 -20.388  -2.787  0.00  0.00    +0.000 A 
ATOM     16  C   UNL     1     -16.342 -15.824  -5.179  0.00  0.00    +0.000 A 
ATOM     17  C   UNL     1     -19.095 -20.532  -3.992  0.00  0.00    +0.000 A 
ATOM     18  C   UNL     1     -19.392 -19.160  -6.061  0.00  0.00    +0.000 A 
ATOM     19  C   UNL     1     -18.902 -17.983  -6.700  0.00  0.00    +0.000 A 
ATOM     20  C   UNL     1     -17.218 -16.151  -6.282  0.00  0.00    +0.000 A 
ATOM     21  C   UNL     1     -20.281 -19.823  -7.049  0.00  0.00    +0.000 C 
ATOM     22  C   UNL     1     -18.282 -21.428  -1.843  0.00  0.00    +0.000 A 
ATOM     23  C   UNL     1     -19.438 -17.868  -8.039  0.00  0.00    +0.000 C 
ATOM     24  C   UNL     1     -15.421 -14.770  -5.279  0.00  0.00    +0.000 A 
ATOM     25  C   UNL     1     -19.832 -21.720  -4.177  0.00  0.00    +0.000 A 
ATOM     26  C   UNL     1     -17.108 -15.383  -7.459  0.00  0.00    +0.000 A 
ATOM     27  C   UNL     1     -19.029 -22.583  -2.071  0.00  0.00    +0.000 A 
ATOM     28  C   UNL     1     -19.798 -22.728  -3.214  0.00  0.00    +0.000 A 
ATOM     29  C   UNL     1     -15.362 -14.040  -6.465  0.00  0.00    +0.000 A 
ATOM     30  C   UNL     1     -16.189 -14.338  -7.538  0.00  0.00    +0.000 A 
ATOM     31  H   UNL     1     -20.756 -19.211  -8.974  0.00  0.00    +0.000 HD
ENDROOT
BRANCH   7  32
ATOM     32  O   UNL     1     -14.949 -20.039  -2.710  0.00  0.00    +0.000 OA
ATOM     33  H   UNL     1     -15.586 -20.733  -2.432  0.00  0.00    +0.000 HD
ENDBRANCH   7  32
BRANCH   7  35
ATOM     34  O   UNL     1     -14.319 -19.962   0.004  0.00  0.00    +0.000 OA
ATOM     35  C   UNL     1     -14.452 -18.904  -0.615  0.00  0.00    +0.000 C 
BRANCH  35  36
ATOM     36  O   UNL     1     -13.929 -17.680  -0.302  0.00  0.00    +0.000 OA
ATOM     37  C   UNL     1     -14.223 -17.150   0.962  0.00  0.00    +0.000 C 
ENDBRANCH  35  36
ENDBRANCH   7  35
TORSDOF 3
ENDMDL
MODEL 3
REMARK VINA RESULT:      -7.0     19.108     21.925
REMARK  Name = 490561_Nocardiopsis.pdbqt.pdb
REMARK  3 active torsions:
REMARK  status: ('A' for Active; 'I' for Inactive)
REMARK    1  A    between atoms: C_7  and  O_32
REMARK    2  A    between atoms: C_7  and  C_35
REMARK    3  A    between atoms: C_35  and  O_36
REMARK                            x       y       z     vdW  Elec       q    Type
REMARK                         _______ _______ _______ _____ _____    ______ ____
ROOT
ATOM      1  O   UNL     1     -15.788 -16.843  -0.770  0.00  0.00    +0.000 OA
ATOM      2  O   UNL     1     -19.497 -18.589  -7.088  0.00  0.00    +0.000 OA
ATOM      3  N   UNL     1     -16.323 -19.112  -1.165  0.00  0.00    +0.000 N 
ATOM      4  N   UNL     1     -16.008 -16.832  -3.092  0.00  0.00    +0.000 N 
ATOM      5  N   UNL     1     -19.876 -20.467  -5.775  0.00  0.00    +0.000 N 
ATOM      6  C   UNL     1     -15.392 -18.221  -0.442  0.00  0.00    +0.000 C 
ATOM      7  C   UNL     1     -13.893 -18.325  -0.960  0.00  0.00    +0.000 C 
ATOM      8  C   UNL     1     -15.177 -16.593  -2.011  0.00  0.00    +0.000 C 
ATOM      9  C   UNL     1     -13.944 -17.290  -1.989  0.00  0.00    +0.000 C 
ATOM     10  C   UNL     1     -17.002 -18.935  -2.344  0.00  0.00    +0.000 A 
ATOM     11  C   UNL     1     -16.874 -17.872  -3.239  0.00  0.00    +0.000 A 
ATOM     12  C   UNL     1     -17.867 -19.938  -2.789  0.00  0.00    +0.000 A 
ATOM     13  C   UNL     1     -17.618 -17.985  -4.419  0.00  0.00    +0.000 A 
ATOM     14  C   UNL     1     -15.553 -18.336   1.110  0.00  0.00    +0.000 C 
ATOM     15  C   UNL     1     -16.742 -20.427  -0.844  0.00  0.00    +0.000 A 
ATOM     16  C   UNL     1     -16.155 -16.203  -4.342  0.00  0.00    +0.000 A 
ATOM     17  C   UNL     1     -17.701 -20.927  -1.803  0.00  0.00    +0.000 A 
ATOM     18  C   UNL     1     -18.638 -20.063  -3.953  0.00  0.00    +0.000 A 
ATOM     19  C   UNL     1     -18.508 -18.980  -4.873  0.00  0.00    +0.000 A 
ATOM     20  C   UNL     1     -17.148 -16.872  -5.152  0.00  0.00    +0.000 A 
ATOM     21  C   UNL     1     -19.559 -21.036  -4.593  0.00  0.00    +0.000 C 
ATOM     22  C   UNL     1     -16.340 -21.238   0.231  0.00  0.00    +0.000 A 
ATOM     23  C   UNL     1     -19.301 -19.219  -6.059  0.00  0.00    +0.000 C 
ATOM     24  C   UNL     1     -15.484 -15.066  -4.819  0.00  0.00    +0.000 A 
ATOM     25  C   UNL     1     -18.224 -22.223  -1.618  0.00  0.00    +0.000 A 
ATOM     26  C   UNL     1     -17.410 -16.352  -6.435  0.00  0.00    +0.000 A 
ATOM     27  C   UNL     1     -16.888 -22.513   0.372  0.00  0.00    +0.000 A 
ATOM     28  C   UNL     1     -17.819 -22.999  -0.532  0.00  0.00    +0.000 A 
ATOM     29  C   UNL     1     -15.790 -14.591  -6.094  0.00  0.00    +0.000 A 
ATOM     30  C   UNL     1     -16.736 -15.220  -6.890  0.00  0.00    +0.000 A 
ATOM     31  H   UNL     1     -20.497 -20.904  -6.440  0.00  0.00    +0.000 HD
ENDROOT
BRANCH   7  32
ATOM     32  O   UNL     1     -13.553 -19.576  -1.575  0.00  0.00    +0.000 OA
ATOM     33  H   UNL     1     -13.994 -20.285  -1.058  0.00  0.00    +0.000 HD
ENDBRANCH   7  32
BRANCH   7  35
ATOM     34  O   UNL     1     -12.391 -18.867   0.832  0.00  0.00    +0.000 OA
ATOM     35  C   UNL     1     -12.888 -17.979   0.137  0.00  0.00    +0.000 C 
BRANCH  35  36
ATOM     36  O   UNL     1     -12.617 -16.639   0.171  0.00  0.00    +0.000 OA
ATOM     37  C   UNL     1     -12.607 -16.008   1.422  0.00  0.00    +0.000 C 
ENDBRANCH  35  36
ENDBRANCH   7  35
TORSDOF 3
ENDMDL
MODEL 4
REMARK VINA RESULT:      -6.6     18.936     21.790
REMARK  Name = 490561_Nocardiopsis.pdbqt.pdb
REMARK  3 active torsions:
REMARK  status: ('A' for Active; 'I' for Inactive)
REMARK    1  A    between atoms: C_7  and  O_32
REMARK    2  A    between atoms: C_7  and  C_35
REMARK    3  A    between atoms: C_35  and  O_36
REMARK                            x       y       z     vdW  Elec       q    Type
REMARK                         _______ _______ _______ _____ _____    ______ ____
ROOT
ATOM      1  O   UNL     1     -20.002 -18.703  -3.808  0.00  0.00    +0.000 OA
ATOM      2  O   UNL     1     -13.790 -19.643   0.346  0.00  0.00    +0.000 OA
ATOM      3  N   UNL     1     -18.026 -17.592  -4.479  0.00  0.00    +0.000 N 
ATOM      4  N   UNL     1     -18.389 -20.055  -2.803  0.00  0.00    +0.000 N 
ATOM      5  N   UNL     1     -13.283 -17.715  -0.845  0.00  0.00    +0.000 N 
ATOM      6  C   UNL     1     -19.319 -18.113  -4.969  0.00  0.00    +0.000 C 
ATOM      7  C   UNL     1     -19.163 -19.326  -5.983  0.00  0.00    +0.000 C 
ATOM      8  C   UNL     1     -19.444 -19.989  -3.695  0.00  0.00    +0.000 C 
ATOM      9  C   UNL     1     -19.187 -20.422  -5.019  0.00  0.00    +0.000 C 
ATOM     10  C   UNL     1     -17.226 -18.004  -3.443  0.00  0.00    +0.000 A 
ATOM     11  C   UNL     1     -17.394 -19.138  -2.648  0.00  0.00    +0.000 A 
ATOM     12  C   UNL     1     -16.054 -17.296  -3.163  0.00  0.00    +0.000 A 
ATOM     13  C   UNL     1     -16.376 -19.379  -1.719  0.00  0.00    +0.000 A 
ATOM     14  C   UNL     1     -20.265 -16.970  -5.465  0.00  0.00    +0.000 C 
ATOM     15  C   UNL     1     -17.235 -16.529  -4.982  0.00  0.00    +0.000 A 
ATOM     16  C   UNL     1     -17.958 -21.048  -1.904  0.00  0.00    +0.000 A 
ATOM     17  C   UNL     1     -16.054 -16.319  -4.175  0.00  0.00    +0.000 A 
ATOM     18  C   UNL     1     -15.035 -17.504  -2.225  0.00  0.00    +0.000 A 
ATOM     19  C   UNL     1     -15.200 -18.664  -1.412  0.00  0.00    +0.000 A 
ATOM     20  C   UNL     1     -16.752 -20.645  -1.216  0.00  0.00    +0.000 A 
ATOM     21  C   UNL     1     -13.741 -16.899  -1.817  0.00  0.00    +0.000 C 
ATOM     22  C   UNL     1     -17.464 -15.723  -6.110  0.00  0.00    +0.000 A 
ATOM     23  C   UNL     1     -14.079 -18.821  -0.511  0.00  0.00    +0.000 C 
ATOM     24  C   UNL     1     -18.562 -22.286  -1.633  0.00  0.00    +0.000 A 
ATOM     25  C   UNL     1     -15.166 -15.287  -4.540  0.00  0.00    +0.000 A 
ATOM     26  C   UNL     1     -16.200 -21.538  -0.276  0.00  0.00    +0.000 A 
ATOM     27  C   UNL     1     -16.555 -14.714  -6.429  0.00  0.00    +0.000 A 
ATOM     28  C   UNL     1     -15.427 -14.492  -5.656  0.00  0.00    +0.000 A 
ATOM     29  C   UNL     1     -17.975 -23.127  -0.687  0.00  0.00    +0.000 A 
ATOM     30  C   UNL     1     -16.816 -22.762  -0.019  0.00  0.00    +0.000 A 
ATOM     31  H   UNL     1     -12.408 -17.556  -0.368  0.00  0.00    +0.000 HD
ENDROOT
BRANCH   7  32
ATOM     32  O   UNL     1     -17.917 -19.362  -6.695  0.00  0.00    +0.000 OA
ATOM     33  H   UNL     1     -17.420 -20.146  -6.375  0.00  0.00    +0.000 HD
ENDBRANCH   7  32
BRANCH   7  35
ATOM     34  O   UNL     1     -21.436 -19.816  -6.578  0.00  0.00    +0.000 OA
ATOM     35  C   UNL     1     -20.337 -19.407  -6.957  0.00  0.00    +0.000 C 
BRANCH  35  36
ATOM     36  O   UNL     1     -20.001 -18.934  -8.195  0.00  0.00    +0.000 OA
ATOM     37  C   UNL     1     -20.253 -19.761  -9.299  0.00  0.00    +0.000 C 
ENDBRANCH  35  36
ENDBRANCH   7  35
TORSDOF 3
ENDMDL
MODEL 5
REMARK VINA RESULT:      -6.5     21.113     23.347
REMARK  Name = 490561_Nocardiopsis.pdbqt.pdb
REMARK  3 active torsions:
REMARK  status: ('A' for Active; 'I' for Inactive)
REMARK    1  A    between atoms: C_7  and  O_32
REMARK    2  A    between atoms: C_7  and  C_35
REMARK    3  A    between atoms: C_35  and  O_36
REMARK                            x       y       z     vdW  Elec       q    Type
REMARK                         _______ _______ _______ _____ _____    ______ ____
ROOT
ATOM      1  O   UNL     1      -8.397 -17.432 -15.834  0.00  0.00    +0.000 OA
ATOM      2  O   UNL     1      -1.077 -19.205 -15.826  0.00  0.00    +0.000 OA
ATOM      3  N   UNL     1      -6.823 -15.696 -15.518  0.00  0.00    +0.000 N 
ATOM      4  N   UNL     1      -6.512 -18.377 -16.831  0.00  0.00    +0.000 N 
ATOM      5  N   UNL     1      -1.069 -17.130 -14.781  0.00  0.00    +0.000 N 
ATOM      6  C   UNL     1      -8.200 -15.980 -15.972  0.00  0.00    +0.000 C 
ATOM      7  C   UNL     1      -8.420 -15.707 -17.522  0.00  0.00    +0.000 C 
ATOM      8  C   UNL     1      -7.824 -17.971 -17.000  0.00  0.00    +0.000 C 
ATOM      9  C   UNL     1      -8.073 -17.031 -18.030  0.00  0.00    +0.000 C 
ATOM     10  C   UNL     1      -5.692 -16.471 -15.541  0.00  0.00    +0.000 A 
ATOM     11  C   UNL     1      -5.540 -17.724 -16.134  0.00  0.00    +0.000 A 
ATOM     12  C   UNL     1      -4.507 -15.964 -14.999  0.00  0.00    +0.000 A 
ATOM     13  C   UNL     1      -4.247 -18.258 -16.094  0.00  0.00    +0.000 A 
ATOM     14  C   UNL     1      -9.275 -15.330 -15.039  0.00  0.00    +0.000 C 
ATOM     15  C   UNL     1      -6.287 -14.508 -14.960  0.00  0.00    +0.000 A 
ATOM     16  C   UNL     1      -5.767 -19.448 -17.358  0.00  0.00    +0.000 A 
ATOM     17  C   UNL     1      -4.894 -14.668 -14.612  0.00  0.00    +0.000 A 
ATOM     18  C   UNL     1      -3.210 -16.488 -14.926  0.00  0.00    +0.000 A 
ATOM     19  C   UNL     1      -3.049 -17.768 -15.535  0.00  0.00    +0.000 A 
ATOM     20  C   UNL     1      -4.396 -19.409 -16.901  0.00  0.00    +0.000 A 
ATOM     21  C   UNL     1      -1.864 -16.095 -14.437  0.00  0.00    +0.000 C 
ATOM     22  C   UNL     1      -6.927 -13.277 -14.736  0.00  0.00    +0.000 A 
ATOM     23  C   UNL     1      -1.672 -18.204 -15.453  0.00  0.00    +0.000 C 
ATOM     24  C   UNL     1      -6.214 -20.472 -18.207  0.00  0.00    +0.000 A 
ATOM     25  C   UNL     1      -4.215 -13.575 -14.035  0.00  0.00    +0.000 A 
ATOM     26  C   UNL     1      -3.525 -20.425 -17.343  0.00  0.00    +0.000 A 
ATOM     27  C   UNL     1      -6.214 -12.226 -14.162  0.00  0.00    +0.000 A 
ATOM     28  C   UNL     1      -4.881 -12.371 -13.810  0.00  0.00    +0.000 A 
ATOM     29  C   UNL     1      -5.309 -21.455 -18.607  0.00  0.00    +0.000 A 
ATOM     30  C   UNL     1      -3.988 -21.435 -18.185  0.00  0.00    +0.000 A 
ATOM     31  H   UNL     1      -0.081 -17.149 -14.575  0.00  0.00    +0.000 HD
ENDROOT
BRANCH   7  32
ATOM     32  O   UNL     1      -7.528 -14.740 -18.097  0.00  0.00    +0.000 OA
ATOM     33  H   UNL     1      -7.629 -13.909 -17.584  0.00  0.00    +0.000 HD
ENDBRANCH   7  32
BRANCH   7  35
ATOM     34  O   UNL     1     -10.215 -14.167 -17.933  0.00  0.00    +0.000 OA
ATOM     35  C   UNL     1      -9.871 -15.347 -17.836  0.00  0.00    +0.000 C 
BRANCH  35  36
ATOM     36  O   UNL     1     -10.638 -16.461 -18.029  0.00  0.00    +0.000 OA
ATOM     37  C   UNL     1     -11.891 -16.506 -17.402  0.00  0.00    +0.000 C 
ENDBRANCH  35  36
ENDBRANCH   7  35
TORSDOF 3
ENDMDL
MODEL 6
REMARK VINA RESULT:      -6.5     18.068     20.997
REMARK  Name = 490561_Nocardiopsis.pdbqt.pdb
REMARK  3 active torsions:
REMARK  status: ('A' for Active; 'I' for Inactive)
REMARK    1  A    between atoms: C_7  and  O_32
REMARK    2  A    between atoms: C_7  and  C_35
REMARK    3  A    between atoms: C_35  and  O_36
REMARK                            x       y       z     vdW  Elec       q    Type
REMARK                         _______ _______ _______ _____ _____    ______ ____
ROOT
ATOM      1  O   UNL     1      -5.746 -15.976   3.341  0.00  0.00    +0.000 OA
ATOM      2  O   UNL     1      -1.051 -16.861  -2.482  0.00  0.00    +0.000 OA
ATOM      3  N   UNL     1      -6.137 -14.710   1.383  0.00  0.00    +0.000 N 
ATOM      4  N   UNL     1      -4.673 -17.304   1.751  0.00  0.00    +0.000 N 
ATOM      5  N   UNL     1      -2.055 -14.827  -2.980  0.00  0.00    +0.000 N 
ATOM      6  C   UNL     1      -6.790 -15.266   2.586  0.00  0.00    +0.000 C 
ATOM      7  C   UNL     1      -7.861 -16.393   2.255  0.00  0.00    +0.000 C 
ATOM      8  C   UNL     1      -5.662 -17.233   2.717  0.00  0.00    +0.000 C 
ATOM      9  C   UNL     1      -6.978 -17.555   2.305  0.00  0.00    +0.000 C 
ATOM     10  C   UNL     1      -5.055 -15.150   0.663  0.00  0.00    +0.000 A 
ATOM     11  C   UNL     1      -4.357 -16.346   0.836  0.00  0.00    +0.000 A 
ATOM     12  C   UNL     1      -4.611 -14.398  -0.428  0.00  0.00    +0.000 A 
ATOM     13  C   UNL     1      -3.347 -16.595  -0.099  0.00  0.00    +0.000 A 
ATOM     14  C   UNL     1      -7.303 -14.145   3.550  0.00  0.00    +0.000 C 
ATOM     15  C   UNL     1      -6.485 -13.570   0.616  0.00  0.00    +0.000 A 
ATOM     16  C   UNL     1      -3.802 -18.333   1.348  0.00  0.00    +0.000 A 
ATOM     17  C   UNL     1      -5.551 -13.352  -0.465  0.00  0.00    +0.000 A 
ATOM     18  C   UNL     1      -3.589 -14.615  -1.362  0.00  0.00    +0.000 A 
ATOM     19  C   UNL     1      -2.876 -15.839  -1.192  0.00  0.00    +0.000 A 
ATOM     20  C   UNL     1      -2.970 -17.913   0.243  0.00  0.00    +0.000 A 
ATOM     21  C   UNL     1      -3.012 -13.970  -2.569  0.00  0.00    +0.000 C 
ATOM     22  C   UNL     1      -7.575 -12.699   0.783  0.00  0.00    +0.000 A 
ATOM     23  C   UNL     1      -1.877 -15.997  -2.227  0.00  0.00    +0.000 C 
ATOM     24  C   UNL     1      -3.677 -19.619   1.896  0.00  0.00    +0.000 A 
ATOM     25  C   UNL     1      -5.754 -12.249  -1.318  0.00  0.00    +0.000 A 
ATOM     26  C   UNL     1      -2.040 -18.839  -0.269  0.00  0.00    +0.000 A 
ATOM     27  C   UNL     1      -7.733 -11.620  -0.086  0.00  0.00    +0.000 A 
ATOM     28  C   UNL     1      -6.836 -11.392  -1.117  0.00  0.00    +0.000 A 
ATOM     29  C   UNL     1      -2.734 -20.491   1.353  0.00  0.00    +0.000 A 
ATOM     30  C   UNL     1      -1.928 -20.111   0.290  0.00  0.00    +0.000 A 
ATOM     31  H   UNL     1      -1.482 -14.653  -3.793  0.00  0.00    +0.000 HD
ENDROOT
BRANCH   7  32
ATOM     32  O   UNL     1      -8.443 -16.307   0.946  0.00  0.00    +0.000 OA
ATOM     33  H   UNL     1      -9.158 -16.978   0.901  0.00  0.00    +0.000 HD
ENDBRANCH   7  32
BRANCH   7  35
ATOM     34  O   UNL     1      -8.712 -16.958   4.428  0.00  0.00    +0.000 OA
ATOM     35  C   UNL     1      -8.952 -16.469   3.321  0.00  0.00    +0.000 C 
BRANCH  35  36
ATOM     36  O   UNL     1     -10.119 -15.900   2.893  0.00  0.00    +0.000 OA
ATOM     37  C   UNL     1     -10.861 -15.158   3.822  0.00  0.00    +0.000 C 
ENDBRANCH  35  36
ENDBRANCH   7  35
TORSDOF 3
ENDMDL
MODEL 7
REMARK VINA RESULT:      -6.4     17.623     20.402
REMARK  Name = 490561_Nocardiopsis.pdbqt.pdb
REMARK  3 active torsions:
REMARK  status: ('A' for Active; 'I' for Inactive)
REMARK    1  A    between atoms: C_7  and  O_32
REMARK    2  A    between atoms: C_7  and  C_35
REMARK    3  A    between atoms: C_35  and  O_36
REMARK                            x       y       z     vdW  Elec       q    Type
REMARK                         _______ _______ _______ _____ _____    ______ ____
ROOT
ATOM      1  O   UNL     1     -13.875 -20.161   4.027  0.00  0.00    +0.000 OA
ATOM      2  O   UNL     1      -9.203 -14.524   2.258  0.00  0.00    +0.000 OA
ATOM      3  N   UNL     1     -14.047 -19.195   1.876  0.00  0.00    +0.000 N 
ATOM      4  N   UNL     1     -11.734 -19.266   3.787  0.00  0.00    +0.000 N 
ATOM      5  N   UNL     1     -10.882 -14.271   0.673  0.00  0.00    +0.000 N 
ATOM      6  C   UNL     1     -14.323 -20.423   2.651  0.00  0.00    +0.000 C 
ATOM      7  C   UNL     1     -13.447 -21.666   2.190  0.00  0.00    +0.000 C 
ATOM      8  C   UNL     1     -12.491 -20.406   3.993  0.00  0.00    +0.000 C 
ATOM      9  C   UNL     1     -12.304 -21.469   3.076  0.00  0.00    +0.000 C 
ATOM     10  C   UNL     1     -13.083 -18.232   2.032  0.00  0.00    +0.000 A 
ATOM     11  C   UNL     1     -12.013 -18.248   2.928  0.00  0.00    +0.000 A 
ATOM     12  C   UNL     1     -13.073 -17.132   1.170  0.00  0.00    +0.000 A 
ATOM     13  C   UNL     1     -11.116 -17.179   2.815  0.00  0.00    +0.000 A 
ATOM     14  C   UNL     1     -15.855 -20.715   2.767  0.00  0.00    +0.000 C 
ATOM     15  C   UNL     1     -14.698 -18.696   0.720  0.00  0.00    +0.000 A 
ATOM     16  C   UNL     1     -10.479 -18.852   4.270  0.00  0.00    +0.000 A 
ATOM     17  C   UNL     1     -14.138 -17.431   0.301  0.00  0.00    +0.000 A 
ATOM     18  C   UNL     1     -12.201 -16.041   1.054  0.00  0.00    +0.000 A 
ATOM     19  C   UNL     1     -11.103 -16.054   1.965  0.00  0.00    +0.000 A 
ATOM     20  C   UNL     1     -10.098 -17.573   3.712  0.00  0.00    +0.000 A 
ATOM     21  C   UNL     1     -12.016 -14.835   0.207  0.00  0.00    +0.000 C 
ATOM     22  C   UNL     1     -15.751 -19.271  -0.011  0.00  0.00    +0.000 A 
ATOM     23  C   UNL     1     -10.237 -14.918   1.737  0.00  0.00    +0.000 C 
ATOM     24  C   UNL     1      -9.645 -19.515   5.183  0.00  0.00    +0.000 A 
ATOM     25  C   UNL     1     -14.683 -16.797  -0.833  0.00  0.00    +0.000 A 
ATOM     26  C   UNL     1      -8.862 -17.024   4.107  0.00  0.00    +0.000 A 
ATOM     27  C   UNL     1     -16.257 -18.603  -1.126  0.00  0.00    +0.000 A 
ATOM     28  C   UNL     1     -15.739 -17.383  -1.530  0.00  0.00    +0.000 A 
ATOM     29  C   UNL     1      -8.436 -18.920   5.544  0.00  0.00    +0.000 A 
ATOM     30  C   UNL     1      -8.049 -17.697   5.017  0.00  0.00    +0.000 A 
ATOM     31  H   UNL     1     -10.498 -13.422   0.286  0.00  0.00    +0.000 HD
ENDROOT
BRANCH   7  32
ATOM     32  O   UNL     1     -12.995 -21.614   0.829  0.00  0.00    +0.000 OA
ATOM     33  H   UNL     1     -13.541 -20.941   0.366  0.00  0.00    +0.000 HD
ENDBRANCH   7  32
BRANCH   7  35
ATOM     34  O   UNL     1     -14.806 -23.550   1.584  0.00  0.00    +0.000 OA
ATOM     35  C   UNL     1     -14.153 -22.992   2.468  0.00  0.00    +0.000 C 
BRANCH  35  36
ATOM     36  O   UNL     1     -13.907 -23.440   3.736  0.00  0.00    +0.000 OA
ATOM     37  C   UNL     1     -15.003 -23.858   4.504  0.00  0.00    +0.000 C 
ENDBRANCH  35  36
ENDBRANCH   7  35
TORSDOF 3
ENDMDL
MODEL 8
REMARK VINA RESULT:      -6.3     18.099     21.526
REMARK  Name = 490561_Nocardiopsis.pdbqt.pdb
REMARK  3 active torsions:
REMARK  status: ('A' for Active; 'I' for Inactive)
REMARK    1  A    between atoms: C_7  and  O_32
REMARK    2  A    between atoms: C_7  and  C_35
REMARK    3  A    between atoms: C_35  and  O_36
REMARK                            x       y       z     vdW  Elec       q    Type
REMARK                         _______ _______ _______ _____ _____    ______ ____
ROOT
ATOM      1  O   UNL     1       1.900 -15.035  -0.712  0.00  0.00    +0.000 OA
ATOM      2  O   UNL     1       1.675 -13.853  -8.148  0.00  0.00    +0.000 OA
ATOM      3  N   UNL     1      -0.086 -15.578  -1.875  0.00  0.00    +0.000 N 
ATOM      4  N   UNL     1       2.737 -15.345  -2.868  0.00  0.00    +0.000 N 
ATOM      5  N   UNL     1      -0.582 -13.999  -7.617  0.00  0.00    +0.000 N 
ATOM      6  C   UNL     1       0.696 -15.879  -0.658  0.00  0.00    +0.000 C 
ATOM      7  C   UNL     1       1.266 -17.362  -0.627  0.00  0.00    +0.000 C 
ATOM      8  C   UNL     1       2.783 -15.746  -1.544  0.00  0.00    +0.000 C 
ATOM      9  C   UNL     1       2.547 -17.118  -1.284  0.00  0.00    +0.000 C 
ATOM     10  C   UNL     1       0.313 -15.163  -3.120  0.00  0.00    +0.000 A 
ATOM     11  C   UNL     1       1.622 -15.037  -3.586  0.00  0.00    +0.000 A 
ATOM     12  C   UNL     1      -0.654 -14.907  -4.095  0.00  0.00    +0.000 A 
ATOM     13  C   UNL     1       1.750 -14.683  -4.934  0.00  0.00    +0.000 A 
ATOM     14  C   UNL     1      -0.051 -15.443   0.646  0.00  0.00    +0.000 C 
ATOM     15  C   UNL     1      -1.483 -15.676  -2.093  0.00  0.00    +0.000 A 
ATOM     16  C   UNL     1       3.721 -15.231  -3.867  0.00  0.00    +0.000 A 
ATOM     17  C   UNL     1      -1.844 -15.242  -3.423  0.00  0.00    +0.000 A 
ATOM     18  C   UNL     1      -0.551 -14.530  -5.441  0.00  0.00    +0.000 A 
ATOM     19  C   UNL     1       0.785 -14.403  -5.924  0.00  0.00    +0.000 A 
ATOM     20  C   UNL     1       3.145 -14.804  -5.123  0.00  0.00    +0.000 A 
ATOM     21  C   UNL     1      -1.434 -14.255  -6.603  0.00  0.00    +0.000 C 
ATOM     22  C   UNL     1      -2.479 -16.129  -1.211  0.00  0.00    +0.000 A 
ATOM     23  C   UNL     1       0.790 -14.060  -7.329  0.00  0.00    +0.000 C 
ATOM     24  C   UNL     1       5.099 -15.463  -3.749  0.00  0.00    +0.000 A 
ATOM     25  C   UNL     1      -3.203 -15.271  -3.795  0.00  0.00    +0.000 A 
ATOM     26  C   UNL     1       4.011 -14.639  -6.222  0.00  0.00    +0.000 A 
ATOM     27  C   UNL     1      -3.811 -16.137  -1.625  0.00  0.00    +0.000 A 
ATOM     28  C   UNL     1      -4.172 -15.709  -2.893  0.00  0.00    +0.000 A 
ATOM     29  C   UNL     1       5.910 -15.277  -4.869  0.00  0.00    +0.000 A 
ATOM     30  C   UNL     1       5.379 -14.872  -6.085  0.00  0.00    +0.000 A 
ATOM     31  H   UNL     1      -0.896 -13.774  -8.549  0.00  0.00    +0.000 HD
ENDROOT
BRANCH   7  32
ATOM     32  O   UNL     1       0.519 -18.311  -1.403  0.00  0.00    +0.000 OA
ATOM     33  H   UNL     1       0.159 -18.978  -0.779  0.00  0.00    +0.000 HD
ENDBRANCH   7  32
BRANCH   7  35
ATOM     34  O   UNL     1       2.411 -17.489   1.479  0.00  0.00    +0.000 OA
ATOM     35  C   UNL     1       1.454 -17.869   0.801  0.00  0.00    +0.000 C 
BRANCH  35  36
ATOM     36  O   UNL     1       0.435 -18.698   1.182  0.00  0.00    +0.000 OA
ATOM     37  C   UNL     1       0.777 -19.918   1.782  0.00  0.00    +0.000 C 
ENDBRANCH  35  36
ENDBRANCH   7  35
TORSDOF 3
ENDMDL
MODEL 9
REMARK VINA RESULT:      -6.3     16.967     20.102
REMARK  Name = 490561_Nocardiopsis.pdbqt.pdb
REMARK  3 active torsions:
REMARK  status: ('A' for Active; 'I' for Inactive)
REMARK    1  A    between atoms: C_7  and  O_32
REMARK    2  A    between atoms: C_7  and  C_35
REMARK    3  A    between atoms: C_35  and  O_36
REMARK                            x       y       z     vdW  Elec       q    Type
REMARK                         _______ _______ _______ _____ _____    ______ ____
ROOT
ATOM      1  O   UNL     1     -15.658 -18.187   0.872  0.00  0.00    +0.000 OA
ATOM      2  O   UNL     1     -19.495 -23.721  -2.502  0.00  0.00    +0.000 OA
ATOM      3  N   UNL     1     -14.865 -20.403   1.102  0.00  0.00    +0.000 N 
ATOM      4  N   UNL     1     -16.599 -19.177  -1.019  0.00  0.00    +0.000 N 
ATOM      5  N   UNL     1     -18.246 -24.892  -0.931  0.00  0.00    +0.000 N 
ATOM      6  C   UNL     1     -14.453 -18.985   1.146  0.00  0.00    +0.000 C 
ATOM      7  C   UNL     1     -13.452 -18.586  -0.022  0.00  0.00    +0.000 C 
ATOM      8  C   UNL     1     -15.763 -18.189  -0.530  0.00  0.00    +0.000 C 
ATOM      9  C   UNL     1     -14.435 -18.177  -1.022  0.00  0.00    +0.000 C 
ATOM     10  C   UNL     1     -15.864 -21.027   0.398  0.00  0.00    +0.000 A 
ATOM     11  C   UNL     1     -16.686 -20.462  -0.578  0.00  0.00    +0.000 A 
ATOM     12  C   UNL     1     -16.070 -22.398   0.577  0.00  0.00    +0.000 A 
ATOM     13  C   UNL     1     -17.565 -21.348  -1.212  0.00  0.00    +0.000 A 
ATOM     14  C   UNL     1     -13.988 -18.550   2.575  0.00  0.00    +0.000 C 
ATOM     15  C   UNL     1     -14.304 -21.524   1.763  0.00  0.00    +0.000 A 
ATOM     16  C   UNL     1     -17.491 -19.223  -2.106  0.00  0.00    +0.000 A 
ATOM     17  C   UNL     1     -15.043 -22.733   1.478  0.00  0.00    +0.000 A 
ATOM     18  C   UNL     1     -16.957 -23.298  -0.028  0.00  0.00    +0.000 A 
ATOM     19  C   UNL     1     -17.797 -22.727  -1.030  0.00  0.00    +0.000 A 
ATOM     20  C   UNL     1     -18.108 -20.525  -2.224  0.00  0.00    +0.000 A 
ATOM     21  C   UNL     1     -17.286 -24.746   0.006  0.00  0.00    +0.000 C 
ATOM     22  C   UNL     1     -13.176 -21.576   2.599  0.00  0.00    +0.000 A 
ATOM     23  C   UNL     1     -18.640 -23.739  -1.628  0.00  0.00    +0.000 C 
ATOM     24  C   UNL     1     -17.814 -18.190  -3.000  0.00  0.00    +0.000 A 
ATOM     25  C   UNL     1     -14.615 -23.939   2.069  0.00  0.00    +0.000 A 
ATOM     26  C   UNL     1     -19.032 -20.724  -3.269  0.00  0.00    +0.000 A 
ATOM     27  C   UNL     1     -12.793 -22.793   3.162  0.00  0.00    +0.000 A 
ATOM     28  C   UNL     1     -13.501 -23.956   2.908  0.00  0.00    +0.000 A 
ATOM     29  C   UNL     1     -18.741 -18.442  -4.010  0.00  0.00    +0.000 A 
ATOM     30  C   UNL     1     -19.342 -19.685  -4.145  0.00  0.00    +0.000 A 
ATOM     31  H   UNL     1     -18.674 -25.782  -1.138  0.00  0.00    +0.000 HD
ENDROOT
BRANCH   7  32
ATOM     32  O   UNL     1     -12.676 -19.672  -0.550  0.00  0.00    +0.000 OA
ATOM     33  H   UNL     1     -12.712 -19.607  -1.529  0.00  0.00    +0.000 HD
ENDBRANCH   7  32
BRANCH   7  35
ATOM     34  O   UNL     1     -11.443 -17.642   0.891  0.00  0.00    +0.000 OA
ATOM     35  C   UNL     1     -12.543 -17.426   0.379  0.00  0.00    +0.000 C 
BRANCH  35  36
ATOM     36  O   UNL     1     -13.089 -16.217   0.049  0.00  0.00    +0.000 OA
ATOM     37  C   UNL     1     -13.286 -15.287   1.079  0.00  0.00    +0.000 C 
ENDBRANCH  35  36
ENDBRANCH   7  35
TORSDOF 3
ENDMDL
