MODEL 1
REMARK VINA RESULT:      -5.6      0.000      0.000
REMARK  Name = 50922675_Encorafenib.pdbqt.pdb
REMARK  8 active torsions:
REMARK  status: ('A' for Active; 'I' for Inactive)
REMARK    1  A    between atoms: N_1  and  C_37
REMARK    2  A    between atoms: C_3  and  C_23
REMARK    3  A    between atoms: C_4  and  C_8
REMARK    4  A    between atoms: C_11  and  N_14
REMARK    5  A    between atoms: N_14  and  S_16
REMARK    6  A    between atoms: N_20  and  C_28
REMARK    7  A    between atoms: C_28  and  C_29
REMARK    8  A    between atoms: C_33  and  O_35
REMARK                            x       y       z     vdW  Elec       q    Type
REMARK                         _______ _______ _______ _____ _____    ______ ____
ROOT
ATOM      1  N   UNL     1      -4.696 -34.013  -6.191  0.00  0.00    +0.000 N 
ATOM      2  N   UNL     1      -4.462 -35.208  -5.542  0.00  0.00    +0.000 NA
ATOM      3  C   UNL     1      -6.247 -34.179  -4.559  0.00  0.00    +0.000 A 
ATOM      4  C   UNL     1      -5.400 -35.321  -4.589  0.00  0.00    +0.000 A 
ATOM      5  C   UNL     1      -5.771 -33.386  -5.575  0.00  0.00    +0.000 A 
ENDROOT
BRANCH   4   8
ATOM      6 CL   UNL     1      -7.553 -39.841  -3.376  0.00  0.00    +0.000 Cl
ATOM      7  F   UNL     1      -3.553 -35.709  -2.441  0.00  0.00    +0.000 F 
ATOM      8  C   UNL     1      -5.398 -36.501  -3.733  0.00  0.00    +0.000 A 
ATOM      9  C   UNL     1      -4.488 -36.643  -2.677  0.00  0.00    +0.000 A 
ATOM     10  C   UNL     1      -6.361 -37.493  -3.927  0.00  0.00    +0.000 A 
ATOM     11  C   UNL     1      -4.522 -37.766  -1.844  0.00  0.00    +0.000 A 
ATOM     12  C   UNL     1      -6.397 -38.608  -3.097  0.00  0.00    +0.000 A 
ATOM     13  C   UNL     1      -5.496 -38.742  -2.047  0.00  0.00    +0.000 A 
BRANCH  11  14
ATOM     14  N   UNL     1      -3.647 -37.840  -0.708  0.00  0.00    +0.000 N 
ATOM     15  H   UNL     1      -3.334 -38.794  -0.503  0.00  0.00    +0.000 HD
BRANCH  14  16
ATOM     16  S   UNL     1      -4.164 -37.149   0.728  0.00  0.00    +0.000 S 
ATOM     17  O   UNL     1      -3.054 -36.721   1.536  0.00  0.00    +0.000 OA
ATOM     18  O   UNL     1      -5.450 -36.494   0.641  0.00  0.00    +0.000 OA
ATOM     19  C   UNL     1      -4.670 -38.507   1.740  0.00  0.00    +0.000 C 
ENDBRANCH  14  16
ENDBRANCH  11  14
ENDBRANCH   4   8
BRANCH   3  23
ATOM     20  N   UNL     1     -10.786 -34.922  -3.363  0.00  0.00    +0.000 N 
ATOM     21  N   UNL     1      -8.518 -34.524  -3.939  0.00  0.00    +0.000 NA
ATOM     22  N   UNL     1      -9.607 -33.232  -2.290  0.00  0.00    +0.000 NA
ATOM     23  C   UNL     1      -7.393 -33.813  -3.743  0.00  0.00    +0.000 A 
ATOM     24  C   UNL     1      -9.597 -34.210  -3.201  0.00  0.00    +0.000 A 
ATOM     25  C   UNL     1      -7.306 -32.785  -2.831  0.00  0.00    +0.000 A 
ATOM     26  C   UNL     1      -8.461 -32.545  -2.130  0.00  0.00    +0.000 A 
ATOM     27  H   UNL     1     -11.533 -34.403  -2.913  0.00  0.00    +0.000 HD
BRANCH  20  28
ATOM     28  C   UNL     1     -11.034 -35.503  -4.677  0.00  0.00    +0.000 C 
BRANCH  28  29
ATOM     29  C   UNL     1     -11.308 -35.950  -5.994  0.00  0.00    +0.000 C 
ATOM     30  C   UNL     1     -10.221 -36.675  -6.727  0.00  0.00    +0.000 C 
ATOM     31  O   UNL     1     -13.734 -34.713  -5.068  0.00  0.00    +0.000 OA
ATOM     32  N   UNL     1     -12.533 -35.966  -6.571  0.00  0.00    +0.000 N 
ATOM     33  C   UNL     1     -13.681 -35.397  -6.084  0.00  0.00    +0.000 C 
ATOM     34  H   UNL     1     -12.591 -36.491  -7.439  0.00  0.00    +0.000 HD
BRANCH  33  35
ATOM     35  O   UNL     1     -14.737 -35.702  -6.912  0.00  0.00    +0.000 OA
ATOM     36  C   UNL     1     -14.467 -36.386  -8.110  0.00  0.00    +0.000 C 
ENDBRANCH  33  35
ENDBRANCH  28  29
ENDBRANCH  20  28
ENDBRANCH   3  23
BRANCH   1  37
ATOM     37  C   UNL     1      -3.990 -33.465  -7.291  0.00  0.00    +0.000 C 
ATOM     38  C   UNL     1      -4.307 -32.086  -7.844  0.00  0.00    +0.000 C 
ATOM     39  C   UNL     1      -2.862 -34.207  -7.977  0.00  0.00    +0.000 C 
ENDBRANCH   1  37
TORSDOF 8
ENDMDL
MODEL 2
REMARK VINA RESULT:      -5.5      4.604      8.594
REMARK  Name = 50922675_Encorafenib.pdbqt.pdb
REMARK  8 active torsions:
REMARK  status: ('A' for Active; 'I' for Inactive)
REMARK    1  A    between atoms: N_1  and  C_37
REMARK    2  A    between atoms: C_3  and  C_23
REMARK    3  A    between atoms: C_4  and  C_8
REMARK    4  A    between atoms: C_11  and  N_14
REMARK    5  A    between atoms: N_14  and  S_16
REMARK    6  A    between atoms: N_20  and  C_28
REMARK    7  A    between atoms: C_28  and  C_29
REMARK    8  A    between atoms: C_33  and  O_35
REMARK                            x       y       z     vdW  Elec       q    Type
REMARK                         _______ _______ _______ _____ _____    ______ ____
ROOT
ATOM      1  N   UNL     1      -2.679 -36.909  -3.581  0.00  0.00    +0.000 N 
ATOM      2  N   UNL     1      -4.033 -36.795  -3.344  0.00  0.00    +0.000 NA
ATOM      3  C   UNL     1      -3.480 -35.438  -5.094  0.00  0.00    +0.000 A 
ATOM      4  C   UNL     1      -4.516 -35.942  -4.261  0.00  0.00    +0.000 A 
ATOM      5  C   UNL     1      -2.348 -36.067  -4.635  0.00  0.00    +0.000 A 
ENDROOT
BRANCH   4   8
ATOM      6 CL   UNL     1      -9.294 -37.265  -5.657  0.00  0.00    +0.000 Cl
ATOM      7  F   UNL     1      -5.601 -33.586  -3.056  0.00  0.00    +0.000 F 
ATOM      8  C   UNL     1      -5.939 -35.626  -4.249  0.00  0.00    +0.000 A 
ATOM      9  C   UNL     1      -6.428 -34.450  -3.667  0.00  0.00    +0.000 A 
ATOM     10  C   UNL     1      -6.838 -36.484  -4.885  0.00  0.00    +0.000 A 
ATOM     11  C   UNL     1      -7.793 -34.146  -3.695  0.00  0.00    +0.000 A 
ATOM     12  C   UNL     1      -8.195 -36.180  -4.916  0.00  0.00    +0.000 A 
ATOM     13  C   UNL     1      -8.675 -35.010  -4.341  0.00  0.00    +0.000 A 
BRANCH  11  14
ATOM     14  N   UNL     1      -8.256 -32.888  -3.181  0.00  0.00    +0.000 N 
ATOM     15  H   UNL     1      -7.603 -32.118  -3.354  0.00  0.00    +0.000 HD
BRANCH  14  16
ATOM     16  S   UNL     1      -8.716 -32.819  -1.571  0.00  0.00    +0.000 S 
ATOM     17  O   UNL     1      -9.776 -31.869  -1.366  0.00  0.00    +0.000 OA
ATOM     18  O   UNL     1      -8.542 -34.061  -0.851  0.00  0.00    +0.000 OA
ATOM     19  C   UNL     1      -7.436 -31.907  -0.762  0.00  0.00    +0.000 C 
ENDBRANCH  14  16
ENDBRANCH  11  14
ENDBRANCH   4   8
BRANCH   3  23
ATOM     20  N   UNL     1      -2.426 -34.593  -9.651  0.00  0.00    +0.000 N 
ATOM     21  N   UNL     1      -2.962 -34.983  -7.372  0.00  0.00    +0.000 NA
ATOM     22  N   UNL     1      -3.385 -32.895  -8.390  0.00  0.00    +0.000 NA
ATOM     23  C   UNL     1      -3.469 -34.514  -6.217  0.00  0.00    +0.000 A 
ATOM     24  C   UNL     1      -2.936 -34.153  -8.430  0.00  0.00    +0.000 A 
ATOM     25  C   UNL     1      -3.952 -33.233  -6.077  0.00  0.00    +0.000 A 
ATOM     26  C   UNL     1      -3.881 -32.468  -7.214  0.00  0.00    +0.000 A 
ATOM     27  H   UNL     1      -2.269 -33.784 -10.242  0.00  0.00    +0.000 HD
BRANCH  20  28
ATOM     28  C   UNL     1      -1.403 -35.631  -9.604  0.00  0.00    +0.000 C 
BRANCH  28  29
ATOM     29  C   UNL     1      -0.327 -36.550  -9.510  0.00  0.00    +0.000 C 
ATOM     30  C   UNL     1      -0.648 -37.966  -9.138  0.00  0.00    +0.000 C 
ATOM     31  O   UNL     1       0.849 -34.052 -10.312  0.00  0.00    +0.000 OA
ATOM     32  N   UNL     1       0.937 -36.314  -9.931  0.00  0.00    +0.000 N 
ATOM     33  C   UNL     1       1.458 -35.115 -10.344  0.00  0.00    +0.000 C 
ATOM     34  H   UNL     1       1.537 -37.133  -9.971  0.00  0.00    +0.000 HD
BRANCH  33  35
ATOM     35  O   UNL     1       2.751 -35.296 -10.777  0.00  0.00    +0.000 OA
ATOM     36  C   UNL     1       3.266 -34.399 -11.729  0.00  0.00    +0.000 C 
ENDBRANCH  33  35
ENDBRANCH  28  29
ENDBRANCH  20  28
ENDBRANCH   3  23
BRANCH   1  37
ATOM     37  C   UNL     1      -1.738 -37.718  -2.896  0.00  0.00    +0.000 C 
ATOM     38  C   UNL     1      -0.670 -38.510  -3.632  0.00  0.00    +0.000 C 
ATOM     39  C   UNL     1      -1.720 -37.834  -1.386  0.00  0.00    +0.000 C 
ENDBRANCH   1  37
TORSDOF 8
ENDMDL
MODEL 3
REMARK VINA RESULT:      -5.5     21.253     24.576
REMARK  Name = 50922675_Encorafenib.pdbqt.pdb
REMARK  8 active torsions:
REMARK  status: ('A' for Active; 'I' for Inactive)
REMARK    1  A    between atoms: N_1  and  C_37
REMARK    2  A    between atoms: C_3  and  C_23
REMARK    3  A    between atoms: C_4  and  C_8
REMARK    4  A    between atoms: C_11  and  N_14
REMARK    5  A    between atoms: N_14  and  S_16
REMARK    6  A    between atoms: N_20  and  C_28
REMARK    7  A    between atoms: C_28  and  C_29
REMARK    8  A    between atoms: C_33  and  O_35
REMARK                            x       y       z     vdW  Elec       q    Type
REMARK                         _______ _______ _______ _____ _____    ______ ____
ROOT
ATOM      1  N   UNL     1       0.285 -16.958 -13.116  0.00  0.00    +0.000 N 
ATOM      2  N   UNL     1      -0.931 -17.552 -13.386  0.00  0.00    +0.000 NA
ATOM      3  C   UNL     1      -0.715 -15.698 -14.700  0.00  0.00    +0.000 A 
ATOM      4  C   UNL     1      -1.515 -16.820 -14.347  0.00  0.00    +0.000 A 
ATOM      5  C   UNL     1       0.400 -15.822 -13.906  0.00  0.00    +0.000 A 
ENDROOT
BRANCH   4   8
ATOM      6 CL   UNL     1      -4.397 -20.354 -16.741  0.00  0.00    +0.000 Cl
ATOM      7  F   UNL     1      -3.846 -15.179 -14.122  0.00  0.00    +0.000 F 
ATOM      8  C   UNL     1      -2.829 -17.218 -14.836  0.00  0.00    +0.000 A 
ATOM      9  C   UNL     1      -3.942 -16.375 -14.725  0.00  0.00    +0.000 A 
ATOM     10  C   UNL     1      -2.978 -18.445 -15.485  0.00  0.00    +0.000 A 
ATOM     11  C   UNL     1      -5.189 -16.759 -15.231  0.00  0.00    +0.000 A 
ATOM     12  C   UNL     1      -4.217 -18.825 -15.990  0.00  0.00    +0.000 A 
ATOM     13  C   UNL     1      -5.317 -17.984 -15.882  0.00  0.00    +0.000 A 
BRANCH  11  14
ATOM     14  N   UNL     1      -6.289 -15.837 -15.195  0.00  0.00    +0.000 N 
ATOM     15  H   UNL     1      -6.479 -15.473 -14.257  0.00  0.00    +0.000 HD
BRANCH  14  16
ATOM     16  S   UNL     1      -7.747 -16.329 -15.859  0.00  0.00    +0.000 S 
ATOM     17  O   UNL     1      -7.730 -16.238 -17.294  0.00  0.00    +0.000 OA
ATOM     18  O   UNL     1      -8.444 -17.331 -15.083  0.00  0.00    +0.000 OA
ATOM     19  C   UNL     1      -8.866 -14.994 -15.561  0.00  0.00    +0.000 C 
ENDBRANCH  14  16
ENDBRANCH  11  14
ENDBRANCH   4   8
BRANCH   3  23
ATOM     20  N   UNL     1      -2.480 -11.411 -15.747  0.00  0.00    +0.000 N 
ATOM     21  N   UNL     1      -1.587 -13.555 -15.256  0.00  0.00    +0.000 NA
ATOM     22  N   UNL     1      -1.271 -12.552 -17.369  0.00  0.00    +0.000 NA
ATOM     23  C   UNL     1      -0.882 -14.624 -15.666  0.00  0.00    +0.000 A 
ATOM     24  C   UNL     1      -1.761 -12.545 -16.126  0.00  0.00    +0.000 A 
ATOM     25  C   UNL     1      -0.342 -14.726 -16.928  0.00  0.00    +0.000 A 
ATOM     26  C   UNL     1      -0.575 -13.643 -17.737  0.00  0.00    +0.000 A 
ATOM     27  H   UNL     1      -2.706 -10.882 -16.582  0.00  0.00    +0.000 HD
BRANCH  20  28
ATOM     28  C   UNL     1      -3.514 -11.593 -14.735  0.00  0.00    +0.000 C 
BRANCH  28  29
ATOM     29  C   UNL     1      -4.526 -11.641 -13.743  0.00  0.00    +0.000 C 
ATOM     30  C   UNL     1      -5.783 -12.392 -14.061  0.00  0.00    +0.000 C 
ATOM     31  O   UNL     1      -2.356 -10.156 -12.576  0.00  0.00    +0.000 OA
ATOM     32  N   UNL     1      -4.373 -11.248 -12.457  0.00  0.00    +0.000 N 
ATOM     33  C   UNL     1      -3.306 -10.573 -11.922  0.00  0.00    +0.000 C 
ATOM     34  H   UNL     1      -5.124 -11.524 -11.831  0.00  0.00    +0.000 HD
BRANCH  33  35
ATOM     35  O   UNL     1      -3.480 -10.430 -10.565  0.00  0.00    +0.000 OA
ATOM     36  C   UNL     1      -2.344 -10.478  -9.739  0.00  0.00    +0.000 C 
ENDBRANCH  33  35
ENDBRANCH  28  29
ENDBRANCH  20  28
ENDBRANCH   3  23
BRANCH   1  37
ATOM     37  C   UNL     1       1.278 -17.380 -12.197  0.00  0.00    +0.000 C 
ATOM     38  C   UNL     1       1.325 -18.799 -11.657  0.00  0.00    +0.000 C 
ATOM     39  C   UNL     1       2.370 -16.452 -11.705  0.00  0.00    +0.000 C 
ENDBRANCH   1  37
TORSDOF 8
ENDMDL
MODEL 4
REMARK VINA RESULT:      -5.5      2.894      5.321
REMARK  Name = 50922675_Encorafenib.pdbqt.pdb
REMARK  8 active torsions:
REMARK  status: ('A' for Active; 'I' for Inactive)
REMARK    1  A    between atoms: N_1  and  C_37
REMARK    2  A    between atoms: C_3  and  C_23
REMARK    3  A    between atoms: C_4  and  C_8
REMARK    4  A    between atoms: C_11  and  N_14
REMARK    5  A    between atoms: N_14  and  S_16
REMARK    6  A    between atoms: N_20  and  C_28
REMARK    7  A    between atoms: C_28  and  C_29
REMARK    8  A    between atoms: C_33  and  O_35
REMARK                            x       y       z     vdW  Elec       q    Type
REMARK                         _______ _______ _______ _____ _____    ______ ____
ROOT
ATOM      1  N   UNL     1      -2.797 -37.265  -1.288  0.00  0.00    +0.000 N 
ATOM      2  N   UNL     1      -4.075 -37.535  -0.841  0.00  0.00    +0.000 NA
ATOM      3  C   UNL     1      -4.216 -36.370  -2.798  0.00  0.00    +0.000 A 
ATOM      4  C   UNL     1      -4.919 -37.028  -1.752  0.00  0.00    +0.000 A 
ATOM      5  C   UNL     1      -2.893 -36.541  -2.468  0.00  0.00    +0.000 A 
ENDROOT
BRANCH   4   8
ATOM      6 CL   UNL     1      -9.504 -38.414  -3.645  0.00  0.00    +0.000 Cl
ATOM      7  F   UNL     1      -6.232 -36.268   0.672  0.00  0.00    +0.000 F 
ATOM      8  C   UNL     1      -6.354 -37.166  -1.537  0.00  0.00    +0.000 A 
ATOM      9  C   UNL     1      -6.962 -36.762  -0.342  0.00  0.00    +0.000 A 
ATOM     10  C   UNL     1      -7.159 -37.658  -2.566  0.00  0.00    +0.000 A 
ATOM     11  C   UNL     1      -8.346 -36.869  -0.166  0.00  0.00    +0.000 A 
ATOM     12  C   UNL     1      -8.534 -37.762  -2.392  0.00  0.00    +0.000 A 
ATOM     13  C   UNL     1      -9.134 -37.355  -1.206  0.00  0.00    +0.000 A 
BRANCH  11  14
ATOM     14  N   UNL     1      -8.957 -36.355   1.028  0.00  0.00    +0.000 N 
ATOM     15  H   UNL     1      -9.748 -36.920   1.351  0.00  0.00    +0.000 HD
BRANCH  14  16
ATOM     16  S   UNL     1      -9.437 -34.749   1.034  0.00  0.00    +0.000 S 
ATOM     17  O   UNL     1      -8.342 -33.874   1.358  0.00  0.00    +0.000 OA
ATOM     18  O   UNL     1     -10.518 -34.450   0.123  0.00  0.00    +0.000 OA
ATOM     19  C   UNL     1     -10.344 -34.542   2.537  0.00  0.00    +0.000 C 
ENDBRANCH  14  16
ENDBRANCH  11  14
ENDBRANCH   4   8
BRANCH   3  23
ATOM     20  N   UNL     1      -6.690 -32.832  -4.788  0.00  0.00    +0.000 N 
ATOM     21  N   UNL     1      -5.447 -34.610  -3.825  0.00  0.00    +0.000 NA
ATOM     22  N   UNL     1      -5.526 -34.299  -6.164  0.00  0.00    +0.000 NA
ATOM     23  C   UNL     1      -4.647 -35.678  -4.002  0.00  0.00    +0.000 A 
ATOM     24  C   UNL     1      -5.864 -33.949  -4.919  0.00  0.00    +0.000 A 
ATOM     25  C   UNL     1      -4.249 -36.117  -5.244  0.00  0.00    +0.000 A 
ATOM     26  C   UNL     1      -4.728 -35.374  -6.293  0.00  0.00    +0.000 A 
ATOM     27  H   UNL     1      -7.085 -32.619  -5.697  0.00  0.00    +0.000 HD
BRANCH  20  28
ATOM     28  C   UNL     1      -7.562 -32.789  -3.620  0.00  0.00    +0.000 C 
BRANCH  28  29
ATOM     29  C   UNL     1      -8.489 -32.828  -2.548  0.00  0.00    +0.000 C 
ATOM     30  C   UNL     1      -8.346 -31.806  -1.462  0.00  0.00    +0.000 C 
ATOM     31  O   UNL     1      -9.277 -34.935  -4.341  0.00  0.00    +0.000 OA
ATOM     32  N   UNL     1      -9.620 -33.572  -2.525  0.00  0.00    +0.000 N 
ATOM     33  C   UNL     1      -9.985 -34.545  -3.418  0.00  0.00    +0.000 C 
ATOM     34  H   UNL     1     -10.269 -33.343  -1.778  0.00  0.00    +0.000 HD
BRANCH  33  35
ATOM     35  O   UNL     1     -11.241 -35.012  -3.107  0.00  0.00    +0.000 OA
ATOM     36  C   UNL     1     -11.963 -35.695  -4.102  0.00  0.00    +0.000 C 
ENDBRANCH  33  35
ENDBRANCH  28  29
ENDBRANCH  20  28
ENDBRANCH   3  23
BRANCH   1  37
ATOM     37  C   UNL     1      -1.567 -37.627  -0.685  0.00  0.00    +0.000 C 
ATOM     38  C   UNL     1      -0.584 -38.568  -1.362  0.00  0.00    +0.000 C 
ATOM     39  C   UNL     1      -1.139 -37.088   0.664  0.00  0.00    +0.000 C 
ENDBRANCH   1  37
TORSDOF 8
ENDMDL
MODEL 5
REMARK VINA RESULT:      -5.5      6.622      8.972
REMARK  Name = 50922675_Encorafenib.pdbqt.pdb
REMARK  8 active torsions:
REMARK  status: ('A' for Active; 'I' for Inactive)
REMARK    1  A    between atoms: N_1  and  C_37
REMARK    2  A    between atoms: C_3  and  C_23
REMARK    3  A    between atoms: C_4  and  C_8
REMARK    4  A    between atoms: C_11  and  N_14
REMARK    5  A    between atoms: N_14  and  S_16
REMARK    6  A    between atoms: N_20  and  C_28
REMARK    7  A    between atoms: C_28  and  C_29
REMARK    8  A    between atoms: C_33  and  O_35
REMARK                            x       y       z     vdW  Elec       q    Type
REMARK                         _______ _______ _______ _____ _____    ______ ____
ROOT
ATOM      1  N   UNL     1      -4.382 -39.694  -7.175  0.00  0.00    +0.000 N 
ATOM      2  N   UNL     1      -3.350 -39.525  -8.076  0.00  0.00    +0.000 NA
ATOM      3  C   UNL     1      -3.271 -37.831  -6.548  0.00  0.00    +0.000 A 
ATOM      4  C   UNL     1      -2.672 -38.434  -7.688  0.00  0.00    +0.000 A 
ATOM      5  C   UNL     1      -4.337 -38.649  -6.261  0.00  0.00    +0.000 A 
ENDROOT
BRANCH   4   8
ATOM      6 CL   UNL     1       2.210 -39.303  -9.081  0.00  0.00    +0.000 Cl
ATOM      7  F   UNL     1      -2.633 -36.071  -9.298  0.00  0.00    +0.000 F 
ATOM      8  C   UNL     1      -1.514 -38.010  -8.466  0.00  0.00    +0.000 A 
ATOM      9  C   UNL     1      -1.529 -36.834  -9.226  0.00  0.00    +0.000 A 
ATOM     10  C   UNL     1      -0.338 -38.759  -8.411  0.00  0.00    +0.000 A 
ATOM     11  C   UNL     1      -0.398 -36.424  -9.939  0.00  0.00    +0.000 A 
ATOM     12  C   UNL     1       0.788 -38.350  -9.117  0.00  0.00    +0.000 A 
ATOM     13  C   UNL     1       0.770 -37.179  -9.867  0.00  0.00    +0.000 A 
BRANCH  11  14
ATOM     14  N   UNL     1      -0.405 -35.164 -10.628  0.00  0.00    +0.000 N 
ATOM     15  H   UNL     1      -1.024 -34.472 -10.195  0.00  0.00    +0.000 HD
BRANCH  14  16
ATOM     16  S   UNL     1      -0.716 -35.171 -12.275  0.00  0.00    +0.000 S 
ATOM     17  O   UNL     1      -0.203 -33.988 -12.913  0.00  0.00    +0.000 OA
ATOM     18  O   UNL     1      -0.774 -36.491 -12.862  0.00  0.00    +0.000 OA
ATOM     19  C   UNL     1      -2.434 -34.782 -12.424  0.00  0.00    +0.000 C 
ENDBRANCH  14  16
ENDBRANCH  11  14
ENDBRANCH   4   8
BRANCH   3  23
ATOM     20  N   UNL     1      -3.211 -33.101  -6.088  0.00  0.00    +0.000 N 
ATOM     21  N   UNL     1      -3.224 -35.466  -6.288  0.00  0.00    +0.000 NA
ATOM     22  N   UNL     1      -2.354 -34.405  -4.367  0.00  0.00    +0.000 NA
ATOM     23  C   UNL     1      -2.934 -36.664  -5.749  0.00  0.00    +0.000 A 
ATOM     24  C   UNL     1      -2.924 -34.366  -5.575  0.00  0.00    +0.000 A 
ATOM     25  C   UNL     1      -2.343 -36.806  -4.514  0.00  0.00    +0.000 A 
ATOM     26  C   UNL     1      -2.078 -35.624  -3.869  0.00  0.00    +0.000 A 
ATOM     27  H   UNL     1      -2.710 -32.412  -5.538  0.00  0.00    +0.000 HD
BRANCH  20  28
ATOM     28  C   UNL     1      -3.218 -32.963  -7.539  0.00  0.00    +0.000 C 
BRANCH  28  29
ATOM     29  C   UNL     1      -3.351 -32.859  -8.947  0.00  0.00    +0.000 C 
ATOM     30  C   UNL     1      -2.197 -32.295  -9.719  0.00  0.00    +0.000 C 
ATOM     31  O   UNL     1      -5.795 -34.055  -8.018  0.00  0.00    +0.000 OA
ATOM     32  N   UNL     1      -4.343 -33.419  -9.678  0.00  0.00    +0.000 N 
ATOM     33  C   UNL     1      -5.481 -34.017  -9.202  0.00  0.00    +0.000 C 
ATOM     34  H   UNL     1      -4.190 -33.417 -10.683  0.00  0.00    +0.000 HD
BRANCH  33  35
ATOM     35  O   UNL     1      -6.203 -34.542 -10.250  0.00  0.00    +0.000 OA
ATOM     36  C   UNL     1      -6.166 -33.872 -11.484  0.00  0.00    +0.000 C 
ENDBRANCH  33  35
ENDBRANCH  28  29
ENDBRANCH  20  28
ENDBRANCH   3  23
BRANCH   1  37
ATOM     37  C   UNL     1      -5.355 -40.724  -7.145  0.00  0.00    +0.000 C 
ATOM     38  C   UNL     1      -5.583 -41.651  -8.326  0.00  0.00    +0.000 C 
ATOM     39  C   UNL     1      -6.220 -40.982  -5.928  0.00  0.00    +0.000 C 
ENDBRANCH   1  37
TORSDOF 8
ENDMDL
MODEL 6
REMARK VINA RESULT:      -5.4     19.111     21.506
REMARK  Name = 50922675_Encorafenib.pdbqt.pdb
REMARK  8 active torsions:
REMARK  status: ('A' for Active; 'I' for Inactive)
REMARK    1  A    between atoms: N_1  and  C_37
REMARK    2  A    between atoms: C_3  and  C_23
REMARK    3  A    between atoms: C_4  and  C_8
REMARK    4  A    between atoms: C_11  and  N_14
REMARK    5  A    between atoms: N_14  and  S_16
REMARK    6  A    between atoms: N_20  and  C_28
REMARK    7  A    between atoms: C_28  and  C_29
REMARK    8  A    between atoms: C_33  and  O_35
REMARK                            x       y       z     vdW  Elec       q    Type
REMARK                         _______ _______ _______ _____ _____    ______ ____
ROOT
ATOM      1  N   UNL     1      -9.739 -15.782   1.408  0.00  0.00    +0.000 N 
ATOM      2  N   UNL     1      -8.854 -16.727   1.887  0.00  0.00    +0.000 NA
ATOM      3  C   UNL     1      -7.725 -14.772   1.547  0.00  0.00    +0.000 A 
ATOM      4  C   UNL     1      -7.662 -16.120   1.996  0.00  0.00    +0.000 A 
ATOM      5  C   UNL     1      -9.040 -14.603   1.187  0.00  0.00    +0.000 A 
ENDROOT
BRANCH   4   8
ATOM      6 CL   UNL     1      -3.800 -19.355   0.926  0.00  0.00    +0.000 Cl
ATOM      7  F   UNL     1      -6.858 -16.186   4.740  0.00  0.00    +0.000 F 
ATOM      8  C   UNL     1      -6.522 -16.888   2.483  0.00  0.00    +0.000 A 
ATOM      9  C   UNL     1      -6.174 -16.910   3.839  0.00  0.00    +0.000 A 
ATOM     10  C   UNL     1      -5.789 -17.670   1.588  0.00  0.00    +0.000 A 
ATOM     11  C   UNL     1      -5.097 -17.679   4.293  0.00  0.00    +0.000 A 
ATOM     12  C   UNL     1      -4.722 -18.438   2.040  0.00  0.00    +0.000 A 
ATOM     13  C   UNL     1      -4.382 -18.460   3.388  0.00  0.00    +0.000 A 
BRANCH  11  14
ATOM     14  N   UNL     1      -4.824 -17.765   5.700  0.00  0.00    +0.000 N 
ATOM     15  H   UNL     1      -3.895 -17.414   5.951  0.00  0.00    +0.000 HD
BRANCH  14  16
ATOM     16  S   UNL     1      -5.032 -19.248   6.451  0.00  0.00    +0.000 S 
ATOM     17  O   UNL     1      -6.178 -19.945   5.932  0.00  0.00    +0.000 OA
ATOM     18  O   UNL     1      -3.804 -19.861   6.905  0.00  0.00    +0.000 OA
ATOM     19  C   UNL     1      -5.699 -18.872   8.044  0.00  0.00    +0.000 C 
ENDBRANCH  14  16
ENDBRANCH  11  14
ENDBRANCH   4   8
BRANCH   3  23
ATOM     20  N   UNL     1      -3.989 -12.852  -0.679  0.00  0.00    +0.000 N 
ATOM     21  N   UNL     1      -5.853 -13.787   0.456  0.00  0.00    +0.000 NA
ATOM     22  N   UNL     1      -4.847 -11.784   1.198  0.00  0.00    +0.000 NA
ATOM     23  C   UNL     1      -6.740 -13.706   1.465  0.00  0.00    +0.000 A 
ATOM     24  C   UNL     1      -4.928 -12.817   0.353  0.00  0.00    +0.000 A 
ATOM     25  C   UNL     1      -6.734 -12.684   2.387  0.00  0.00    +0.000 A 
ATOM     26  C   UNL     1      -5.752 -11.746   2.192  0.00  0.00    +0.000 A 
ATOM     27  H   UNL     1      -3.249 -12.195  -0.460  0.00  0.00    +0.000 HD
BRANCH  20  28
ATOM     28  C   UNL     1      -3.625 -14.167  -1.194  0.00  0.00    +0.000 C 
BRANCH  28  29
ATOM     29  C   UNL     1      -3.239 -15.386  -1.807  0.00  0.00    +0.000 C 
ATOM     30  C   UNL     1      -4.095 -16.592  -1.566  0.00  0.00    +0.000 C 
ATOM     31  O   UNL     1      -1.307 -13.435  -2.663  0.00  0.00    +0.000 OA
ATOM     32  N   UNL     1      -2.285 -15.509  -2.760  0.00  0.00    +0.000 N 
ATOM     33  C   UNL     1      -1.402 -14.546  -3.172  0.00  0.00    +0.000 C 
ATOM     34  H   UNL     1      -2.263 -16.409  -3.231  0.00  0.00    +0.000 HD
BRANCH  33  35
ATOM     35  O   UNL     1      -0.648 -15.025  -4.219  0.00  0.00    +0.000 OA
ATOM     36  C   UNL     1       0.714 -14.683  -4.269  0.00  0.00    +0.000 C 
ENDBRANCH  33  35
ENDBRANCH  28  29
ENDBRANCH  20  28
ENDBRANCH   3  23
BRANCH   1  37
ATOM     37  C   UNL     1     -11.125 -15.934   1.155  0.00  0.00    +0.000 C 
ATOM     38  C   UNL     1     -11.856 -17.238   1.427  0.00  0.00    +0.000 C 
ATOM     39  C   UNL     1     -11.976 -14.803   0.615  0.00  0.00    +0.000 C 
ENDBRANCH   1  37
TORSDOF 8
ENDMDL
MODEL 7
REMARK VINA RESULT:      -5.4      4.019      6.447
REMARK  Name = 50922675_Encorafenib.pdbqt.pdb
REMARK  8 active torsions:
REMARK  status: ('A' for Active; 'I' for Inactive)
REMARK    1  A    between atoms: N_1  and  C_37
REMARK    2  A    between atoms: C_3  and  C_23
REMARK    3  A    between atoms: C_4  and  C_8
REMARK    4  A    between atoms: C_11  and  N_14
REMARK    5  A    between atoms: N_14  and  S_16
REMARK    6  A    between atoms: N_20  and  C_28
REMARK    7  A    between atoms: C_28  and  C_29
REMARK    8  A    between atoms: C_33  and  O_35
REMARK                            x       y       z     vdW  Elec       q    Type
REMARK                         _______ _______ _______ _____ _____    ______ ____
ROOT
ATOM      1  N   UNL     1      -8.917 -32.488  -0.765  0.00  0.00    +0.000 N 
ATOM      2  N   UNL     1      -7.675 -32.737  -1.313  0.00  0.00    +0.000 NA
ATOM      3  C   UNL     1      -9.234 -33.954  -2.453  0.00  0.00    +0.000 A 
ATOM      4  C   UNL     1      -7.865 -33.586  -2.334  0.00  0.00    +0.000 A 
ATOM      5  C   UNL     1      -9.856 -33.247  -1.453  0.00  0.00    +0.000 A 
ENDROOT
BRANCH   4   8
ATOM      6 CL   UNL     1      -3.969 -36.917  -2.837  0.00  0.00    +0.000 Cl
ATOM      7  F   UNL     1      -6.961 -32.283  -4.714  0.00  0.00    +0.000 F 
ATOM      8  C   UNL     1      -6.711 -34.031  -3.106  0.00  0.00    +0.000 A 
ATOM      9  C   UNL     1      -6.288 -33.352  -4.255  0.00  0.00    +0.000 A 
ATOM     10  C   UNL     1      -5.969 -35.126  -2.662  0.00  0.00    +0.000 A 
ATOM     11  C   UNL     1      -5.157 -33.772  -4.964  0.00  0.00    +0.000 A 
ATOM     12  C   UNL     1      -4.843 -35.542  -3.365  0.00  0.00    +0.000 A 
ATOM     13  C   UNL     1      -4.424 -34.862  -4.502  0.00  0.00    +0.000 A 
BRANCH  11  14
ATOM     14  N   UNL     1      -4.685 -33.000  -6.079  0.00  0.00    +0.000 N 
ATOM     15  H   UNL     1      -5.301 -32.216  -6.315  0.00  0.00    +0.000 HD
BRANCH  14  16
ATOM     16  S   UNL     1      -4.322 -33.812  -7.499  0.00  0.00    +0.000 S 
ATOM     17  O   UNL     1      -2.907 -34.031  -7.634  0.00  0.00    +0.000 OA
ATOM     18  O   UNL     1      -5.364 -34.707  -7.953  0.00  0.00    +0.000 OA
ATOM     19  C   UNL     1      -4.488 -32.605  -8.780  0.00  0.00    +0.000 C 
ENDBRANCH  14  16
ENDBRANCH  11  14
ENDBRANCH   4   8
BRANCH   3  23
ATOM     20  N   UNL     1     -13.265 -36.183  -3.625  0.00  0.00    +0.000 N 
ATOM     21  N   UNL     1     -11.237 -35.084  -3.066  0.00  0.00    +0.000 NA
ATOM     22  N   UNL     1     -11.411 -36.422  -5.004  0.00  0.00    +0.000 NA
ATOM     23  C   UNL     1      -9.954 -34.819  -3.374  0.00  0.00    +0.000 A 
ATOM     24  C   UNL     1     -11.930 -35.882  -3.897  0.00  0.00    +0.000 A 
ATOM     25  C   UNL     1      -9.330 -35.331  -4.489  0.00  0.00    +0.000 A 
ATOM     26  C   UNL     1     -10.124 -36.132  -5.270  0.00  0.00    +0.000 A 
ATOM     27  H   UNL     1     -13.542 -36.965  -4.208  0.00  0.00    +0.000 HD
BRANCH  20  28
ATOM     28  C   UNL     1     -13.671 -36.179  -2.225  0.00  0.00    +0.000 C 
BRANCH  28  29
ATOM     29  C   UNL     1     -13.994 -36.068  -0.848  0.00  0.00    +0.000 C 
ATOM     30  C   UNL     1     -13.272 -36.962   0.114  0.00  0.00    +0.000 C 
ATOM     31  O   UNL     1     -15.603 -34.098  -2.190  0.00  0.00    +0.000 OA
ATOM     32  N   UNL     1     -14.742 -35.081  -0.303  0.00  0.00    +0.000 N 
ATOM     33  C   UNL     1     -15.470 -34.132  -0.972  0.00  0.00    +0.000 C 
ATOM     34  H   UNL     1     -14.720 -35.036   0.712  0.00  0.00    +0.000 HD
BRANCH  33  35
ATOM     35  O   UNL     1     -16.024 -33.252  -0.071  0.00  0.00    +0.000 OA
ATOM     36  C   UNL     1     -15.199 -32.260   0.484  0.00  0.00    +0.000 C 
ENDBRANCH  33  35
ENDBRANCH  28  29
ENDBRANCH  20  28
ENDBRANCH   3  23
BRANCH   1  37
ATOM     37  C   UNL     1      -9.239 -31.631   0.316  0.00  0.00    +0.000 C 
ATOM     38  C   UNL     1      -8.735 -31.889   1.726  0.00  0.00    +0.000 C 
ATOM     39  C   UNL     1     -10.090 -30.390   0.137  0.00  0.00    +0.000 C 
ENDBRANCH   1  37
TORSDOF 8
ENDMDL
MODEL 8
REMARK VINA RESULT:      -5.3      7.432     10.698
REMARK  Name = 50922675_Encorafenib.pdbqt.pdb
REMARK  8 active torsions:
REMARK  status: ('A' for Active; 'I' for Inactive)
REMARK    1  A    between atoms: N_1  and  C_37
REMARK    2  A    between atoms: C_3  and  C_23
REMARK    3  A    between atoms: C_4  and  C_8
REMARK    4  A    between atoms: C_11  and  N_14
REMARK    5  A    between atoms: N_14  and  S_16
REMARK    6  A    between atoms: N_20  and  C_28
REMARK    7  A    between atoms: C_28  and  C_29
REMARK    8  A    between atoms: C_33  and  O_35
REMARK                            x       y       z     vdW  Elec       q    Type
REMARK                         _______ _______ _______ _____ _____    ______ ____
ROOT
ATOM      1  N   UNL     1       2.928 -32.244 -10.973  0.00  0.00    +0.000 N 
ATOM      2  N   UNL     1       1.996 -32.912 -10.203  0.00  0.00    +0.000 NA
ATOM      3  C   UNL     1       1.048 -32.395 -12.214  0.00  0.00    +0.000 A 
ATOM      4  C   UNL     1       0.888 -33.027 -10.950  0.00  0.00    +0.000 A 
ATOM      5  C   UNL     1       2.337 -31.918 -12.186  0.00  0.00    +0.000 A 
ENDROOT
BRANCH   4   8
ATOM      6 CL   UNL     1      -1.213 -37.385  -9.186  0.00  0.00    +0.000 Cl
ATOM      7  F   UNL     1      -1.605 -31.714 -10.461  0.00  0.00    +0.000 F 
ATOM      8  C   UNL     1      -0.277 -33.696 -10.385  0.00  0.00    +0.000 A 
ATOM      9  C   UNL     1      -1.487 -33.022 -10.180  0.00  0.00    +0.000 A 
ATOM     10  C   UNL     1      -0.210 -35.060 -10.092  0.00  0.00    +0.000 A 
ATOM     11  C   UNL     1      -2.605 -33.690  -9.669  0.00  0.00    +0.000 A 
ATOM     12  C   UNL     1      -1.323 -35.724  -9.587  0.00  0.00    +0.000 A 
ATOM     13  C   UNL     1      -2.523 -35.052  -9.390  0.00  0.00    +0.000 A 
BRANCH  11  14
ATOM     14  N   UNL     1      -3.862 -33.002  -9.564  0.00  0.00    +0.000 N 
ATOM     15  H   UNL     1      -3.938 -32.204 -10.201  0.00  0.00    +0.000 HD
BRANCH  14  16
ATOM     16  S   UNL     1      -4.353 -32.494  -8.045  0.00  0.00    +0.000 S 
ATOM     17  O   UNL     1      -3.876 -31.169  -7.752  0.00  0.00    +0.000 OA
ATOM     18  O   UNL     1      -5.614 -33.053  -7.611  0.00  0.00    +0.000 OA
ATOM     19  C   UNL     1      -3.318 -33.364  -6.907  0.00  0.00    +0.000 C 
ENDBRANCH  14  16
ENDBRANCH  11  14
ENDBRANCH   4   8
BRANCH   3  23
ATOM     20  N   UNL     1      -2.991 -33.557 -14.435  0.00  0.00    +0.000 N 
ATOM     21  N   UNL     1      -0.965 -32.958 -13.353  0.00  0.00    +0.000 NA
ATOM     22  N   UNL     1      -1.542 -32.055 -15.456  0.00  0.00    +0.000 NA
ATOM     23  C   UNL     1       0.175 -32.243 -13.367  0.00  0.00    +0.000 A 
ATOM     24  C   UNL     1      -1.794 -32.840 -14.405  0.00  0.00    +0.000 A 
ATOM     25  C   UNL     1       0.524 -31.410 -14.406  0.00  0.00    +0.000 A 
ATOM     26  C   UNL     1      -0.390 -31.361 -15.429  0.00  0.00    +0.000 A 
ATOM     27  H   UNL     1      -3.355 -33.530 -15.381  0.00  0.00    +0.000 HD
BRANCH  20  28
ATOM     28  C   UNL     1      -3.021 -34.822 -13.710  0.00  0.00    +0.000 C 
BRANCH  28  29
ATOM     29  C   UNL     1      -2.923 -36.041 -12.993  0.00  0.00    +0.000 C 
ATOM     30  C   UNL     1      -1.605 -36.754 -13.003  0.00  0.00    +0.000 C 
ATOM     31  O   UNL     1      -5.606 -35.097 -12.566  0.00  0.00    +0.000 OA
ATOM     32  N   UNL     1      -3.851 -36.509 -12.125  0.00  0.00    +0.000 N 
ATOM     33  C   UNL     1      -5.111 -36.013 -11.918  0.00  0.00    +0.000 C 
ATOM     34  H   UNL     1      -3.546 -37.291 -11.552  0.00  0.00    +0.000 HD
BRANCH  33  35
ATOM     35  O   UNL     1      -5.720 -36.704 -10.896  0.00  0.00    +0.000 OA
ATOM     36  C   UNL     1      -5.375 -38.053 -10.708  0.00  0.00    +0.000 C 
ENDBRANCH  33  35
ENDBRANCH  28  29
ENDBRANCH  20  28
ENDBRANCH   3  23
BRANCH   1  37
ATOM     37  C   UNL     1       4.263 -31.912 -10.634  0.00  0.00    +0.000 C 
ATOM     38  C   UNL     1       5.017 -32.632  -9.529  0.00  0.00    +0.000 C 
ATOM     39  C   UNL     1       5.035 -30.829 -11.361  0.00  0.00    +0.000 C 
ENDBRANCH   1  37
TORSDOF 8
ENDMDL
MODEL 9
REMARK VINA RESULT:      -5.1     18.511     20.938
REMARK  Name = 50922675_Encorafenib.pdbqt.pdb
REMARK  8 active torsions:
REMARK  status: ('A' for Active; 'I' for Inactive)
REMARK    1  A    between atoms: N_1  and  C_37
REMARK    2  A    between atoms: C_3  and  C_23
REMARK    3  A    between atoms: C_4  and  C_8
REMARK    4  A    between atoms: C_11  and  N_14
REMARK    5  A    between atoms: N_14  and  S_16
REMARK    6  A    between atoms: N_20  and  C_28
REMARK    7  A    between atoms: C_28  and  C_29
REMARK    8  A    between atoms: C_33  and  O_35
REMARK                            x       y       z     vdW  Elec       q    Type
REMARK                         _______ _______ _______ _____ _____    ______ ____
ROOT
ATOM      1  N   UNL     1      -5.596 -17.818   3.076  0.00  0.00    +0.000 N 
ATOM      2  N   UNL     1      -4.496 -18.650   3.010  0.00  0.00    +0.000 NA
ATOM      3  C   UNL     1      -4.539 -17.346   1.137  0.00  0.00    +0.000 A 
ATOM      4  C   UNL     1      -3.852 -18.350   1.872  0.00  0.00    +0.000 A 
ATOM      5  C   UNL     1      -5.624 -17.042   1.925  0.00  0.00    +0.000 A 
ENDROOT
BRANCH   4   8
ATOM      6 CL   UNL     1      -1.703 -22.389  -0.494  0.00  0.00    +0.000 Cl
ATOM      7  F   UNL     1      -1.244 -17.570   2.748  0.00  0.00    +0.000 F 
ATOM      8  C   UNL     1      -2.637 -19.083   1.536  0.00  0.00    +0.000 A 
ATOM      9  C   UNL     1      -1.380 -18.679   2.003  0.00  0.00    +0.000 A 
ATOM     10  C   UNL     1      -2.728 -20.252   0.777  0.00  0.00    +0.000 A 
ATOM     11  C   UNL     1      -0.229 -19.414   1.698  0.00  0.00    +0.000 A 
ATOM     12  C   UNL     1      -1.584 -20.984   0.478  0.00  0.00    +0.000 A 
ATOM     13  C   UNL     1      -0.340 -20.582   0.947  0.00  0.00    +0.000 A 
BRANCH  11  14
ATOM     14  N   UNL     1       1.032 -19.037   2.272  0.00  0.00    +0.000 N 
ATOM     15  H   UNL     1       1.833 -19.290   1.686  0.00  0.00    +0.000 HD
BRANCH  14  16
ATOM     16  S   UNL     1       1.363 -19.537   3.837  0.00  0.00    +0.000 S 
ATOM     17  O   UNL     1       1.367 -18.428   4.754  0.00  0.00    +0.000 OA
ATOM     18  O   UNL     1       0.922 -20.881   4.136  0.00  0.00    +0.000 OA
ATOM     19  C   UNL     1       3.101 -19.858   3.863  0.00  0.00    +0.000 C 
ENDBRANCH  14  16
ENDBRANCH  11  14
ENDBRANCH   4   8
BRANCH   3  23
ATOM     20  N   UNL     1      -4.535 -13.339  -1.419  0.00  0.00    +0.000 N 
ATOM     21  N   UNL     1      -4.527 -15.357  -0.170  0.00  0.00    +0.000 NA
ATOM     22  N   UNL     1      -3.811 -15.307  -2.419  0.00  0.00    +0.000 NA
ATOM     23  C   UNL     1      -4.268 -16.676  -0.125  0.00  0.00    +0.000 A 
ATOM     24  C   UNL     1      -4.288 -14.709  -1.323  0.00  0.00    +0.000 A 
ATOM     25  C   UNL     1      -3.779 -17.381  -1.201  0.00  0.00    +0.000 A 
ATOM     26  C   UNL     1      -3.569 -16.627  -2.329  0.00  0.00    +0.000 A 
ATOM     27  H   UNL     1      -4.527 -13.080  -2.400  0.00  0.00    +0.000 HD
BRANCH  20  28
ATOM     28  C   UNL     1      -5.583 -12.795  -0.563  0.00  0.00    +0.000 C 
BRANCH  28  29
ATOM     29  C   UNL     1      -6.685 -12.344   0.206  0.00  0.00    +0.000 C 
ATOM     30  C   UNL     1      -7.597 -13.377   0.796  0.00  0.00    +0.000 C 
ATOM     31  O   UNL     1      -5.269  -9.973  -0.596  0.00  0.00    +0.000 OA
ATOM     32  N   UNL     1      -6.868 -11.072   0.632  0.00  0.00    +0.000 N 
ATOM     33  C   UNL     1      -6.149  -9.966   0.258  0.00  0.00    +0.000 C 
ATOM     34  H   UNL     1      -7.597 -10.953   1.329  0.00  0.00    +0.000 HD
BRANCH  33  35
ATOM     35  O   UNL     1      -6.579  -8.871   0.971  0.00  0.00    +0.000 OA
ATOM     36  C   UNL     1      -5.661  -8.229   1.820  0.00  0.00    +0.000 C 
ENDBRANCH  33  35
ENDBRANCH  28  29
ENDBRANCH  20  28
ENDBRANCH   3  23
BRANCH   1  37
ATOM     37  C   UNL     1      -6.566 -17.734   4.105  0.00  0.00    +0.000 C 
ATOM     38  C   UNL     1      -6.281 -18.203   5.522  0.00  0.00    +0.000 C 
ATOM     39  C   UNL     1      -7.946 -17.155   3.868  0.00  0.00    +0.000 C 
ENDBRANCH   1  37
TORSDOF 8
ENDMDL
