MODEL 1
REMARK VINA RESULT:      -6.7      0.000      0.000
REMARK  Name = 5109870_Ethoxyphenyl.pdbqt.pdb
REMARK  6 active torsions:
REMARK  status: ('A' for Active; 'I' for Inactive)
REMARK    1  A    between atoms: N_2  and  C_22
REMARK    2  A    between atoms: C_3  and  O_11
REMARK    3  A    between atoms: C_3  and  C_13
REMARK    4  A    between atoms: C_16  and  N_19
REMARK    5  A    between atoms: C_25  and  O_28
REMARK    6  A    between atoms: O_28  and  C_29
REMARK                            x       y       z     vdW  Elec       q    Type
REMARK                         _______ _______ _______ _____ _____    ______ ____
ROOT
ATOM      1  N   UNL     1      -3.873 -35.220  -5.226  0.00  0.00    +0.000 N 
ATOM      2  N   UNL     1      -5.658 -34.526  -3.780  0.00  0.00    +0.000 N 
ATOM      3  C   UNL     1      -3.235 -35.061  -3.897  0.00  0.00    +0.000 C 
ATOM      4  C   UNL     1      -5.275 -34.711  -5.094  0.00  0.00    +0.000 C 
ATOM      5  C   UNL     1      -4.419 -34.767  -3.088  0.00  0.00    +0.000 C 
ATOM      6  C   UNL     1      -3.188 -34.668  -6.394  0.00  0.00    +0.000 C 
ATOM      7  C   UNL     1      -5.916 -34.054  -6.186  0.00  0.00    +0.000 C 
ATOM      8  C   UNL     1      -3.220 -33.901  -7.727  0.00  0.00    +0.000 C 
ATOM      9  C   UNL     1      -5.770 -33.380  -7.560  0.00  0.00    +0.000 C 
ATOM     10  C   UNL     1      -4.465 -33.269  -8.342  0.00  0.00    +0.000 C 
ENDROOT
BRANCH   3  11
ATOM     11  C   UNL     1      -2.482 -36.306  -3.490  0.00  0.00    +0.000 A 
ATOM     12  C   UNL     1      -1.725 -37.039  -4.415  0.00  0.00    +0.000 A 
ATOM     13  C   UNL     1      -0.998 -38.160  -4.023  0.00  0.00    +0.000 A 
ATOM     14  C   UNL     1      -1.020 -38.542  -2.684  0.00  0.00    +0.000 A 
ATOM     15  C   UNL     1      -1.748 -37.829  -1.737  0.00  0.00    +0.000 A 
ATOM     16  C   UNL     1      -2.469 -36.710  -2.146  0.00  0.00    +0.000 A 
BRANCH  14  17
ATOM     17  N   UNL     1      -0.268 -39.709  -2.268  0.00  0.00    +0.000 N 
ATOM     18  O   UNL     1       0.704 -39.529  -1.522  0.00  0.00    +0.000 OA
ATOM     19  O   UNL     1      -0.643 -40.815  -2.684  0.00  0.00    +0.000 OA
ENDBRANCH  14  17
ENDBRANCH   3  11
BRANCH   2  20
ATOM     20  C   UNL     1      -6.758 -33.872  -3.204  0.00  0.00    +0.000 A 
ATOM     21  C   UNL     1      -8.076 -34.246  -3.488  0.00  0.00    +0.000 A 
ATOM     22  C   UNL     1      -9.162 -33.605  -2.892  0.00  0.00    +0.000 A 
ATOM     23  C   UNL     1      -8.951 -32.572  -1.983  0.00  0.00    +0.000 A 
ATOM     24  C   UNL     1      -7.649 -32.190  -1.675  0.00  0.00    +0.000 A 
ATOM     25  C   UNL     1      -6.570 -32.837  -2.277  0.00  0.00    +0.000 A 
BRANCH  23  26
ATOM     26  O   UNL     1      -9.947 -31.880  -1.343  0.00  0.00    +0.000 OA
BRANCH  26  27
ATOM     27  C   UNL     1      -9.731 -31.656  -0.049  0.00  0.00    +0.000 C 
ATOM     28  C   UNL     1      -9.499 -31.394   1.444  0.00  0.00    +0.000 C 
ENDBRANCH  26  27
ENDBRANCH  23  26
ENDBRANCH   2  20
BRANCH   3  29
ATOM     29  O   UNL     1      -2.369 -33.936  -3.824  0.00  0.00    +0.000 OA
ATOM     30  H   UNL     1      -2.241 -33.655  -4.745  0.00  0.00    +0.000 HD
ENDBRANCH   3  29
TORSDOF 6
ENDMDL
MODEL 2
REMARK VINA RESULT:      -6.5      1.809      2.787
REMARK  Name = 5109870_Ethoxyphenyl.pdbqt.pdb
REMARK  6 active torsions:
REMARK  status: ('A' for Active; 'I' for Inactive)
REMARK    1  A    between atoms: N_2  and  C_22
REMARK    2  A    between atoms: C_3  and  O_11
REMARK    3  A    between atoms: C_3  and  C_13
REMARK    4  A    between atoms: C_16  and  N_19
REMARK    5  A    between atoms: C_25  and  O_28
REMARK    6  A    between atoms: O_28  and  C_29
REMARK                            x       y       z     vdW  Elec       q    Type
REMARK                         _______ _______ _______ _____ _____    ______ ____
ROOT
ATOM      1  N   UNL     1      -3.909 -35.401  -5.093  0.00  0.00    +0.000 N 
ATOM      2  N   UNL     1      -6.167 -35.575  -4.299  0.00  0.00    +0.000 N 
ATOM      3  C   UNL     1      -3.787 -35.381  -3.615  0.00  0.00    +0.000 C 
ATOM      4  C   UNL     1      -5.373 -35.342  -5.405  0.00  0.00    +0.000 C 
ATOM      5  C   UNL     1      -5.185 -35.617  -3.248  0.00  0.00    +0.000 C 
ATOM      6  C   UNL     1      -3.135 -34.430  -5.865  0.00  0.00    +0.000 C 
ATOM      7  C   UNL     1      -5.842 -34.655  -6.563  0.00  0.00    +0.000 C 
ATOM      8  C   UNL     1      -3.026 -33.417  -7.018  0.00  0.00    +0.000 C 
ATOM      9  C   UNL     1      -5.530 -33.671  -7.702  0.00  0.00    +0.000 C 
ATOM     10  C   UNL     1      -4.169 -33.029  -7.951  0.00  0.00    +0.000 C 
ENDROOT
BRANCH   3  11
ATOM     11  C   UNL     1      -2.816 -36.429  -3.123  0.00  0.00    +0.000 A 
ATOM     12  C   UNL     1      -1.937 -37.080  -3.999  0.00  0.00    +0.000 A 
ATOM     13  C   UNL     1      -1.015 -38.013  -3.531  0.00  0.00    +0.000 A 
ATOM     14  C   UNL     1      -0.966 -38.286  -2.168  0.00  0.00    +0.000 A 
ATOM     15  C   UNL     1      -1.814 -37.647  -1.268  0.00  0.00    +0.000 A 
ATOM     16  C   UNL     1      -2.729 -36.717  -1.753  0.00  0.00    +0.000 A 
BRANCH  14  17
ATOM     17  N   UNL     1      -0.011 -39.258  -1.673  0.00  0.00    +0.000 N 
ATOM     18  O   UNL     1      -0.450 -40.214  -1.019  0.00  0.00    +0.000 OA
ATOM     19  O   UNL     1       1.186 -39.073  -1.935  0.00  0.00    +0.000 OA
ENDBRANCH  14  17
ENDBRANCH   3  11
BRANCH   2  20
ATOM     20  C   UNL     1      -7.542 -35.400  -4.074  0.00  0.00    +0.000 A 
ATOM     21  C   UNL     1      -8.044 -34.301  -3.370  0.00  0.00    +0.000 A 
ATOM     22  C   UNL     1      -9.414 -34.124  -3.172  0.00  0.00    +0.000 A 
ATOM     23  C   UNL     1     -10.320 -35.047  -3.687  0.00  0.00    +0.000 A 
ATOM     24  C   UNL     1      -9.844 -36.143  -4.401  0.00  0.00    +0.000 A 
ATOM     25  C   UNL     1      -8.473 -36.310  -4.593  0.00  0.00    +0.000 A 
BRANCH  23  26
ATOM     26  O   UNL     1     -11.682 -34.966  -3.550  0.00  0.00    +0.000 OA
BRANCH  26  27
ATOM     27  C   UNL     1     -12.371 -35.159  -4.672  0.00  0.00    +0.000 C 
ATOM     28  C   UNL     1     -13.169 -35.396  -5.959  0.00  0.00    +0.000 C 
ENDBRANCH  26  27
ENDBRANCH  23  26
ENDBRANCH   2  20
BRANCH   3  29
ATOM     29  O   UNL     1      -3.413 -34.109  -3.102  0.00  0.00    +0.000 OA
ATOM     30  H   UNL     1      -4.204 -33.553  -3.200  0.00  0.00    +0.000 HD
ENDBRANCH   3  29
TORSDOF 6
ENDMDL
MODEL 3
REMARK VINA RESULT:      -6.2      3.534      8.431
REMARK  Name = 5109870_Ethoxyphenyl.pdbqt.pdb
REMARK  6 active torsions:
REMARK  status: ('A' for Active; 'I' for Inactive)
REMARK    1  A    between atoms: N_2  and  C_22
REMARK    2  A    between atoms: C_3  and  O_11
REMARK    3  A    between atoms: C_3  and  C_13
REMARK    4  A    between atoms: C_16  and  N_19
REMARK    5  A    between atoms: C_25  and  O_28
REMARK    6  A    between atoms: O_28  and  C_29
REMARK                            x       y       z     vdW  Elec       q    Type
REMARK                         _______ _______ _______ _____ _____    ______ ____
ROOT
ATOM      1  N   UNL     1      -5.523 -35.696  -4.457  0.00  0.00    +0.000 N 
ATOM      2  N   UNL     1      -4.759 -34.461  -6.367  0.00  0.00    +0.000 N 
ATOM      3  C   UNL     1      -6.378 -34.485  -4.483  0.00  0.00    +0.000 C 
ATOM      4  C   UNL     1      -4.477 -35.508  -5.512  0.00  0.00    +0.000 C 
ATOM      5  C   UNL     1      -5.917 -33.884  -5.737  0.00  0.00    +0.000 C 
ATOM      6  C   UNL     1      -4.955 -36.116  -3.177  0.00  0.00    +0.000 C 
ATOM      7  C   UNL     1      -3.160 -36.024  -5.330  0.00  0.00    +0.000 C 
ATOM      8  C   UNL     1      -3.773 -36.644  -2.345  0.00  0.00    +0.000 C 
ATOM      9  C   UNL     1      -2.121 -36.612  -4.362  0.00  0.00    +0.000 C 
ATOM     10  C   UNL     1      -2.374 -36.916  -2.889  0.00  0.00    +0.000 C 
ENDROOT
BRANCH   3  11
ATOM     11  C   UNL     1      -7.846 -34.839  -4.452  0.00  0.00    +0.000 A 
ATOM     12  C   UNL     1      -8.390 -35.784  -5.333  0.00  0.00    +0.000 A 
ATOM     13  C   UNL     1      -9.736 -36.137  -5.269  0.00  0.00    +0.000 A 
ATOM     14  C   UNL     1     -10.542 -35.544  -4.301  0.00  0.00    +0.000 A 
ATOM     15  C   UNL     1     -10.031 -34.614  -3.401  0.00  0.00    +0.000 A 
ATOM     16  C   UNL     1      -8.684 -34.273  -3.479  0.00  0.00    +0.000 A 
BRANCH  14  17
ATOM     17  N   UNL     1     -11.944 -35.905  -4.229  0.00  0.00    +0.000 N 
ATOM     18  O   UNL     1     -12.740 -35.040  -3.836  0.00  0.00    +0.000 OA
ATOM     19  O   UNL     1     -12.261 -37.054  -4.566  0.00  0.00    +0.000 OA
ENDBRANCH  14  17
ENDBRANCH   3  11
BRANCH   2  20
ATOM     20  C   UNL     1      -3.981 -33.795  -7.328  0.00  0.00    +0.000 A 
ATOM     21  C   UNL     1      -3.927 -32.399  -7.400  0.00  0.00    +0.000 A 
ATOM     22  C   UNL     1      -3.133 -31.747  -8.344  0.00  0.00    +0.000 A 
ATOM     23  C   UNL     1      -2.362 -32.485  -9.239  0.00  0.00    +0.000 A 
ATOM     24  C   UNL     1      -2.391 -33.874  -9.178  0.00  0.00    +0.000 A 
ATOM     25  C   UNL     1      -3.188 -34.517  -8.231  0.00  0.00    +0.000 A 
BRANCH  23  26
ATOM     26  O   UNL     1      -1.550 -31.943 -10.201  0.00  0.00    +0.000 OA
BRANCH  26  27
ATOM     27  C   UNL     1      -0.391 -32.574 -10.378  0.00  0.00    +0.000 C 
ATOM     28  C   UNL     1       0.945 -33.303 -10.564  0.00  0.00    +0.000 C 
ENDBRANCH  26  27
ENDBRANCH  23  26
ENDBRANCH   2  20
BRANCH   3  29
ATOM     29  O   UNL     1      -6.087 -33.573  -3.432  0.00  0.00    +0.000 OA
ATOM     30  H   UNL     1      -6.808 -32.923  -3.454  0.00  0.00    +0.000 HD
ENDBRANCH   3  29
TORSDOF 6
ENDMDL
MODEL 4
REMARK VINA RESULT:      -6.1      2.904      5.743
REMARK  Name = 5109870_Ethoxyphenyl.pdbqt.pdb
REMARK  6 active torsions:
REMARK  status: ('A' for Active; 'I' for Inactive)
REMARK    1  A    between atoms: N_2  and  C_22
REMARK    2  A    between atoms: C_3  and  O_11
REMARK    3  A    between atoms: C_3  and  C_13
REMARK    4  A    between atoms: C_16  and  N_19
REMARK    5  A    between atoms: C_25  and  O_28
REMARK    6  A    between atoms: O_28  and  C_29
REMARK                            x       y       z     vdW  Elec       q    Type
REMARK                         _______ _______ _______ _____ _____    ______ ____
ROOT
ATOM      1  N   UNL     1      -3.077 -35.245  -5.511  0.00  0.00    +0.000 N 
ATOM      2  N   UNL     1      -5.086 -34.176  -4.750  0.00  0.00    +0.000 N 
ATOM      3  C   UNL     1      -3.951 -35.201  -6.708  0.00  0.00    +0.000 C 
ATOM      4  C   UNL     1      -3.903 -34.771  -4.356  0.00  0.00    +0.000 C 
ATOM      5  C   UNL     1      -5.073 -34.430  -6.167  0.00  0.00    +0.000 C 
ATOM      6  C   UNL     1      -2.368 -36.490  -5.216  0.00  0.00    +0.000 C 
ATOM      7  C   UNL     1      -3.708 -35.314  -3.052  0.00  0.00    +0.000 C 
ATOM      8  C   UNL     1      -1.885 -37.550  -4.211  0.00  0.00    +0.000 C 
ATOM      9  C   UNL     1      -3.085 -36.422  -2.189  0.00  0.00    +0.000 C 
ATOM     10  C   UNL     1      -2.200 -37.547  -2.719  0.00  0.00    +0.000 C 
ENDROOT
BRANCH   3  11
ATOM     11  C   UNL     1      -3.252 -34.563  -7.885  0.00  0.00    +0.000 A 
ATOM     12  C   UNL     1      -3.243 -33.173  -8.066  0.00  0.00    +0.000 A 
ATOM     13  C   UNL     1      -2.560 -32.590  -9.130  0.00  0.00    +0.000 A 
ATOM     14  C   UNL     1      -1.866 -33.410 -10.015  0.00  0.00    +0.000 A 
ATOM     15  C   UNL     1      -1.841 -34.792  -9.856  0.00  0.00    +0.000 A 
ATOM     16  C   UNL     1      -2.529 -35.359  -8.787  0.00  0.00    +0.000 A 
BRANCH  14  17
ATOM     17  N   UNL     1      -1.154 -32.811 -11.126  0.00  0.00    +0.000 N 
ATOM     18  O   UNL     1      -0.515 -31.772 -10.905  0.00  0.00    +0.000 OA
ATOM     19  O   UNL     1      -1.226 -33.373 -12.228  0.00  0.00    +0.000 OA
ENDBRANCH  14  17
ENDBRANCH   3  11
BRANCH   2  20
ATOM     20  C   UNL     1      -6.236 -33.804  -4.036  0.00  0.00    +0.000 A 
ATOM     21  C   UNL     1      -6.826 -32.545  -4.184  0.00  0.00    +0.000 A 
ATOM     22  C   UNL     1      -7.982 -32.194  -3.487  0.00  0.00    +0.000 A 
ATOM     23  C   UNL     1      -8.583 -33.107  -2.624  0.00  0.00    +0.000 A 
ATOM     24  C   UNL     1      -8.020 -34.369  -2.468  0.00  0.00    +0.000 A 
ATOM     25  C   UNL     1      -6.864 -34.711  -3.170  0.00  0.00    +0.000 A 
BRANCH  23  26
ATOM     26  O   UNL     1      -9.718 -32.861  -1.895  0.00  0.00    +0.000 OA
BRANCH  26  27
ATOM     27  C   UNL     1      -9.580 -31.952  -0.932  0.00  0.00    +0.000 C 
ATOM     28  C   UNL     1      -9.434 -30.912   0.185  0.00  0.00    +0.000 C 
ENDBRANCH  26  27
ENDBRANCH  23  26
ENDBRANCH   2  20
BRANCH   3  29
ATOM     29  O   UNL     1      -4.446 -36.480  -7.085  0.00  0.00    +0.000 OA
ATOM     30  H   UNL     1      -3.921 -36.736  -7.861  0.00  0.00    +0.000 HD
ENDBRANCH   3  29
TORSDOF 6
ENDMDL
MODEL 5
REMARK VINA RESULT:      -5.9     18.946     21.723
REMARK  Name = 5109870_Ethoxyphenyl.pdbqt.pdb
REMARK  6 active torsions:
REMARK  status: ('A' for Active; 'I' for Inactive)
REMARK    1  A    between atoms: N_2  and  C_22
REMARK    2  A    between atoms: C_3  and  O_11
REMARK    3  A    between atoms: C_3  and  C_13
REMARK    4  A    between atoms: C_16  and  N_19
REMARK    5  A    between atoms: C_25  and  O_28
REMARK    6  A    between atoms: O_28  and  C_29
REMARK                            x       y       z     vdW  Elec       q    Type
REMARK                         _______ _______ _______ _____ _____    ______ ____
ROOT
ATOM      1  N   UNL     1     -11.381 -17.943   2.129  0.00  0.00    +0.000 N 
ATOM      2  N   UNL     1     -10.135 -15.896   2.000  0.00  0.00    +0.000 N 
ATOM      3  C   UNL     1     -12.365 -16.937   1.662  0.00  0.00    +0.000 C 
ATOM      4  C   UNL     1     -10.129 -17.195   2.469  0.00  0.00    +0.000 C 
ATOM      5  C   UNL     1     -11.480 -15.781   1.501  0.00  0.00    +0.000 C 
ATOM      6  C   UNL     1     -11.784 -18.867   3.188  0.00  0.00    +0.000 C 
ATOM      7  C   UNL     1      -9.295 -17.625   3.542  0.00  0.00    +0.000 C 
ATOM      8  C   UNL     1     -11.478 -19.624   4.492  0.00  0.00    +0.000 C 
ATOM      9  C   UNL     1      -9.139 -18.511   4.789  0.00  0.00    +0.000 C 
ATOM     10  C   UNL     1     -10.191 -19.491   5.299  0.00  0.00    +0.000 C 
ENDROOT
BRANCH   3  11
ATOM     11  C   UNL     1     -13.061 -17.384   0.398  0.00  0.00    +0.000 A 
ATOM     12  C   UNL     1     -12.567 -18.447  -0.373  0.00  0.00    +0.000 A 
ATOM     13  C   UNL     1     -13.238 -18.881  -1.513  0.00  0.00    +0.000 A 
ATOM     14  C   UNL     1     -14.425 -18.251  -1.877  0.00  0.00    +0.000 A 
ATOM     15  C   UNL     1     -14.951 -17.204  -1.127  0.00  0.00    +0.000 A 
ATOM     16  C   UNL     1     -14.268 -16.783   0.010  0.00  0.00    +0.000 A 
BRANCH  14  17
ATOM     17  N   UNL     1     -15.128 -18.697  -3.064  0.00  0.00    +0.000 N 
ATOM     18  O   UNL     1     -14.898 -19.844  -3.471  0.00  0.00    +0.000 OA
ATOM     19  O   UNL     1     -15.918 -17.904  -3.597  0.00  0.00    +0.000 OA
ENDBRANCH  14  17
ENDBRANCH   3  11
BRANCH   2  20
ATOM     20  C   UNL     1      -9.307 -14.795   2.268  0.00  0.00    +0.000 A 
ATOM     21  C   UNL     1      -8.301 -14.391   1.384  0.00  0.00    +0.000 A 
ATOM     22  C   UNL     1      -7.498 -13.281   1.649  0.00  0.00    +0.000 A 
ATOM     23  C   UNL     1      -7.692 -12.539   2.811  0.00  0.00    +0.000 A 
ATOM     24  C   UNL     1      -8.695 -12.914   3.700  0.00  0.00    +0.000 A 
ATOM     25  C   UNL     1      -9.492 -14.026   3.426  0.00  0.00    +0.000 A 
BRANCH  23  26
ATOM     26  O   UNL     1      -6.961 -11.434   3.164  0.00  0.00    +0.000 OA
BRANCH  26  27
ATOM     27  C   UNL     1      -6.649 -10.623   2.155  0.00  0.00    +0.000 C 
ATOM     28  C   UNL     1      -6.307  -9.685   0.992  0.00  0.00    +0.000 C 
ENDBRANCH  26  27
ENDBRANCH  23  26
ENDBRANCH   2  20
BRANCH   3  29
ATOM     29  O   UNL     1     -13.336 -16.606   2.647  0.00  0.00    +0.000 OA
ATOM     30  H   UNL     1     -12.873 -16.027   3.274  0.00  0.00    +0.000 HD
ENDBRANCH   3  29
TORSDOF 6
ENDMDL
MODEL 6
REMARK VINA RESULT:      -5.7     12.346     15.782
REMARK  Name = 5109870_Ethoxyphenyl.pdbqt.pdb
REMARK  6 active torsions:
REMARK  status: ('A' for Active; 'I' for Inactive)
REMARK    1  A    between atoms: N_2  and  C_22
REMARK    2  A    between atoms: C_3  and  O_11
REMARK    3  A    between atoms: C_3  and  C_13
REMARK    4  A    between atoms: C_16  and  N_19
REMARK    5  A    between atoms: C_25  and  O_28
REMARK    6  A    between atoms: O_28  and  C_29
REMARK                            x       y       z     vdW  Elec       q    Type
REMARK                         _______ _______ _______ _____ _____    ______ ____
ROOT
ATOM      1  N   UNL     1      -6.827 -28.657 -16.759  0.00  0.00    +0.000 N 
ATOM      2  N   UNL     1      -8.867 -27.606 -17.461  0.00  0.00    +0.000 N 
ATOM      3  C   UNL     1      -7.673 -28.636 -15.542  0.00  0.00    +0.000 C 
ATOM      4  C   UNL     1      -7.555 -27.867 -17.803  0.00  0.00    +0.000 C 
ATOM      5  C   UNL     1      -8.912 -28.100 -16.110  0.00  0.00    +0.000 C 
ATOM      6  C   UNL     1      -5.425 -28.261 -16.637  0.00  0.00    +0.000 C 
ATOM      7  C   UNL     1      -6.836 -27.090 -18.759  0.00  0.00    +0.000 C 
ATOM      8  C   UNL     1      -4.196 -27.504 -17.169  0.00  0.00    +0.000 C 
ATOM      9  C   UNL     1      -5.496 -26.462 -19.175  0.00  0.00    +0.000 C 
ATOM     10  C   UNL     1      -4.183 -26.626 -18.416  0.00  0.00    +0.000 C 
ENDROOT
BRANCH   3  11
ATOM     11  C   UNL     1      -7.799 -30.010 -14.928  0.00  0.00    +0.000 A 
ATOM     12  C   UNL     1      -7.254 -30.302 -13.669  0.00  0.00    +0.000 A 
ATOM     13  C   UNL     1      -7.412 -31.559 -13.091  0.00  0.00    +0.000 A 
ATOM     14  C   UNL     1      -8.136 -32.530 -13.777  0.00  0.00    +0.000 A 
ATOM     15  C   UNL     1      -8.704 -32.269 -15.020  0.00  0.00    +0.000 A 
ATOM     16  C   UNL     1      -8.537 -31.007 -15.584  0.00  0.00    +0.000 A 
BRANCH  14  17
ATOM     17  N   UNL     1      -8.303 -33.841 -13.182  0.00  0.00    +0.000 N 
ATOM     18  O   UNL     1      -7.558 -34.143 -12.239  0.00  0.00    +0.000 OA
ATOM     19  O   UNL     1      -9.181 -34.579 -13.651  0.00  0.00    +0.000 OA
ENDBRANCH  14  17
ENDBRANCH   3  11
BRANCH   2  20
ATOM     20  C   UNL     1      -9.826 -26.737 -18.005  0.00  0.00    +0.000 A 
ATOM     21  C   UNL     1      -9.700 -25.346 -17.920  0.00  0.00    +0.000 A 
ATOM     22  C   UNL     1     -10.647 -24.491 -18.484  0.00  0.00    +0.000 A 
ATOM     23  C   UNL     1     -11.747 -25.014 -19.160  0.00  0.00    +0.000 A 
ATOM     24  C   UNL     1     -11.888 -26.394 -19.267  0.00  0.00    +0.000 A 
ATOM     25  C   UNL     1     -10.935 -27.240 -18.699  0.00  0.00    +0.000 A 
BRANCH  23  26
ATOM     26  O   UNL     1     -12.732 -24.263 -19.748  0.00  0.00    +0.000 OA
BRANCH  26  27
ATOM     27  C   UNL     1     -13.803 -24.049 -18.989  0.00  0.00    +0.000 C 
ATOM     28  C   UNL     1     -15.037 -23.785 -18.117  0.00  0.00    +0.000 C 
ENDBRANCH  26  27
ENDBRANCH  23  26
ENDBRANCH   2  20
BRANCH   3  29
ATOM     29  O   UNL     1      -7.214 -27.717 -14.559  0.00  0.00    +0.000 OA
ATOM     30  H   UNL     1      -7.437 -26.838 -14.909  0.00  0.00    +0.000 HD
ENDBRANCH   3  29
TORSDOF 6
ENDMDL
MODEL 7
REMARK VINA RESULT:      -5.7      2.616      5.977
REMARK  Name = 5109870_Ethoxyphenyl.pdbqt.pdb
REMARK  6 active torsions:
REMARK  status: ('A' for Active; 'I' for Inactive)
REMARK    1  A    between atoms: N_2  and  C_22
REMARK    2  A    between atoms: C_3  and  O_11
REMARK    3  A    between atoms: C_3  and  C_13
REMARK    4  A    between atoms: C_16  and  N_19
REMARK    5  A    between atoms: C_25  and  O_28
REMARK    6  A    between atoms: O_28  and  C_29
REMARK                            x       y       z     vdW  Elec       q    Type
REMARK                         _______ _______ _______ _____ _____    ______ ____
ROOT
ATOM      1  N   UNL     1      -6.030 -35.206  -2.111  0.00  0.00    +0.000 N 
ATOM      2  N   UNL     1      -5.073 -34.668  -4.245  0.00  0.00    +0.000 N 
ATOM      3  C   UNL     1      -5.424 -36.476  -2.578  0.00  0.00    +0.000 C 
ATOM      4  C   UNL     1      -5.922 -34.235  -3.246  0.00  0.00    +0.000 C 
ATOM      5  C   UNL     1      -4.773 -36.005  -3.802  0.00  0.00    +0.000 C 
ATOM      6  C   UNL     1      -7.376 -35.249  -1.540  0.00  0.00    +0.000 C 
ATOM      7  C   UNL     1      -6.937 -33.257  -3.464  0.00  0.00    +0.000 C 
ATOM      8  C   UNL     1      -8.790 -34.661  -1.400  0.00  0.00    +0.000 C 
ATOM      9  C   UNL     1      -8.361 -32.773  -3.147  0.00  0.00    +0.000 C 
ATOM     10  C   UNL     1      -9.308 -33.441  -2.155  0.00  0.00    +0.000 C 
ENDROOT
BRANCH   3  11
ATOM     11  C   UNL     1      -4.487 -37.058  -1.545  0.00  0.00    +0.000 A 
ATOM     12  C   UNL     1      -4.952 -37.907  -0.531  0.00  0.00    +0.000 A 
ATOM     13  C   UNL     1      -4.076 -38.474   0.391  0.00  0.00    +0.000 A 
ATOM     14  C   UNL     1      -2.716 -38.196   0.286  0.00  0.00    +0.000 A 
ATOM     15  C   UNL     1      -2.219 -37.371  -0.717  0.00  0.00    +0.000 A 
ATOM     16  C   UNL     1      -3.108 -36.812  -1.631  0.00  0.00    +0.000 A 
BRANCH  14  17
ATOM     17  N   UNL     1      -1.798 -38.781   1.243  0.00  0.00    +0.000 N 
ATOM     18  O   UNL     1      -2.284 -39.350   2.231  0.00  0.00    +0.000 OA
ATOM     19  O   UNL     1      -0.584 -38.678   1.015  0.00  0.00    +0.000 OA
ENDBRANCH  14  17
ENDBRANCH   3  11
BRANCH   2  20
ATOM     20  C   UNL     1      -4.850 -34.213  -5.554  0.00  0.00    +0.000 A 
ATOM     21  C   UNL     1      -5.872 -34.165  -6.507  0.00  0.00    +0.000 A 
ATOM     22  C   UNL     1      -5.645 -33.689  -7.798  0.00  0.00    +0.000 A 
ATOM     23  C   UNL     1      -4.379 -33.237  -8.165  0.00  0.00    +0.000 A 
ATOM     24  C   UNL     1      -3.349 -33.265  -7.230  0.00  0.00    +0.000 A 
ATOM     25  C   UNL     1      -3.587 -33.743  -5.941  0.00  0.00    +0.000 A 
BRANCH  23  26
ATOM     26  O   UNL     1      -4.052 -32.751  -9.404  0.00  0.00    +0.000 OA
BRANCH  26  27
ATOM     27  C   UNL     1      -2.747 -32.603  -9.622  0.00  0.00    +0.000 C 
ATOM     28  C   UNL     1      -1.246 -32.416  -9.872  0.00  0.00    +0.000 C 
ENDBRANCH  26  27
ENDBRANCH  23  26
ENDBRANCH   2  20
BRANCH   3  29
ATOM     29  O   UNL     1      -6.389 -37.453  -2.948  0.00  0.00    +0.000 OA
ATOM     30  H   UNL     1      -6.477 -38.029  -2.171  0.00  0.00    +0.000 HD
ENDBRANCH   3  29
TORSDOF 6
ENDMDL
MODEL 8
REMARK VINA RESULT:      -5.6     19.621     21.176
REMARK  Name = 5109870_Ethoxyphenyl.pdbqt.pdb
REMARK  6 active torsions:
REMARK  status: ('A' for Active; 'I' for Inactive)
REMARK    1  A    between atoms: N_2  and  C_22
REMARK    2  A    between atoms: C_3  and  O_11
REMARK    3  A    between atoms: C_3  and  C_13
REMARK    4  A    between atoms: C_16  and  N_19
REMARK    5  A    between atoms: C_25  and  O_28
REMARK    6  A    between atoms: O_28  and  C_29
REMARK                            x       y       z     vdW  Elec       q    Type
REMARK                         _______ _______ _______ _____ _____    ______ ____
ROOT
ATOM      1  N   UNL     1      -2.748 -19.023 -15.416  0.00  0.00    +0.000 N 
ATOM      2  N   UNL     1      -3.911 -16.976 -14.949  0.00  0.00    +0.000 N 
ATOM      3  C   UNL     1      -1.691 -17.984 -15.425  0.00  0.00    +0.000 C 
ATOM      4  C   UNL     1      -4.057 -18.305 -15.298  0.00  0.00    +0.000 C 
ATOM      5  C   UNL     1      -2.481 -16.823 -15.010  0.00  0.00    +0.000 C 
ATOM      6  C   UNL     1      -2.753 -20.017 -16.489  0.00  0.00    +0.000 C 
ATOM      7  C   UNL     1      -5.224 -18.811 -15.942  0.00  0.00    +0.000 C 
ATOM      8  C   UNL     1      -3.510 -20.863 -17.527  0.00  0.00    +0.000 C 
ATOM      9  C   UNL     1      -5.817 -19.781 -16.976  0.00  0.00    +0.000 C 
ATOM     10  C   UNL     1      -5.011 -20.791 -17.787  0.00  0.00    +0.000 C 
ENDROOT
BRANCH   3  11
ATOM     11  C   UNL     1      -0.553 -18.341 -14.498  0.00  0.00    +0.000 A 
ATOM     12  C   UNL     1      -0.277 -17.582 -13.351  0.00  0.00    +0.000 A 
ATOM     13  C   UNL     1       0.746 -17.943 -12.479  0.00  0.00    +0.000 A 
ATOM     14  C   UNL     1       1.493 -19.085 -12.752  0.00  0.00    +0.000 A 
ATOM     15  C   UNL     1       1.236 -19.870 -13.872  0.00  0.00    +0.000 A 
ATOM     16  C   UNL     1       0.210 -19.495 -14.734  0.00  0.00    +0.000 A 
BRANCH  14  17
ATOM     17  N   UNL     1       2.561 -19.466 -11.849  0.00  0.00    +0.000 N 
ATOM     18  O   UNL     1       2.706 -18.796 -10.816  0.00  0.00    +0.000 OA
ATOM     19  O   UNL     1       3.263 -20.437 -12.164  0.00  0.00    +0.000 OA
ENDBRANCH  14  17
ENDBRANCH   3  11
BRANCH   2  20
ATOM     20  C   UNL     1      -4.811 -15.899 -14.948  0.00  0.00    +0.000 A 
ATOM     21  C   UNL     1      -4.476 -14.653 -14.408  0.00  0.00    +0.000 A 
ATOM     22  C   UNL     1      -5.369 -13.582 -14.433  0.00  0.00    +0.000 A 
ATOM     23  C   UNL     1      -6.627 -13.734 -15.012  0.00  0.00    +0.000 A 
ATOM     24  C   UNL     1      -6.979 -14.961 -15.565  0.00  0.00    +0.000 A 
ATOM     25  C   UNL     1      -6.077 -16.026 -15.535  0.00  0.00    +0.000 A 
BRANCH  23  26
ATOM     26  O   UNL     1      -7.576 -12.747 -15.089  0.00  0.00    +0.000 OA
BRANCH  26  27
ATOM     27  C   UNL     1      -8.819 -13.144 -14.830  0.00  0.00    +0.000 C 
ATOM     28  C   UNL     1     -10.250 -13.599 -14.516  0.00  0.00    +0.000 C 
ENDBRANCH  26  27
ENDBRANCH  23  26
ENDBRANCH   2  20
BRANCH   3  29
ATOM     29  O   UNL     1      -1.179 -17.719 -16.725  0.00  0.00    +0.000 OA
ATOM     30  H   UNL     1      -0.268 -17.413 -16.580  0.00  0.00    +0.000 HD
ENDBRANCH   3  29
TORSDOF 6
ENDMDL
MODEL 9
REMARK VINA RESULT:      -5.6     19.779     21.648
REMARK  Name = 5109870_Ethoxyphenyl.pdbqt.pdb
REMARK  6 active torsions:
REMARK  status: ('A' for Active; 'I' for Inactive)
REMARK    1  A    between atoms: N_2  and  C_22
REMARK    2  A    between atoms: C_3  and  O_11
REMARK    3  A    between atoms: C_3  and  C_13
REMARK    4  A    between atoms: C_16  and  N_19
REMARK    5  A    between atoms: C_25  and  O_28
REMARK    6  A    between atoms: O_28  and  C_29
REMARK                            x       y       z     vdW  Elec       q    Type
REMARK                         _______ _______ _______ _____ _____    ______ ____
ROOT
ATOM      1  N   UNL     1     -13.627 -18.195   1.351  0.00  0.00    +0.000 N 
ATOM      2  N   UNL     1     -11.660 -16.849   1.072  0.00  0.00    +0.000 N 
ATOM      3  C   UNL     1     -14.097 -16.996   0.618  0.00  0.00    +0.000 C 
ATOM      4  C   UNL     1     -12.201 -17.937   1.729  0.00  0.00    +0.000 C 
ATOM      5  C   UNL     1     -12.816 -16.322   0.396  0.00  0.00    +0.000 C 
ATOM      6  C   UNL     1     -14.424 -18.675   2.479  0.00  0.00    +0.000 C 
ATOM      7  C   UNL     1     -11.670 -18.444   2.951  0.00  0.00    +0.000 C 
ATOM      8  C   UNL     1     -14.521 -19.231   3.910  0.00  0.00    +0.000 C 
ATOM      9  C   UNL     1     -11.951 -19.069   4.327  0.00  0.00    +0.000 C 
ATOM     10  C   UNL     1     -13.335 -19.454   4.843  0.00  0.00    +0.000 C 
ENDROOT
BRANCH   3  11
ATOM     11  C   UNL     1     -14.843 -17.371  -0.642  0.00  0.00    +0.000 A 
ATOM     12  C   UNL     1     -16.047 -16.745  -0.993  0.00  0.00    +0.000 A 
ATOM     13  C   UNL     1     -16.706 -17.066  -2.178  0.00  0.00    +0.000 A 
ATOM     14  C   UNL     1     -16.143 -18.016  -3.025  0.00  0.00    +0.000 A 
ATOM     15  C   UNL     1     -14.941 -18.645  -2.715  0.00  0.00    +0.000 A 
ATOM     16  C   UNL     1     -14.296 -18.312  -1.527  0.00  0.00    +0.000 A 
BRANCH  14  17
ATOM     17  N   UNL     1     -16.824 -18.356  -4.259  0.00  0.00    +0.000 N 
ATOM     18  O   UNL     1     -17.060 -17.438  -5.057  0.00  0.00    +0.000 OA
ATOM     19  O   UNL     1     -17.127 -19.544  -4.441  0.00  0.00    +0.000 OA
ENDBRANCH  14  17
ENDBRANCH   3  11
BRANCH   2  20
ATOM     20  C   UNL     1     -10.475 -16.122   1.272  0.00  0.00    +0.000 A 
ATOM     21  C   UNL     1      -9.256 -16.751   1.544  0.00  0.00    +0.000 A 
ATOM     22  C   UNL     1      -8.081 -16.021   1.719  0.00  0.00    +0.000 A 
ATOM     23  C   UNL     1      -8.098 -14.632   1.616  0.00  0.00    +0.000 A 
ATOM     24  C   UNL     1      -9.297 -13.985   1.335  0.00  0.00    +0.000 A 
ATOM     25  C   UNL     1     -10.467 -14.725   1.162  0.00  0.00    +0.000 A 
BRANCH  23  26
ATOM     26  O   UNL     1      -7.001 -13.824   1.769  0.00  0.00    +0.000 OA
BRANCH  26  27
ATOM     27  C   UNL     1      -6.527 -13.303   0.639  0.00  0.00    +0.000 C 
ATOM     28  C   UNL     1      -5.965 -12.702  -0.655  0.00  0.00    +0.000 C 
ENDBRANCH  26  27
ENDBRANCH  23  26
ENDBRANCH   2  20
BRANCH   3  29
ATOM     29  O   UNL     1     -14.907 -16.138   1.411  0.00  0.00    +0.000 OA
ATOM     30  H   UNL     1     -14.381 -15.329   1.527  0.00  0.00    +0.000 HD
ENDBRANCH   3  29
TORSDOF 6
ENDMDL
