MODEL 1
REMARK VINA RESULT:      -5.6      0.000      0.000
REMARK  Name = 5280445_Luteolin.pdbqt.pdb
REMARK  5 active torsions:
REMARK  status: ('A' for Active; 'I' for Inactive)
REMARK    1  A    between atoms: C_5  and  C_12
REMARK    2  A    between atoms: C_8  and  O_22
REMARK    3  A    between atoms: C_10  and  O_24
REMARK    4  A    between atoms: C_15  and  O_18
REMARK    5  A    between atoms: C_17  and  O_20
REMARK                            x       y       z     vdW  Elec       q    Type
REMARK                         _______ _______ _______ _____ _____    ______ ____
ROOT
ATOM      1  O   UNL     1      -2.888 -35.140  -5.119  0.00  0.00    +0.000 OA
ATOM      2  O   UNL     1      -6.375 -36.896  -6.413  0.00  0.00    +0.000 OA
ATOM      3  C   UNL     1      -4.956 -34.961  -6.492  0.00  0.00    +0.000 A 
ATOM      4  C   UNL     1      -3.735 -34.447  -5.988  0.00  0.00    +0.000 A 
ATOM      5  C   UNL     1      -3.249 -36.428  -4.705  0.00  0.00    +0.000 A 
ATOM      6  C   UNL     1      -5.361 -36.316  -6.071  0.00  0.00    +0.000 A 
ATOM      7  C   UNL     1      -4.370 -36.835  -5.199  0.00  0.00    +0.000 A 
ATOM      8  C   UNL     1      -5.744 -34.203  -7.357  0.00  0.00    +0.000 A 
ATOM      9  C   UNL     1      -3.320 -33.174  -6.363  0.00  0.00    +0.000 A 
ATOM     10  C   UNL     1      -4.118 -32.428  -7.228  0.00  0.00    +0.000 A 
ATOM     11  C   UNL     1      -5.322 -32.929  -7.726  0.00  0.00    +0.000 A 
ENDROOT
BRANCH   5  12
ATOM     12  C   UNL     1      -2.363 -37.148  -3.799  0.00  0.00    +0.000 A 
ATOM     13  C   UNL     1      -2.550 -37.069  -2.416  0.00  0.00    +0.000 A 
ATOM     14  C   UNL     1      -1.313 -37.930  -4.297  0.00  0.00    +0.000 A 
ATOM     15  C   UNL     1      -1.699 -37.758  -1.562  0.00  0.00    +0.000 A 
ATOM     16  C   UNL     1      -0.458 -38.623  -3.440  0.00  0.00    +0.000 A 
ATOM     17  C   UNL     1      -0.661 -38.531  -2.069  0.00  0.00    +0.000 A 
BRANCH  15  18
ATOM     18  O   UNL     1      -1.893 -37.673  -0.213  0.00  0.00    +0.000 OA
ATOM     19  H   UNL     1      -1.805 -36.721  -0.002  0.00  0.00    +0.000 HD
ENDBRANCH  15  18
BRANCH  17  20
ATOM     20  O   UNL     1       0.149 -39.191  -1.185  0.00  0.00    +0.000 OA
ATOM     21  H   UNL     1      -0.335 -39.271  -0.343  0.00  0.00    +0.000 HD
ENDBRANCH  17  20
ENDBRANCH   5  12
BRANCH   8  22
ATOM     22  O   UNL     1      -6.930 -34.643  -7.875  0.00  0.00    +0.000 OA
ATOM     23  H   UNL     1      -7.630 -34.583  -7.189  0.00  0.00    +0.000 HD
ENDBRANCH   8  22
BRANCH  10  24
ATOM     24  O   UNL     1      -3.692 -31.179  -7.582  0.00  0.00    +0.000 OA
ATOM     25  H   UNL     1      -3.685 -31.124  -8.554  0.00  0.00    +0.000 HD
ENDBRANCH  10  24
TORSDOF 5
ENDMDL
MODEL 2
REMARK VINA RESULT:      -5.3     20.383     22.341
REMARK  Name = 5280445_Luteolin.pdbqt.pdb
REMARK  5 active torsions:
REMARK  status: ('A' for Active; 'I' for Inactive)
REMARK    1  A    between atoms: C_5  and  C_12
REMARK    2  A    between atoms: C_8  and  O_22
REMARK    3  A    between atoms: C_10  and  O_24
REMARK    4  A    between atoms: C_15  and  O_18
REMARK    5  A    between atoms: C_17  and  O_20
REMARK                            x       y       z     vdW  Elec       q    Type
REMARK                         _______ _______ _______ _____ _____    ______ ____
ROOT
ATOM      1  O   UNL     1      -4.546 -16.809 -14.918  0.00  0.00    +0.000 OA
ATOM      2  O   UNL     1      -3.616 -19.958 -17.395  0.00  0.00    +0.000 OA
ATOM      3  C   UNL     1      -2.836 -18.433 -15.712  0.00  0.00    +0.000 A 
ATOM      4  C   UNL     1      -3.258 -17.350 -14.901  0.00  0.00    +0.000 A 
ATOM      5  C   UNL     1      -5.499 -17.356 -15.786  0.00  0.00    +0.000 A 
ATOM      6  C   UNL     1      -3.820 -19.028 -16.636  0.00  0.00    +0.000 A 
ATOM      7  C   UNL     1      -5.051 -18.337 -16.495  0.00  0.00    +0.000 A 
ATOM      8  C   UNL     1      -1.530 -18.914 -15.633  0.00  0.00    +0.000 A 
ATOM      9  C   UNL     1      -2.358 -16.763 -14.018  0.00  0.00    +0.000 A 
ATOM     10  C   UNL     1      -1.056 -17.255 -13.950  0.00  0.00    +0.000 A 
ATOM     11  C   UNL     1      -0.636 -18.321 -14.747  0.00  0.00    +0.000 A 
ENDROOT
BRANCH   5  12
ATOM     12  C   UNL     1      -6.841 -16.789 -15.801  0.00  0.00    +0.000 A 
ATOM     13  C   UNL     1      -7.947 -17.598 -16.079  0.00  0.00    +0.000 A 
ATOM     14  C   UNL     1      -7.047 -15.428 -15.537  0.00  0.00    +0.000 A 
ATOM     15  C   UNL     1      -9.223 -17.047 -16.092  0.00  0.00    +0.000 A 
ATOM     16  C   UNL     1      -8.328 -14.875 -15.549  0.00  0.00    +0.000 A 
ATOM     17  C   UNL     1      -9.413 -15.696 -15.828  0.00  0.00    +0.000 A 
BRANCH  15  18
ATOM     18  O   UNL     1     -10.294 -17.849 -16.365  0.00  0.00    +0.000 OA
ATOM     19  H   UNL     1      -9.921 -18.624 -16.831  0.00  0.00    +0.000 HD
ENDBRANCH  15  18
BRANCH  17  20
ATOM     20  O   UNL     1     -10.689 -15.202 -15.852  0.00  0.00    +0.000 OA
ATOM     21  H   UNL     1     -10.942 -15.084 -16.785  0.00  0.00    +0.000 HD
ENDBRANCH  17  20
ENDBRANCH   5  12
BRANCH   8  22
ATOM     22  O   UNL     1      -1.065 -19.954 -16.389  0.00  0.00    +0.000 OA
ATOM     23  H   UNL     1      -0.344 -19.637 -16.976  0.00  0.00    +0.000 HD
ENDBRANCH   8  22
BRANCH  10  24
ATOM     24  O   UNL     1      -0.189 -16.664 -13.076  0.00  0.00    +0.000 OA
ATOM     25  H   UNL     1       0.307 -15.977 -13.556  0.00  0.00    +0.000 HD
ENDBRANCH  10  24
TORSDOF 5
ENDMDL
MODEL 3
REMARK VINA RESULT:      -5.3      2.713      8.220
REMARK  Name = 5280445_Luteolin.pdbqt.pdb
REMARK  5 active torsions:
REMARK  status: ('A' for Active; 'I' for Inactive)
REMARK    1  A    between atoms: C_5  and  C_12
REMARK    2  A    between atoms: C_8  and  O_22
REMARK    3  A    between atoms: C_10  and  O_24
REMARK    4  A    between atoms: C_15  and  O_18
REMARK    5  A    between atoms: C_17  and  O_20
REMARK                            x       y       z     vdW  Elec       q    Type
REMARK                         _______ _______ _______ _____ _____    ______ ____
ROOT
ATOM      1  O   UNL     1      -3.803 -37.339  -0.569  0.00  0.00    +0.000 OA
ATOM      2  O   UNL     1      -0.028 -38.882  -1.101  0.00  0.00    +0.000 OA
ATOM      3  C   UNL     1      -1.994 -38.825   0.276  0.00  0.00    +0.000 A 
ATOM      4  C   UNL     1      -3.280 -38.237   0.366  0.00  0.00    +0.000 A 
ATOM      5  C   UNL     1      -3.022 -36.982  -1.675  0.00  0.00    +0.000 A 
ATOM      6  C   UNL     1      -1.150 -38.466  -0.880  0.00  0.00    +0.000 A 
ATOM      7  C   UNL     1      -1.864 -37.552  -1.697  0.00  0.00    +0.000 A 
ATOM      8  C   UNL     1      -1.549 -39.714   1.253  0.00  0.00    +0.000 A 
ATOM      9  C   UNL     1      -4.105 -38.552   1.441  0.00  0.00    +0.000 A 
ATOM     10  C   UNL     1      -3.645 -39.441   2.410  0.00  0.00    +0.000 A 
ATOM     11  C   UNL     1      -2.379 -40.023   2.326  0.00  0.00    +0.000 A 
ENDROOT
BRANCH   5  12
ATOM     12  C   UNL     1      -3.570 -36.046  -2.648  0.00  0.00    +0.000 A 
ATOM     13  C   UNL     1      -2.719 -35.285  -3.455  0.00  0.00    +0.000 A 
ATOM     14  C   UNL     1      -4.956 -35.894  -2.793  0.00  0.00    +0.000 A 
ATOM     15  C   UNL     1      -3.252 -34.395  -4.379  0.00  0.00    +0.000 A 
ATOM     16  C   UNL     1      -5.492 -35.001  -3.721  0.00  0.00    +0.000 A 
ATOM     17  C   UNL     1      -4.629 -34.254  -4.512  0.00  0.00    +0.000 A 
BRANCH  15  18
ATOM     18  O   UNL     1      -2.410 -33.658  -5.160  0.00  0.00    +0.000 OA
ATOM     19  H   UNL     1      -2.371 -32.778  -4.735  0.00  0.00    +0.000 HD
ENDBRANCH  15  18
BRANCH  17  20
ATOM     20  O   UNL     1      -5.104 -33.364  -5.437  0.00  0.00    +0.000 OA
ATOM     21  H   UNL     1      -5.096 -33.808  -6.305  0.00  0.00    +0.000 HD
ENDBRANCH  17  20
ENDBRANCH   5  12
BRANCH   8  22
ATOM     22  O   UNL     1      -0.319 -40.312   1.221  0.00  0.00    +0.000 OA
ATOM     23  H   UNL     1      -0.424 -41.268   1.023  0.00  0.00    +0.000 HD
ENDBRANCH   8  22
BRANCH  10  24
ATOM     24  O   UNL     1      -4.471 -39.735   3.457  0.00  0.00    +0.000 OA
ATOM     25  H   UNL     1      -4.545 -40.704   3.524  0.00  0.00    +0.000 HD
ENDBRANCH  10  24
TORSDOF 5
ENDMDL
MODEL 4
REMARK VINA RESULT:      -5.3     19.783     21.276
REMARK  Name = 5280445_Luteolin.pdbqt.pdb
REMARK  5 active torsions:
REMARK  status: ('A' for Active; 'I' for Inactive)
REMARK    1  A    between atoms: C_5  and  C_12
REMARK    2  A    between atoms: C_8  and  O_22
REMARK    3  A    between atoms: C_10  and  O_24
REMARK    4  A    between atoms: C_15  and  O_18
REMARK    5  A    between atoms: C_17  and  O_20
REMARK                            x       y       z     vdW  Elec       q    Type
REMARK                         _______ _______ _______ _____ _____    ______ ____
ROOT
ATOM      1  O   UNL     1      -2.307 -18.150 -14.987  0.00  0.00    +0.000 OA
ATOM      2  O   UNL     1      -5.054 -15.109 -14.634  0.00  0.00    +0.000 OA
ATOM      3  C   UNL     1      -4.641 -17.363 -15.349  0.00  0.00    +0.000 A 
ATOM      4  C   UNL     1      -3.620 -18.343 -15.426  0.00  0.00    +0.000 A 
ATOM      5  C   UNL     1      -1.955 -16.914 -14.433  0.00  0.00    +0.000 A 
ATOM      6  C   UNL     1      -4.296 -16.051 -14.769  0.00  0.00    +0.000 A 
ATOM      7  C   UNL     1      -2.929 -16.067 -14.392  0.00  0.00    +0.000 A 
ATOM      8  C   UNL     1      -5.928 -17.639 -15.810  0.00  0.00    +0.000 A 
ATOM      9  C   UNL     1      -3.908 -19.592 -15.966  0.00  0.00    +0.000 A 
ATOM     10  C   UNL     1      -5.198 -19.853 -16.422  0.00  0.00    +0.000 A 
ATOM     11  C   UNL     1      -6.207 -18.891 -16.350  0.00  0.00    +0.000 A 
ENDROOT
BRANCH   5  12
ATOM     12  C   UNL     1      -0.585 -16.715 -13.976  0.00  0.00    +0.000 A 
ATOM     13  C   UNL     1      -0.093 -17.435 -12.883  0.00  0.00    +0.000 A 
ATOM     14  C   UNL     1       0.260 -15.802 -14.622  0.00  0.00    +0.000 A 
ATOM     15  C   UNL     1       1.214 -17.238 -12.456  0.00  0.00    +0.000 A 
ATOM     16  C   UNL     1       1.572 -15.604 -14.192  0.00  0.00    +0.000 A 
ATOM     17  C   UNL     1       2.042 -16.329 -13.105  0.00  0.00    +0.000 A 
BRANCH  15  18
ATOM     18  O   UNL     1       1.683 -17.948 -11.388  0.00  0.00    +0.000 OA
ATOM     19  H   UNL     1       1.703 -17.310 -10.646  0.00  0.00    +0.000 HD
ENDBRANCH  15  18
BRANCH  17  20
ATOM     20  O   UNL     1       3.321 -16.171 -12.645  0.00  0.00    +0.000 OA
ATOM     21  H   UNL     1       3.806 -16.996 -12.831  0.00  0.00    +0.000 HD
ENDBRANCH  17  20
ENDBRANCH   5  12
BRANCH   8  22
ATOM     22  O   UNL     1      -6.952 -16.735 -15.764  0.00  0.00    +0.000 OA
ATOM     23  H   UNL     1      -7.419 -16.811 -14.903  0.00  0.00    +0.000 HD
ENDBRANCH   8  22
BRANCH  10  24
ATOM     24  O   UNL     1      -5.458 -21.085 -16.950  0.00  0.00    +0.000 OA
ATOM     25  H   UNL     1      -5.912 -20.963 -17.802  0.00  0.00    +0.000 HD
ENDBRANCH  10  24
TORSDOF 5
ENDMDL
MODEL 5
REMARK VINA RESULT:      -5.2     22.867     25.972
REMARK  Name = 5280445_Luteolin.pdbqt.pdb
REMARK  5 active torsions:
REMARK  status: ('A' for Active; 'I' for Inactive)
REMARK    1  A    between atoms: C_5  and  C_12
REMARK    2  A    between atoms: C_8  and  O_22
REMARK    3  A    between atoms: C_10  and  O_24
REMARK    4  A    between atoms: C_15  and  O_18
REMARK    5  A    between atoms: C_17  and  O_20
REMARK                            x       y       z     vdW  Elec       q    Type
REMARK                         _______ _______ _______ _____ _____    ______ ____
ROOT
ATOM      1  O   UNL     1     -17.679 -15.527  -6.342  0.00  0.00    +0.000 OA
ATOM      2  O   UNL     1     -16.297 -13.176  -9.421  0.00  0.00    +0.000 OA
ATOM      3  C   UNL     1     -16.854 -15.393  -8.687  0.00  0.00    +0.000 A 
ATOM      4  C   UNL     1     -17.338 -16.111  -7.565  0.00  0.00    +0.000 A 
ATOM      5  C   UNL     1     -17.540 -14.142  -6.192  0.00  0.00    +0.000 A 
ATOM      6  C   UNL     1     -16.698 -13.932  -8.555  0.00  0.00    +0.000 A 
ATOM      7  C   UNL     1     -17.096 -13.548  -7.249  0.00  0.00    +0.000 A 
ATOM      8  C   UNL     1     -16.538 -16.054  -9.873  0.00  0.00    +0.000 A 
ATOM      9  C   UNL     1     -17.499 -17.490  -7.651  0.00  0.00    +0.000 A 
ATOM     10  C   UNL     1     -17.178 -18.137  -8.843  0.00  0.00    +0.000 A 
ATOM     11  C   UNL     1     -16.701 -17.434  -9.950  0.00  0.00    +0.000 A 
ENDROOT
BRANCH   5  12
ATOM     12  C   UNL     1     -17.897 -13.536  -4.916  0.00  0.00    +0.000 A 
ATOM     13  C   UNL     1     -18.057 -14.329  -3.776  0.00  0.00    +0.000 A 
ATOM     14  C   UNL     1     -18.084 -12.151  -4.809  0.00  0.00    +0.000 A 
ATOM     15  C   UNL     1     -18.398 -13.741  -2.565  0.00  0.00    +0.000 A 
ATOM     16  C   UNL     1     -18.426 -11.560  -3.592  0.00  0.00    +0.000 A 
ATOM     17  C   UNL     1     -18.580 -12.366  -2.472  0.00  0.00    +0.000 A 
BRANCH  15  18
ATOM     18  O   UNL     1     -18.550 -14.528  -1.459  0.00  0.00    +0.000 OA
ATOM     19  H   UNL     1     -19.472 -14.852  -1.502  0.00  0.00    +0.000 HD
ENDBRANCH  15  18
BRANCH  17  20
ATOM     20  O   UNL     1     -18.915 -11.836  -1.256  0.00  0.00    +0.000 OA
ATOM     21  H   UNL     1     -18.291 -11.111  -1.068  0.00  0.00    +0.000 HD
ENDBRANCH  17  20
ENDBRANCH   5  12
BRANCH   8  22
ATOM     22  O   UNL     1     -16.066 -15.416 -10.986  0.00  0.00    +0.000 OA
ATOM     23  H   UNL     1     -16.076 -14.445 -10.837  0.00  0.00    +0.000 HD
ENDBRANCH   8  22
BRANCH  10  24
ATOM     24  O   UNL     1     -17.343 -19.491  -8.905  0.00  0.00    +0.000 OA
ATOM     25  H   UNL     1     -16.940 -19.884  -8.111  0.00  0.00    +0.000 HD
ENDBRANCH  10  24
TORSDOF 5
ENDMDL
MODEL 6
REMARK VINA RESULT:      -5.1     20.267     23.147
REMARK  Name = 5280445_Luteolin.pdbqt.pdb
REMARK  5 active torsions:
REMARK  status: ('A' for Active; 'I' for Inactive)
REMARK    1  A    between atoms: C_5  and  C_12
REMARK    2  A    between atoms: C_8  and  O_22
REMARK    3  A    between atoms: C_10  and  O_24
REMARK    4  A    between atoms: C_15  and  O_18
REMARK    5  A    between atoms: C_17  and  O_20
REMARK                            x       y       z     vdW  Elec       q    Type
REMARK                         _______ _______ _______ _____ _____    ______ ____
ROOT
ATOM      1  O   UNL     1     -14.644 -16.857  -2.255  0.00  0.00    +0.000 OA
ATOM      2  O   UNL     1     -16.199 -20.620  -1.675  0.00  0.00    +0.000 OA
ATOM      3  C   UNL     1     -14.655 -18.949  -0.908  0.00  0.00    +0.000 A 
ATOM      4  C   UNL     1     -14.186 -17.643  -1.195  0.00  0.00    +0.000 A 
ATOM      5  C   UNL     1     -15.631 -17.374  -3.104  0.00  0.00    +0.000 A 
ATOM      6  C   UNL     1     -15.695 -19.518  -1.786  0.00  0.00    +0.000 A 
ATOM      7  C   UNL     1     -16.014 -18.565  -2.788  0.00  0.00    +0.000 A 
ATOM      8  C   UNL     1     -14.144 -19.667   0.173  0.00  0.00    +0.000 A 
ATOM      9  C   UNL     1     -13.206 -17.073  -0.389  0.00  0.00    +0.000 A 
ATOM     10  C   UNL     1     -12.705 -17.803   0.688  0.00  0.00    +0.000 A 
ATOM     11  C   UNL     1     -13.163 -19.090   0.974  0.00  0.00    +0.000 A 
ENDROOT
BRANCH   5  12
ATOM     12  C   UNL     1     -16.107 -16.551  -4.208  0.00  0.00    +0.000 A 
ATOM     13  C   UNL     1     -15.405 -15.404  -4.590  0.00  0.00    +0.000 A 
ATOM     14  C   UNL     1     -17.273 -16.895  -4.906  0.00  0.00    +0.000 A 
ATOM     15  C   UNL     1     -15.868 -14.627  -5.644  0.00  0.00    +0.000 A 
ATOM     16  C   UNL     1     -17.738 -16.114  -5.965  0.00  0.00    +0.000 A 
ATOM     17  C   UNL     1     -17.026 -14.979  -6.328  0.00  0.00    +0.000 A 
BRANCH  15  18
ATOM     18  O   UNL     1     -15.172 -13.510  -6.007  0.00  0.00    +0.000 OA
ATOM     19  H   UNL     1     -15.350 -13.397  -6.963  0.00  0.00    +0.000 HD
ENDBRANCH  15  18
BRANCH  17  20
ATOM     20  O   UNL     1     -17.440 -14.181  -7.359  0.00  0.00    +0.000 OA
ATOM     21  H   UNL     1     -17.585 -14.752  -8.135  0.00  0.00    +0.000 HD
ENDBRANCH  17  20
ENDBRANCH   5  12
BRANCH   8  22
ATOM     22  O   UNL     1     -14.556 -20.929   0.499  0.00  0.00    +0.000 OA
ATOM     23  H   UNL     1     -15.380 -20.879   1.031  0.00  0.00    +0.000 HD
ENDBRANCH   8  22
BRANCH  10  24
ATOM     24  O   UNL     1     -11.743 -17.225   1.466  0.00  0.00    +0.000 OA
ATOM     25  H   UNL     1     -11.553 -16.339   1.108  0.00  0.00    +0.000 HD
ENDBRANCH  10  24
TORSDOF 5
ENDMDL
MODEL 7
REMARK VINA RESULT:      -5.1     18.984     21.300
REMARK  Name = 5280445_Luteolin.pdbqt.pdb
REMARK  5 active torsions:
REMARK  status: ('A' for Active; 'I' for Inactive)
REMARK    1  A    between atoms: C_5  and  C_12
REMARK    2  A    between atoms: C_8  and  O_22
REMARK    3  A    between atoms: C_10  and  O_24
REMARK    4  A    between atoms: C_15  and  O_18
REMARK    5  A    between atoms: C_17  and  O_20
REMARK                            x       y       z     vdW  Elec       q    Type
REMARK                         _______ _______ _______ _____ _____    ______ ____
ROOT
ATOM      1  O   UNL     1     -15.040 -17.757   0.310  0.00  0.00    +0.000 OA
ATOM      2  O   UNL     1     -14.702 -19.626  -3.338  0.00  0.00    +0.000 OA
ATOM      3  C   UNL     1     -15.736 -17.864  -2.077  0.00  0.00    +0.000 A 
ATOM      4  C   UNL     1     -15.781 -17.293  -0.781  0.00  0.00    +0.000 A 
ATOM      5  C   UNL     1     -14.194 -18.858   0.134  0.00  0.00    +0.000 A 
ATOM      6  C   UNL     1     -14.852 -19.026  -2.290  0.00  0.00    +0.000 A 
ATOM      7  C   UNL     1     -14.200 -19.330  -1.068  0.00  0.00    +0.000 A 
ATOM      8  C   UNL     1     -16.508 -17.338  -3.113  0.00  0.00    +0.000 A 
ATOM      9  C   UNL     1     -16.602 -16.197  -0.542  0.00  0.00    +0.000 A 
ATOM     10  C   UNL     1     -17.368 -15.682  -1.587  0.00  0.00    +0.000 A 
ATOM     11  C   UNL     1     -17.328 -16.242  -2.866  0.00  0.00    +0.000 A 
ENDROOT
BRANCH   5  12
ATOM     12  C   UNL     1     -13.423 -19.339   1.274  0.00  0.00    +0.000 A 
ATOM     13  C   UNL     1     -13.280 -20.710   1.502  0.00  0.00    +0.000 A 
ATOM     14  C   UNL     1     -12.813 -18.438   2.157  0.00  0.00    +0.000 A 
ATOM     15  C   UNL     1     -12.544 -21.158   2.592  0.00  0.00    +0.000 A 
ATOM     16  C   UNL     1     -12.074 -18.887   3.251  0.00  0.00    +0.000 A 
ATOM     17  C   UNL     1     -11.944 -20.254   3.460  0.00  0.00    +0.000 A 
BRANCH  15  18
ATOM     18  O   UNL     1     -12.412 -22.501   2.803  0.00  0.00    +0.000 OA
ATOM     19  H   UNL     1     -12.904 -22.679   3.630  0.00  0.00    +0.000 HD
ENDBRANCH  15  18
BRANCH  17  20
ATOM     20  O   UNL     1     -11.229 -20.746   4.519  0.00  0.00    +0.000 OA
ATOM     21  H   UNL     1     -11.422 -20.185   5.292  0.00  0.00    +0.000 HD
ENDBRANCH  17  20
ENDBRANCH   5  12
BRANCH   8  22
ATOM     22  O   UNL     1     -16.508 -17.846  -4.382  0.00  0.00    +0.000 OA
ATOM     23  H   UNL     1     -17.431 -17.915  -4.709  0.00  0.00    +0.000 HD
ENDBRANCH   8  22
BRANCH  10  24
ATOM     24  O   UNL     1     -18.168 -14.606  -1.330  0.00  0.00    +0.000 OA
ATOM     25  H   UNL     1     -18.824 -14.867  -0.659  0.00  0.00    +0.000 HD
ENDBRANCH  10  24
TORSDOF 5
ENDMDL
MODEL 8
REMARK VINA RESULT:      -5.0     20.614     23.068
REMARK  Name = 5280445_Luteolin.pdbqt.pdb
REMARK  5 active torsions:
REMARK  status: ('A' for Active; 'I' for Inactive)
REMARK    1  A    between atoms: C_5  and  C_12
REMARK    2  A    between atoms: C_8  and  O_22
REMARK    3  A    between atoms: C_10  and  O_24
REMARK    4  A    between atoms: C_15  and  O_18
REMARK    5  A    between atoms: C_17  and  O_20
REMARK                            x       y       z     vdW  Elec       q    Type
REMARK                         _______ _______ _______ _____ _____    ______ ____
ROOT
ATOM      1  O   UNL     1     -12.911 -16.794  -0.075  0.00  0.00    +0.000 OA
ATOM      2  O   UNL     1     -16.732 -15.627   0.901  0.00  0.00    +0.000 OA
ATOM      3  C   UNL     1     -15.355 -17.029  -0.479  0.00  0.00    +0.000 A 
ATOM      4  C   UNL     1     -14.002 -17.360  -0.739  0.00  0.00    +0.000 A 
ATOM      5  C   UNL     1     -13.146 -15.834   0.916  0.00  0.00    +0.000 A 
ATOM      6  C   UNL     1     -15.631 -16.020   0.561  0.00  0.00    +0.000 A 
ATOM      7  C   UNL     1     -14.397 -15.578   1.104  0.00  0.00    +0.000 A 
ATOM      8  C   UNL     1     -16.387 -17.643  -1.188  0.00  0.00    +0.000 A 
ATOM      9  C   UNL     1     -13.703 -18.308  -1.712  0.00  0.00    +0.000 A 
ATOM     10  C   UNL     1     -14.745 -18.913  -2.412  0.00  0.00    +0.000 A 
ATOM     11  C   UNL     1     -16.079 -18.590  -2.160  0.00  0.00    +0.000 A 
ENDROOT
BRANCH   5  12
ATOM     12  C   UNL     1     -12.005 -15.245   1.607  0.00  0.00    +0.000 A 
ATOM     13  C   UNL     1     -10.967 -14.653   0.881  0.00  0.00    +0.000 A 
ATOM     14  C   UNL     1     -11.930 -15.262   3.006  0.00  0.00    +0.000 A 
ATOM     15  C   UNL     1      -9.885 -14.096   1.550  0.00  0.00    +0.000 A 
ATOM     16  C   UNL     1     -10.843 -14.702   3.678  0.00  0.00    +0.000 A 
ATOM     17  C   UNL     1      -9.822 -14.119   2.938  0.00  0.00    +0.000 A 
BRANCH  15  18
ATOM     18  O   UNL     1      -8.878 -13.521   0.829  0.00  0.00    +0.000 OA
ATOM     19  H   UNL     1      -9.314 -13.140   0.040  0.00  0.00    +0.000 HD
ENDBRANCH  15  18
BRANCH  17  20
ATOM     20  O   UNL     1      -8.735 -13.556   3.549  0.00  0.00    +0.000 OA
ATOM     21  H   UNL     1      -8.058 -13.401   2.865  0.00  0.00    +0.000 HD
ENDBRANCH  17  20
ENDBRANCH   5  12
BRANCH   8  22
ATOM     22  O   UNL     1     -17.710 -17.365  -0.982  0.00  0.00    +0.000 OA
ATOM     23  H   UNL     1     -17.957 -17.603  -0.061  0.00  0.00    +0.000 HD
ENDBRANCH   8  22
BRANCH  10  24
ATOM     24  O   UNL     1     -14.429 -19.840  -3.364  0.00  0.00    +0.000 OA
ATOM     25  H   UNL     1     -13.713 -20.402  -3.016  0.00  0.00    +0.000 HD
ENDBRANCH  10  24
TORSDOF 5
ENDMDL
MODEL 9
REMARK VINA RESULT:      -5.0     19.150     22.191
REMARK  Name = 5280445_Luteolin.pdbqt.pdb
REMARK  5 active torsions:
REMARK  status: ('A' for Active; 'I' for Inactive)
REMARK    1  A    between atoms: C_5  and  C_12
REMARK    2  A    between atoms: C_8  and  O_22
REMARK    3  A    between atoms: C_10  and  O_24
REMARK    4  A    between atoms: C_15  and  O_18
REMARK    5  A    between atoms: C_17  and  O_20
REMARK                            x       y       z     vdW  Elec       q    Type
REMARK                         _______ _______ _______ _____ _____    ______ ____
ROOT
ATOM      1  O   UNL     1      -2.308 -15.599  -1.204  0.00  0.00    +0.000 OA
ATOM      2  O   UNL     1      -0.990 -13.690  -4.601  0.00  0.00    +0.000 OA
ATOM      3  C   UNL     1      -0.597 -15.440  -3.006  0.00  0.00    +0.000 A 
ATOM      4  C   UNL     1      -1.135 -16.027  -1.833  0.00  0.00    +0.000 A 
ATOM      5  C   UNL     1      -3.012 -14.519  -1.750  0.00  0.00    +0.000 A 
ATOM      6  C   UNL     1      -1.320 -14.300  -3.601  0.00  0.00    +0.000 A 
ATOM      7  C   UNL     1      -2.470 -14.031  -2.815  0.00  0.00    +0.000 A 
ATOM      8  C   UNL     1       0.579 -15.930  -3.571  0.00  0.00    +0.000 A 
ATOM      9  C   UNL     1      -0.482 -17.104  -1.243  0.00  0.00    +0.000 A 
ATOM     10  C   UNL     1       0.693 -17.583  -1.820  0.00  0.00    +0.000 A 
ATOM     11  C   UNL     1       1.227 -17.007  -2.974  0.00  0.00    +0.000 A 
ENDROOT
BRANCH   5  12
ATOM     12  C   UNL     1      -4.234 -14.074  -1.092  0.00  0.00    +0.000 A 
ATOM     13  C   UNL     1      -5.075 -13.146  -1.714  0.00  0.00    +0.000 A 
ATOM     14  C   UNL     1      -4.588 -14.569   0.170  0.00  0.00    +0.000 A 
ATOM     15  C   UNL     1      -6.237 -12.728  -1.077  0.00  0.00    +0.000 A 
ATOM     16  C   UNL     1      -5.755 -14.150   0.810  0.00  0.00    +0.000 A 
ATOM     17  C   UNL     1      -6.576 -13.227   0.175  0.00  0.00    +0.000 A 
BRANCH  15  18
ATOM     18  O   UNL     1      -7.049 -11.821  -1.696  0.00  0.00    +0.000 OA
ATOM     19  H   UNL     1      -7.917 -12.266  -1.770  0.00  0.00    +0.000 HD
ENDBRANCH  15  18
BRANCH  17  20
ATOM     20  O   UNL     1      -7.731 -12.784   0.760  0.00  0.00    +0.000 OA
ATOM     21  H   UNL     1      -7.607 -12.822   1.725  0.00  0.00    +0.000 HD
ENDBRANCH  17  20
ENDBRANCH   5  12
BRANCH   8  22
ATOM     22  O   UNL     1       1.147 -15.406  -4.699  0.00  0.00    +0.000 OA
ATOM     23  H   UNL     1       1.264 -16.115  -5.368  0.00  0.00    +0.000 HD
ENDBRANCH   8  22
BRANCH  10  24
ATOM     24  O   UNL     1       1.318 -18.640  -1.223  0.00  0.00    +0.000 OA
ATOM     25  H   UNL     1       0.636 -19.244  -0.880  0.00  0.00    +0.000 HD
ENDBRANCH  10  24
TORSDOF 5
ENDMDL
