MODEL 1
REMARK VINA RESULT:      -6.0      0.000      0.000
REMARK  Name = 5281239_Fucoxanthin.pdbqt.pdb
REMARK  19 active torsions:
REMARK  status: ('A' for Active; 'I' for Inactive)
REMARK    1  A    between atoms: C_1  and  C_5
REMARK    2  A    between atoms: C_2  and  C_26
REMARK    3  A    between atoms: C_3  and  C_5
REMARK    4  A    between atoms: C_3  and  C_7
REMARK    5  A    between atoms: C_6  and  C_10
REMARK    6  A    between atoms: C_8  and  C_10
REMARK    7  A    between atoms: C_8  and  C_12
REMARK    8  A    between atoms: C_12  and  C_13
REMARK    9  A    between atoms: C_13  and  C_15
REMARK   10  A    between atoms: C_20  and  O_24
REMARK   11  A    between atoms: C_26  and  C_27
REMARK   12  A    between atoms: C_27  and  C_30
REMARK   13  A    between atoms: C_29  and  C_33
REMARK   14  A    between atoms: C_31  and  C_33
REMARK   15  A    between atoms: C_31  and  C_44
REMARK   16  A    between atoms: C_35  and  O_45
REMARK   17  A    between atoms: C_37  and  O_47
REMARK   18  A    between atoms: C_39  and  C_43
REMARK   19  A    between atoms: O_47  and  C_49
REMARK                            x       y       z     vdW  Elec       q    Type
REMARK                         _______ _______ _______ _____ _____    ______ ____
ROOT
ATOM      1  C   UNL     1     -12.952 -17.581   0.018  0.00  0.00    +0.000 C 
ATOM      2  C   UNL     1     -11.993 -17.218   0.641  0.00  0.00    +0.000 C 
ENDROOT
BRANCH   2   3
ATOM      3  C   UNL     1     -10.772 -16.748   1.441  0.00  0.00    +0.000 C 
BRANCH   3   4
ATOM      4  C   UNL     1      -9.739 -16.355   2.117  0.00  0.00    +0.000 C 
ATOM      5  C   UNL     1      -9.917 -15.444   3.293  0.00  0.00    +0.000 C 
BRANCH   4   7
ATOM      6  C   UNL     1      -7.357 -17.231   1.482  0.00  0.00    +0.000 C 
ATOM      7  C   UNL     1      -8.450 -16.827   1.774  0.00  0.00    +0.000 C 
BRANCH   6   8
ATOM      8  C   UNL     1      -5.964 -17.749   1.106  0.00  0.00    +0.000 C 
BRANCH   8   9
ATOM      9  C   UNL     1      -4.783 -18.178   0.786  0.00  0.00    +0.000 C 
ATOM     10  C   UNL     1      -4.229 -19.413   1.428  0.00  0.00    +0.000 C 
BRANCH   9  12
ATOM     11  C   UNL     1      -3.281 -16.764  -0.831  0.00  0.00    +0.000 C 
ATOM     12  C   UNL     1      -3.969 -17.413  -0.086  0.00  0.00    +0.000 C 
BRANCH  11  18
ATOM     13  C   UNL     1      -0.990 -16.131  -1.623  0.00  0.00    +0.000 C 
ATOM     14  C   UNL     1      -3.143 -15.077  -2.635  0.00  0.00    +0.000 C 
ATOM     15  C   UNL     1      -0.407 -15.492  -2.811  0.00  0.00    +0.000 C 
ATOM     16  C   UNL     1      -0.818 -14.744  -3.931  0.00  0.00    +0.000 C 
ATOM     17  C   UNL     1      -2.199 -14.653  -3.663  0.00  0.00    +0.000 C 
ATOM     18  C   UNL     1      -2.527 -16.057  -1.649  0.00  0.00    +0.000 C 
ATOM     19  C   UNL     1      -0.483 -15.424  -0.338  0.00  0.00    +0.000 C 
ATOM     20  C   UNL     1      -0.552 -17.627  -1.614  0.00  0.00    +0.000 C 
ATOM     21  C   UNL     1      -3.750 -13.876  -1.905  0.00  0.00    +0.000 C 
BRANCH  14  22
ATOM     22  O   UNL     1      -4.232 -15.696  -3.284  0.00  0.00    +0.000 OA
ATOM     23  H   UNL     1      -4.779 -14.926  -3.521  0.00  0.00    +0.000 HD
ENDBRANCH  14  22
BRANCH  16  24
ATOM     24  O   UNL     1      -0.096 -13.614  -4.292  0.00  0.00    +0.000 OA
BRANCH  24  26
ATOM     25  O   UNL     1       1.342 -14.839  -5.685  0.00  0.00    +0.000 OA
ATOM     26  C   UNL     1       0.657 -13.877  -5.389  0.00  0.00    +0.000 C 
ATOM     27  C   UNL     1       0.654 -12.789  -6.404  0.00  0.00    +0.000 C 
ENDBRANCH  24  26
ENDBRANCH  16  24
ENDBRANCH  11  18
ENDBRANCH   9  12
ENDBRANCH   8   9
ENDBRANCH   6   8
ENDBRANCH   4   7
ENDBRANCH   3   4
ENDBRANCH   2   3
BRANCH   1  28
ATOM     28  C   UNL     1     -14.183 -18.037  -0.774  0.00  0.00    +0.000 C 
BRANCH  28  29
ATOM     29  C   UNL     1     -15.230 -18.419  -1.435  0.00  0.00    +0.000 C 
ATOM     30  C   UNL     1     -15.942 -19.679  -1.048  0.00  0.00    +0.000 C 
BRANCH  29  32
ATOM     31  C   UNL     1     -16.062 -17.032  -3.492  0.00  0.00    +0.000 C 
ATOM     32  C   UNL     1     -15.675 -17.663  -2.546  0.00  0.00    +0.000 C 
BRANCH  31  33
ATOM     33  C   UNL     1     -16.565 -16.239  -4.704  0.00  0.00    +0.000 C 
BRANCH  33  34
ATOM     34  C   UNL     1     -16.999 -15.563  -5.726  0.00  0.00    +0.000 C 
ATOM     35  C   UNL     1     -17.262 -16.343  -6.998  0.00  0.00    +0.000 C 
BRANCH  34  37
ATOM     36  O   UNL     1     -16.641 -13.305  -6.421  0.00  0.00    +0.000 OA
ATOM     37  C   UNL     1     -17.175 -14.081  -5.634  0.00  0.00    +0.000 C 
BRANCH  37  38
ATOM     38  C   UNL     1     -17.995 -13.493  -4.602  0.00  0.00    +0.000 C 
BRANCH  38  40
ATOM     39  O   UNL     1     -18.301 -11.651  -3.134  0.00  0.00    +0.000 OA
ATOM     40  C   UNL     1     -18.840 -12.930  -3.567  0.00  0.00    +0.000 C 
ATOM     41  C   UNL     1     -19.549 -11.583  -3.822  0.00  0.00    +0.000 C 
ATOM     42  C   UNL     1     -19.414 -13.865  -2.442  0.00  0.00    +0.000 C 
ATOM     43  C   UNL     1     -20.625 -11.236  -2.951  0.00  0.00    +0.000 C 
ATOM     44  C   UNL     1     -20.445 -13.102  -1.736  0.00  0.00    +0.000 C 
ATOM     45  C   UNL     1     -21.166 -11.895  -1.833  0.00  0.00    +0.000 C 
ATOM     46  C   UNL     1     -19.466 -10.838  -5.157  0.00  0.00    +0.000 C 
ATOM     47  C   UNL     1     -20.027 -15.077  -3.186  0.00  0.00    +0.000 C 
ATOM     48  C   UNL     1     -18.208 -14.261  -1.562  0.00  0.00    +0.000 C 
BRANCH  45  49
ATOM     49  O   UNL     1     -22.485 -11.827  -1.504  0.00  0.00    +0.000 OA
ATOM     50  H   UNL     1     -23.060 -12.198  -2.197  0.00  0.00    +0.000 HD
ENDBRANCH  45  49
ENDBRANCH  38  40
ENDBRANCH  37  38
ENDBRANCH  34  37
ENDBRANCH  33  34
ENDBRANCH  31  33
ENDBRANCH  29  32
ENDBRANCH  28  29
ENDBRANCH   1  28
TORSDOF 19
ENDMDL
MODEL 2
REMARK VINA RESULT:      -5.6      9.767     13.766
REMARK  Name = 5281239_Fucoxanthin.pdbqt.pdb
REMARK  19 active torsions:
REMARK  status: ('A' for Active; 'I' for Inactive)
REMARK    1  A    between atoms: C_1  and  C_5
REMARK    2  A    between atoms: C_2  and  C_26
REMARK    3  A    between atoms: C_3  and  C_5
REMARK    4  A    between atoms: C_3  and  C_7
REMARK    5  A    between atoms: C_6  and  C_10
REMARK    6  A    between atoms: C_8  and  C_10
REMARK    7  A    between atoms: C_8  and  C_12
REMARK    8  A    between atoms: C_12  and  C_13
REMARK    9  A    between atoms: C_13  and  C_15
REMARK   10  A    between atoms: C_20  and  O_24
REMARK   11  A    between atoms: C_26  and  C_27
REMARK   12  A    between atoms: C_27  and  C_30
REMARK   13  A    between atoms: C_29  and  C_33
REMARK   14  A    between atoms: C_31  and  C_33
REMARK   15  A    between atoms: C_31  and  C_44
REMARK   16  A    between atoms: C_35  and  O_45
REMARK   17  A    between atoms: C_37  and  O_47
REMARK   18  A    between atoms: C_39  and  C_43
REMARK   19  A    between atoms: O_47  and  C_49
REMARK                            x       y       z     vdW  Elec       q    Type
REMARK                         _______ _______ _______ _____ _____    ______ ____
ROOT
ATOM      1  C   UNL     1       0.270 -16.536 -13.117  0.00  0.00    +0.000 C 
ATOM      2  C   UNL     1       1.282 -16.405 -12.485  0.00  0.00    +0.000 C 
ENDROOT
BRANCH   2   3
ATOM      3  C   UNL     1       2.571 -16.235 -11.672  0.00  0.00    +0.000 C 
BRANCH   3   4
ATOM      4  C   UNL     1       3.658 -16.089 -10.982  0.00  0.00    +0.000 C 
ATOM      5  C   UNL     1       4.989 -16.355 -11.618  0.00  0.00    +0.000 C 
BRANCH   4   7
ATOM      6  C   UNL     1       3.533 -15.236  -8.512  0.00  0.00    +0.000 C 
ATOM      7  C   UNL     1       3.589 -15.629  -9.645  0.00  0.00    +0.000 C 
BRANCH   6   8
ATOM      8  C   UNL     1       3.461 -14.730  -7.066  0.00  0.00    +0.000 C 
BRANCH   8   9
ATOM      9  C   UNL     1       3.409 -14.297  -5.845  0.00  0.00    +0.000 C 
ATOM     10  C   UNL     1       4.516 -13.449  -5.298  0.00  0.00    +0.000 C 
BRANCH   9  12
ATOM     11  C   UNL     1       1.475 -15.090  -4.265  0.00  0.00    +0.000 C 
ATOM     12  C   UNL     1       2.361 -14.723  -4.991  0.00  0.00    +0.000 C 
BRANCH  11  18
ATOM     13  C   UNL     1      -0.878 -14.815  -3.450  0.00  0.00    +0.000 C 
ATOM     14  C   UNL     1       0.713 -16.635  -2.489  0.00  0.00    +0.000 C 
ATOM     15  C   UNL     1      -1.860 -15.628  -2.719  0.00  0.00    +0.000 C 
ATOM     16  C   UNL     1      -1.908 -16.804  -1.946  0.00  0.00    +0.000 C 
ATOM     17  C   UNL     1      -0.542 -17.152  -1.957  0.00  0.00    +0.000 C 
ATOM     18  C   UNL     1       0.502 -15.495  -3.474  0.00  0.00    +0.000 C 
ATOM     19  C   UNL     1      -0.732 -13.425  -2.774  0.00  0.00    +0.000 C 
ATOM     20  C   UNL     1      -1.387 -14.642  -4.913  0.00  0.00    +0.000 C 
ATOM     21  C   UNL     1       1.666 -16.216  -1.366  0.00  0.00    +0.000 C 
BRANCH  14  22
ATOM     22  O   UNL     1       1.370 -17.697  -3.145  0.00  0.00    +0.000 OA
ATOM     23  H   UNL     1       1.373 -18.381  -2.451  0.00  0.00    +0.000 HD
ENDBRANCH  14  22
BRANCH  16  24
ATOM     24  O   UNL     1      -2.625 -16.803  -0.757  0.00  0.00    +0.000 OA
BRANCH  24  26
ATOM     25  O   UNL     1      -2.323 -19.044  -0.129  0.00  0.00    +0.000 OA
ATOM     26  C   UNL     1      -2.229 -17.840   0.023  0.00  0.00    +0.000 C 
ATOM     27  C   UNL     1      -1.576 -17.430   1.296  0.00  0.00    +0.000 C 
ENDBRANCH  24  26
ENDBRANCH  16  24
ENDBRANCH  11  18
ENDBRANCH   9  12
ENDBRANCH   8   9
ENDBRANCH   6   8
ENDBRANCH   4   7
ENDBRANCH   3   4
ENDBRANCH   2   3
BRANCH   1  28
ATOM     28  C   UNL     1      -1.028 -16.702 -13.915  0.00  0.00    +0.000 C 
BRANCH  28  29
ATOM     29  C   UNL     1      -2.127 -16.830 -14.589  0.00  0.00    +0.000 C 
ATOM     30  C   UNL     1      -2.431 -18.119 -15.289  0.00  0.00    +0.000 C 
BRANCH  29  32
ATOM     31  C   UNL     1      -3.777 -14.809 -14.794  0.00  0.00    +0.000 C 
ATOM     32  C   UNL     1      -3.021 -15.737 -14.692  0.00  0.00    +0.000 C 
BRANCH  31  33
ATOM     33  C   UNL     1      -4.738 -13.624 -14.940  0.00  0.00    +0.000 C 
BRANCH  33  34
ATOM     34  C   UNL     1      -5.549 -12.616 -15.072  0.00  0.00    +0.000 C 
ATOM     35  C   UNL     1      -5.154 -11.549 -16.072  0.00  0.00    +0.000 C 
BRANCH  34  37
ATOM     36  O   UNL     1      -6.844 -11.800 -13.237  0.00  0.00    +0.000 OA
ATOM     37  C   UNL     1      -6.780 -12.520 -14.228  0.00  0.00    +0.000 C 
BRANCH  37  38
ATOM     38  C   UNL     1      -7.963 -13.281 -14.552  0.00  0.00    +0.000 C 
BRANCH  38  40
ATOM     39  O   UNL     1      -9.914 -14.273 -13.628  0.00  0.00    +0.000 OA
ATOM     40  C   UNL     1      -9.169 -14.028 -14.853  0.00  0.00    +0.000 C 
ATOM     41  C   UNL     1     -10.544 -13.393 -14.556  0.00  0.00    +0.000 C 
ATOM     42  C   UNL     1      -9.109 -15.212 -15.884  0.00  0.00    +0.000 C 
ATOM     43  C   UNL     1     -11.685 -13.988 -15.173  0.00  0.00    +0.000 C 
ATOM     44  C   UNL     1     -10.493 -15.570 -16.204  0.00  0.00    +0.000 C 
ATOM     45  C   UNL     1     -11.811 -15.114 -16.005  0.00  0.00    +0.000 C 
ATOM     46  C   UNL     1     -10.704 -11.965 -14.027  0.00  0.00    +0.000 C 
ATOM     47  C   UNL     1      -8.380 -14.641 -17.125  0.00  0.00    +0.000 C 
ATOM     48  C   UNL     1      -8.309 -16.337 -15.193  0.00  0.00    +0.000 C 
BRANCH  45  49
ATOM     49  O   UNL     1     -12.750 -15.204 -16.987  0.00  0.00    +0.000 OA
ATOM     50  H   UNL     1     -12.631 -14.527 -17.677  0.00  0.00    +0.000 HD
ENDBRANCH  45  49
ENDBRANCH  38  40
ENDBRANCH  37  38
ENDBRANCH  34  37
ENDBRANCH  33  34
ENDBRANCH  31  33
ENDBRANCH  29  32
ENDBRANCH  28  29
ENDBRANCH   1  28
TORSDOF 19
ENDMDL
MODEL 3
REMARK VINA RESULT:      -5.6      9.936     14.730
REMARK  Name = 5281239_Fucoxanthin.pdbqt.pdb
REMARK  19 active torsions:
REMARK  status: ('A' for Active; 'I' for Inactive)
REMARK    1  A    between atoms: C_1  and  C_5
REMARK    2  A    between atoms: C_2  and  C_26
REMARK    3  A    between atoms: C_3  and  C_5
REMARK    4  A    between atoms: C_3  and  C_7
REMARK    5  A    between atoms: C_6  and  C_10
REMARK    6  A    between atoms: C_8  and  C_10
REMARK    7  A    between atoms: C_8  and  C_12
REMARK    8  A    between atoms: C_12  and  C_13
REMARK    9  A    between atoms: C_13  and  C_15
REMARK   10  A    between atoms: C_20  and  O_24
REMARK   11  A    between atoms: C_26  and  C_27
REMARK   12  A    between atoms: C_27  and  C_30
REMARK   13  A    between atoms: C_29  and  C_33
REMARK   14  A    between atoms: C_31  and  C_33
REMARK   15  A    between atoms: C_31  and  C_44
REMARK   16  A    between atoms: C_35  and  O_45
REMARK   17  A    between atoms: C_37  and  O_47
REMARK   18  A    between atoms: C_39  and  C_43
REMARK   19  A    between atoms: O_47  and  C_49
REMARK                            x       y       z     vdW  Elec       q    Type
REMARK                         _______ _______ _______ _____ _____    ______ ____
ROOT
ATOM      1  C   UNL     1       0.785 -16.643 -13.149  0.00  0.00    +0.000 C 
ATOM      2  C   UNL     1       1.830 -16.414 -12.607  0.00  0.00    +0.000 C 
ENDROOT
BRANCH   2   3
ATOM      3  C   UNL     1       3.169 -16.117 -11.920  0.00  0.00    +0.000 C 
BRANCH   3   4
ATOM      4  C   UNL     1       4.298 -15.866 -11.336  0.00  0.00    +0.000 C 
ATOM      5  C   UNL     1       5.561 -15.817 -12.140  0.00  0.00    +0.000 C 
BRANCH   4   7
ATOM      6  C   UNL     1       4.350 -15.351  -8.771  0.00  0.00    +0.000 C 
ATOM      7  C   UNL     1       4.328 -15.588  -9.948  0.00  0.00    +0.000 C 
BRANCH   6   8
ATOM      8  C   UNL     1       4.375 -15.053  -7.267  0.00  0.00    +0.000 C 
BRANCH   8   9
ATOM      9  C   UNL     1       4.405 -14.794  -5.997  0.00  0.00    +0.000 C 
ATOM     10  C   UNL     1       5.716 -14.655  -5.287  0.00  0.00    +0.000 C 
BRANCH   9  12
ATOM     11  C   UNL     1       2.173 -14.726  -4.626  0.00  0.00    +0.000 C 
ATOM     12  C   UNL     1       3.196 -14.760  -5.257  0.00  0.00    +0.000 C 
BRANCH  11  18
ATOM     13  C   UNL     1       0.908 -15.394  -2.569  0.00  0.00    +0.000 C 
ATOM     14  C   UNL     1      -0.185 -13.993  -4.469  0.00  0.00    +0.000 C 
ATOM     15  C   UNL     1      -0.311 -14.958  -1.873  0.00  0.00    +0.000 C 
ATOM     16  C   UNL     1      -1.447 -14.159  -2.108  0.00  0.00    +0.000 C 
ATOM     17  C   UNL     1      -1.193 -13.770  -3.439  0.00  0.00    +0.000 C 
ATOM     18  C   UNL     1       1.054 -14.691  -3.930  0.00  0.00    +0.000 C 
ATOM     19  C   UNL     1       0.864 -16.927  -2.806  0.00  0.00    +0.000 C 
ATOM     20  C   UNL     1       2.132 -15.031  -1.674  0.00  0.00    +0.000 C 
ATOM     21  C   UNL     1      -0.766 -14.757  -5.663  0.00  0.00    +0.000 C 
BRANCH  14  22
ATOM     22  O   UNL     1       0.183 -12.734  -4.988  0.00  0.00    +0.000 OA
ATOM     23  H   UNL     1       0.487 -12.275  -4.183  0.00  0.00    +0.000 HD
ENDBRANCH  14  22
BRANCH  16  24
ATOM     24  O   UNL     1      -2.698 -14.637  -1.741  0.00  0.00    +0.000 OA
BRANCH  24  26
ATOM     25  O   UNL     1      -3.225 -12.656  -0.599  0.00  0.00    +0.000 OA
ATOM     26  C   UNL     1      -3.476 -13.614  -1.307  0.00  0.00    +0.000 C 
ATOM     27  C   UNL     1      -4.888 -13.685  -1.770  0.00  0.00    +0.000 C 
ENDBRANCH  24  26
ENDBRANCH  16  24
ENDBRANCH  11  18
ENDBRANCH   9  12
ENDBRANCH   8   9
ENDBRANCH   6   8
ENDBRANCH   4   7
ENDBRANCH   3   4
ENDBRANCH   2   3
BRANCH   1  28
ATOM     28  C   UNL     1      -0.548 -16.930 -13.851  0.00  0.00    +0.000 C 
BRANCH  28  29
ATOM     29  C   UNL     1      -1.671 -17.165 -14.452  0.00  0.00    +0.000 C 
ATOM     30  C   UNL     1      -1.879 -18.463 -15.171  0.00  0.00    +0.000 C 
BRANCH  29  32
ATOM     31  C   UNL     1      -3.542 -15.337 -14.480  0.00  0.00    +0.000 C 
ATOM     32  C   UNL     1      -2.685 -16.178 -14.459  0.00  0.00    +0.000 C 
BRANCH  31  33
ATOM     33  C   UNL     1      -4.632 -14.259 -14.520  0.00  0.00    +0.000 C 
BRANCH  33  34
ATOM     34  C   UNL     1      -5.563 -13.352 -14.555  0.00  0.00    +0.000 C 
ATOM     35  C   UNL     1      -5.120 -11.913 -14.388  0.00  0.00    +0.000 C 
BRANCH  34  37
ATOM     36  O   UNL     1      -7.917 -13.066 -14.259  0.00  0.00    +0.000 OA
ATOM     37  C   UNL     1      -6.998 -13.745 -14.707  0.00  0.00    +0.000 C 
BRANCH  37  38
ATOM     38  C   UNL     1      -7.367 -14.957 -15.399  0.00  0.00    +0.000 C 
BRANCH  38  40
ATOM     39  O   UNL     1      -8.563 -17.005 -15.253  0.00  0.00    +0.000 OA
ATOM     40  C   UNL     1      -7.757 -16.156 -16.116  0.00  0.00    +0.000 C 
ATOM     41  C   UNL     1      -9.255 -16.434 -16.361  0.00  0.00    +0.000 C 
ATOM     42  C   UNL     1      -6.711 -16.882 -17.036  0.00  0.00    +0.000 C 
ATOM     43  C   UNL     1      -9.585 -17.408 -17.351  0.00  0.00    +0.000 C 
ATOM     44  C   UNL     1      -7.453 -17.854 -17.842  0.00  0.00    +0.000 C 
ATOM     45  C   UNL     1      -8.774 -18.229 -18.154  0.00  0.00    +0.000 C 
ATOM     46  C   UNL     1     -10.361 -15.458 -15.949  0.00  0.00    +0.000 C 
ATOM     47  C   UNL     1      -6.099 -15.772 -17.923  0.00  0.00    +0.000 C 
ATOM     48  C   UNL     1      -5.674 -17.515 -16.081  0.00  0.00    +0.000 C 
BRANCH  45  49
ATOM     49  O   UNL     1      -9.127 -18.607 -19.414  0.00  0.00    +0.000 OA
ATOM     50  H   UNL     1      -9.492 -17.869 -19.934  0.00  0.00    +0.000 HD
ENDBRANCH  45  49
ENDBRANCH  38  40
ENDBRANCH  37  38
ENDBRANCH  34  37
ENDBRANCH  33  34
ENDBRANCH  31  33
ENDBRANCH  29  32
ENDBRANCH  28  29
ENDBRANCH   1  28
TORSDOF 19
ENDMDL
MODEL 4
REMARK VINA RESULT:      -5.3     11.045     15.467
REMARK  Name = 5281239_Fucoxanthin.pdbqt.pdb
REMARK  19 active torsions:
REMARK  status: ('A' for Active; 'I' for Inactive)
REMARK    1  A    between atoms: C_1  and  C_5
REMARK    2  A    between atoms: C_2  and  C_26
REMARK    3  A    between atoms: C_3  and  C_5
REMARK    4  A    between atoms: C_3  and  C_7
REMARK    5  A    between atoms: C_6  and  C_10
REMARK    6  A    between atoms: C_8  and  C_10
REMARK    7  A    between atoms: C_8  and  C_12
REMARK    8  A    between atoms: C_12  and  C_13
REMARK    9  A    between atoms: C_13  and  C_15
REMARK   10  A    between atoms: C_20  and  O_24
REMARK   11  A    between atoms: C_26  and  C_27
REMARK   12  A    between atoms: C_27  and  C_30
REMARK   13  A    between atoms: C_29  and  C_33
REMARK   14  A    between atoms: C_31  and  C_33
REMARK   15  A    between atoms: C_31  and  C_44
REMARK   16  A    between atoms: C_35  and  O_45
REMARK   17  A    between atoms: C_37  and  O_47
REMARK   18  A    between atoms: C_39  and  C_43
REMARK   19  A    between atoms: O_47  and  C_49
REMARK                            x       y       z     vdW  Elec       q    Type
REMARK                         _______ _______ _______ _____ _____    ______ ____
ROOT
ATOM      1  C   UNL     1       1.637 -16.291 -12.496  0.00  0.00    +0.000 C 
ATOM      2  C   UNL     1       2.383 -16.101 -11.575  0.00  0.00    +0.000 C 
ENDROOT
BRANCH   2   3
ATOM      3  C   UNL     1       3.342 -15.857 -10.404  0.00  0.00    +0.000 C 
BRANCH   3   4
ATOM      4  C   UNL     1       4.149 -15.649  -9.412  0.00  0.00    +0.000 C 
ATOM      5  C   UNL     1       5.613 -15.927  -9.569  0.00  0.00    +0.000 C 
BRANCH   4   7
ATOM      6  C   UNL     1       3.231 -14.657  -7.172  0.00  0.00    +0.000 C 
ATOM      7  C   UNL     1       3.654 -15.112  -8.200  0.00  0.00    +0.000 C 
BRANCH   6   8
ATOM      8  C   UNL     1       2.688 -14.081  -5.859  0.00  0.00    +0.000 C 
BRANCH   8   9
ATOM      9  C   UNL     1       2.234 -13.585  -4.751  0.00  0.00    +0.000 C 
ATOM     10  C   UNL     1       2.850 -12.349  -4.170  0.00  0.00    +0.000 C 
BRANCH   9  12
ATOM     11  C   UNL     1       0.380 -14.869  -3.418  0.00  0.00    +0.000 C 
ATOM     12  C   UNL     1       1.232 -14.278  -4.027  0.00  0.00    +0.000 C 
BRANCH  11  18
ATOM     13  C   UNL     1      -2.040 -15.109  -2.813  0.00  0.00    +0.000 C 
ATOM     14  C   UNL     1      -0.210 -16.679  -1.837  0.00  0.00    +0.000 C 
ATOM     15  C   UNL     1      -2.902 -16.151  -2.239  0.00  0.00    +0.000 C 
ATOM     16  C   UNL     1      -2.784 -17.379  -1.560  0.00  0.00    +0.000 C 
ATOM     17  C   UNL     1      -1.380 -17.465  -1.465  0.00  0.00    +0.000 C 
ATOM     18  C   UNL     1      -0.557 -15.516  -2.753  0.00  0.00    +0.000 C 
ATOM     19  C   UNL     1      -2.219 -13.781  -2.029  0.00  0.00    +0.000 C 
ATOM     20  C   UNL     1      -2.453 -14.905  -4.302  0.00  0.00    +0.000 C 
ATOM     21  C   UNL     1       0.552 -16.191  -0.600  0.00  0.00    +0.000 C 
BRANCH  14  22
ATOM     22  O   UNL     1       0.690 -17.538  -2.501  0.00  0.00    +0.000 OA
ATOM     23  H   UNL     1       1.115 -16.926  -3.129  0.00  0.00    +0.000 HD
ENDBRANCH  14  22
BRANCH  16  24
ATOM     24  O   UNL     1      -3.580 -17.615  -0.447  0.00  0.00    +0.000 OA
BRANCH  24  26
ATOM     25  O   UNL     1      -2.131 -17.487   1.394  0.00  0.00    +0.000 OA
ATOM     26  C   UNL     1      -2.820 -18.073   0.579  0.00  0.00    +0.000 C 
ATOM     27  C   UNL     1      -2.819 -19.554   0.723  0.00  0.00    +0.000 C 
ENDBRANCH  24  26
ENDBRANCH  16  24
ENDBRANCH  11  18
ENDBRANCH   9  12
ENDBRANCH   8   9
ENDBRANCH   6   8
ENDBRANCH   4   7
ENDBRANCH   3   4
ENDBRANCH   2   3
BRANCH   1  28
ATOM     28  C   UNL     1       0.691 -16.531 -13.678  0.00  0.00    +0.000 C 
BRANCH  28  29
ATOM     29  C   UNL     1      -0.099 -16.733 -14.685  0.00  0.00    +0.000 C 
ATOM     30  C   UNL     1       0.376 -17.528 -15.863  0.00  0.00    +0.000 C 
BRANCH  29  32
ATOM     31  C   UNL     1      -2.494 -15.680 -14.695  0.00  0.00    +0.000 C 
ATOM     32  C   UNL     1      -1.397 -16.169 -14.685  0.00  0.00    +0.000 C 
BRANCH  31  33
ATOM     33  C   UNL     1      -3.890 -15.046 -14.718  0.00  0.00    +0.000 C 
BRANCH  33  34
ATOM     34  C   UNL     1      -5.077 -14.516 -14.741  0.00  0.00    +0.000 C 
ATOM     35  C   UNL     1      -5.217 -13.128 -14.149  0.00  0.00    +0.000 C 
BRANCH  34  37
ATOM     36  O   UNL     1      -7.400 -14.929 -15.118  0.00  0.00    +0.000 OA
ATOM     37  C   UNL     1      -6.238 -15.282 -15.290  0.00  0.00    +0.000 C 
BRANCH  37  38
ATOM     38  C   UNL     1      -6.035 -16.487 -16.060  0.00  0.00    +0.000 C 
BRANCH  38  40
ATOM     39  O   UNL     1      -4.374 -17.839 -17.087  0.00  0.00    +0.000 OA
ATOM     40  C   UNL     1      -5.797 -17.695 -16.826  0.00  0.00    +0.000 C 
ATOM     41  C   UNL     1      -4.934 -18.818 -16.214  0.00  0.00    +0.000 C 
ATOM     42  C   UNL     1      -6.767 -18.067 -18.004  0.00  0.00    +0.000 C 
ATOM     43  C   UNL     1      -5.008 -20.106 -16.826  0.00  0.00    +0.000 C 
ATOM     44  C   UNL     1      -6.466 -19.449 -18.385  0.00  0.00    +0.000 C 
ATOM     45  C   UNL     1      -5.718 -20.560 -17.952  0.00  0.00    +0.000 C 
ATOM     46  C   UNL     1      -4.372 -18.755 -14.791  0.00  0.00    +0.000 C 
ATOM     47  C   UNL     1      -8.195 -17.948 -17.418  0.00  0.00    +0.000 C 
ATOM     48  C   UNL     1      -6.498 -17.033 -19.119  0.00  0.00    +0.000 C 
BRANCH  45  49
ATOM     49  O   UNL     1      -6.203 -21.828 -18.053  0.00  0.00    +0.000 OA
ATOM     50  H   UNL     1      -5.793 -22.436 -17.413  0.00  0.00    +0.000 HD
ENDBRANCH  45  49
ENDBRANCH  38  40
ENDBRANCH  37  38
ENDBRANCH  34  37
ENDBRANCH  33  34
ENDBRANCH  31  33
ENDBRANCH  29  32
ENDBRANCH  28  29
ENDBRANCH   1  28
TORSDOF 19
ENDMDL
MODEL 5
REMARK VINA RESULT:      -5.3     20.390     24.325
REMARK  Name = 5281239_Fucoxanthin.pdbqt.pdb
REMARK  19 active torsions:
REMARK  status: ('A' for Active; 'I' for Inactive)
REMARK    1  A    between atoms: C_1  and  C_5
REMARK    2  A    between atoms: C_2  and  C_26
REMARK    3  A    between atoms: C_3  and  C_5
REMARK    4  A    between atoms: C_3  and  C_7
REMARK    5  A    between atoms: C_6  and  C_10
REMARK    6  A    between atoms: C_8  and  C_10
REMARK    7  A    between atoms: C_8  and  C_12
REMARK    8  A    between atoms: C_12  and  C_13
REMARK    9  A    between atoms: C_13  and  C_15
REMARK   10  A    between atoms: C_20  and  O_24
REMARK   11  A    between atoms: C_26  and  C_27
REMARK   12  A    between atoms: C_27  and  C_30
REMARK   13  A    between atoms: C_29  and  C_33
REMARK   14  A    between atoms: C_31  and  C_33
REMARK   15  A    between atoms: C_31  and  C_44
REMARK   16  A    between atoms: C_35  and  O_45
REMARK   17  A    between atoms: C_37  and  O_47
REMARK   18  A    between atoms: C_39  and  C_43
REMARK   19  A    between atoms: O_47  and  C_49
REMARK                            x       y       z     vdW  Elec       q    Type
REMARK                         _______ _______ _______ _____ _____    ______ ____
ROOT
ATOM      1  C   UNL     1      -3.241 -36.258  -2.761  0.00  0.00    +0.000 C 
ATOM      2  C   UNL     1      -3.481 -35.708  -3.800  0.00  0.00    +0.000 C 
ENDROOT
BRANCH   2   3
ATOM      3  C   UNL     1      -3.791 -35.012  -5.130  0.00  0.00    +0.000 C 
BRANCH   3   4
ATOM      4  C   UNL     1      -4.050 -34.421  -6.254  0.00  0.00    +0.000 C 
ATOM      5  C   UNL     1      -5.300 -33.608  -6.401  0.00  0.00    +0.000 C 
BRANCH   4   7
ATOM      6  C   UNL     1      -2.340 -34.572  -8.229  0.00  0.00    +0.000 C 
ATOM      7  C   UNL     1      -3.126 -34.503  -7.324  0.00  0.00    +0.000 C 
BRANCH   6   8
ATOM      8  C   UNL     1      -1.334 -34.663  -9.382  0.00  0.00    +0.000 C 
BRANCH   8   9
ATOM      9  C   UNL     1      -0.476 -34.744 -10.351  0.00  0.00    +0.000 C 
ATOM     10  C   UNL     1      -0.325 -36.022 -11.118  0.00  0.00    +0.000 C 
BRANCH   9  12
ATOM     11  C   UNL     1       1.151 -32.746 -10.827  0.00  0.00    +0.000 C 
ATOM     12  C   UNL     1       0.402 -33.661 -10.607  0.00  0.00    +0.000 C 
BRANCH  11  18
ATOM     13  C   UNL     1       2.047 -31.043 -12.432  0.00  0.00    +0.000 C 
ATOM     14  C   UNL     1       2.947 -31.259 -10.001  0.00  0.00    +0.000 C 
ATOM     15  C   UNL     1       2.809 -29.790 -12.348  0.00  0.00    +0.000 C 
ATOM     16  C   UNL     1       3.579 -29.069 -11.415  0.00  0.00    +0.000 C 
ATOM     17  C   UNL     1       3.521 -29.957 -10.322  0.00  0.00    +0.000 C 
ATOM     18  C   UNL     1       1.974 -31.744 -11.064  0.00  0.00    +0.000 C 
ATOM     19  C   UNL     1       2.721 -32.007 -13.445  0.00  0.00    +0.000 C 
ATOM     20  C   UNL     1       0.602 -30.701 -12.907  0.00  0.00    +0.000 C 
ATOM     21  C   UNL     1       4.039 -32.302  -9.743  0.00  0.00    +0.000 C 
BRANCH  14  22
ATOM     22  O   UNL     1       2.266 -31.136  -8.772  0.00  0.00    +0.000 OA
ATOM     23  H   UNL     1       1.516 -31.744  -8.905  0.00  0.00    +0.000 HD
ENDBRANCH  14  22
BRANCH  16  24
ATOM     24  O   UNL     1       4.792 -28.526 -11.816  0.00  0.00    +0.000 OA
BRANCH  24  26
ATOM     25  O   UNL     1       4.081 -26.431 -12.598  0.00  0.00    +0.000 OA
ATOM     26  C   UNL     1       4.703 -27.173 -11.860  0.00  0.00    +0.000 C 
ATOM     27  C   UNL     1       5.518 -26.475 -10.829  0.00  0.00    +0.000 C 
ENDBRANCH  24  26
ENDBRANCH  16  24
ENDBRANCH  11  18
ENDBRANCH   9  12
ENDBRANCH   8   9
ENDBRANCH   6   8
ENDBRANCH   4   7
ENDBRANCH   3   4
ENDBRANCH   2   3
BRANCH   1  28
ATOM     28  C   UNL     1      -2.940 -36.969  -1.436  0.00  0.00    +0.000 C 
BRANCH  28  29
ATOM     29  C   UNL     1      -2.684 -37.579  -0.323  0.00  0.00    +0.000 C 
ATOM     30  C   UNL     1      -1.588 -38.599  -0.262  0.00  0.00    +0.000 C 
BRANCH  29  32
ATOM     31  C   UNL     1      -4.141 -37.085   1.794  0.00  0.00    +0.000 C 
ATOM     32  C   UNL     1      -3.466 -37.308   0.825  0.00  0.00    +0.000 C 
BRANCH  31  33
ATOM     33  C   UNL     1      -5.014 -36.809   3.023  0.00  0.00    +0.000 C 
BRANCH  33  34
ATOM     34  C   UNL     1      -5.750 -36.580   4.070  0.00  0.00    +0.000 C 
ATOM     35  C   UNL     1      -5.538 -35.258   4.778  0.00  0.00    +0.000 C 
BRANCH  34  37
ATOM     36  O   UNL     1      -7.715 -37.324   5.208  0.00  0.00    +0.000 OA
ATOM     37  C   UNL     1      -6.717 -37.613   4.556  0.00  0.00    +0.000 C 
BRANCH  37  38
ATOM     38  C   UNL     1      -6.514 -39.013   4.269  0.00  0.00    +0.000 C 
BRANCH  38  40
ATOM     39  O   UNL     1      -5.881 -41.110   5.189  0.00  0.00    +0.000 OA
ATOM     40  C   UNL     1      -6.343 -40.426   3.991  0.00  0.00    +0.000 C 
ATOM     41  C   UNL     1      -7.198 -41.455   4.762  0.00  0.00    +0.000 C 
ATOM     42  C   UNL     1      -5.693 -40.875   2.633  0.00  0.00    +0.000 C 
ATOM     43  C   UNL     1      -7.262 -42.778   4.231  0.00  0.00    +0.000 C 
ATOM     44  C   UNL     1      -5.922 -42.316   2.506  0.00  0.00    +0.000 C 
ATOM     45  C   UNL     1      -6.640 -43.363   3.114  0.00  0.00    +0.000 C 
ATOM     46  C   UNL     1      -8.286 -41.052   5.761  0.00  0.00    +0.000 C 
ATOM     47  C   UNL     1      -6.449 -40.090   1.534  0.00  0.00    +0.000 C 
ATOM     48  C   UNL     1      -4.203 -40.478   2.724  0.00  0.00    +0.000 C 
BRANCH  45  49
ATOM     49  O   UNL     1      -7.226 -44.346   2.375  0.00  0.00    +0.000 OA
ATOM     50  H   UNL     1      -7.255 -45.198   2.847  0.00  0.00    +0.000 HD
ENDBRANCH  45  49
ENDBRANCH  38  40
ENDBRANCH  37  38
ENDBRANCH  34  37
ENDBRANCH  33  34
ENDBRANCH  31  33
ENDBRANCH  29  32
ENDBRANCH  28  29
ENDBRANCH   1  28
TORSDOF 19
ENDMDL
MODEL 6
REMARK VINA RESULT:      -5.2     19.696     23.053
REMARK  Name = 5281239_Fucoxanthin.pdbqt.pdb
REMARK  19 active torsions:
REMARK  status: ('A' for Active; 'I' for Inactive)
REMARK    1  A    between atoms: C_1  and  C_5
REMARK    2  A    between atoms: C_2  and  C_26
REMARK    3  A    between atoms: C_3  and  C_5
REMARK    4  A    between atoms: C_3  and  C_7
REMARK    5  A    between atoms: C_6  and  C_10
REMARK    6  A    between atoms: C_8  and  C_10
REMARK    7  A    between atoms: C_8  and  C_12
REMARK    8  A    between atoms: C_12  and  C_13
REMARK    9  A    between atoms: C_13  and  C_15
REMARK   10  A    between atoms: C_20  and  O_24
REMARK   11  A    between atoms: C_26  and  C_27
REMARK   12  A    between atoms: C_27  and  C_30
REMARK   13  A    between atoms: C_29  and  C_33
REMARK   14  A    between atoms: C_31  and  C_33
REMARK   15  A    between atoms: C_31  and  C_44
REMARK   16  A    between atoms: C_35  and  O_45
REMARK   17  A    between atoms: C_37  and  O_47
REMARK   18  A    between atoms: C_39  and  C_43
REMARK   19  A    between atoms: O_47  and  C_49
REMARK                            x       y       z     vdW  Elec       q    Type
REMARK                         _______ _______ _______ _____ _____    ______ ____
ROOT
ATOM      1  C   UNL     1      -5.206 -36.372   4.178  0.00  0.00    +0.000 C 
ATOM      2  C   UNL     1      -4.862 -37.248   3.435  0.00  0.00    +0.000 C 
ENDROOT
BRANCH   2   3
ATOM      3  C   UNL     1      -4.425 -38.365   2.478  0.00  0.00    +0.000 C 
BRANCH   3   4
ATOM      4  C   UNL     1      -4.060 -39.309   1.669  0.00  0.00    +0.000 C 
ATOM      5  C   UNL     1      -3.375 -40.529   2.204  0.00  0.00    +0.000 C 
BRANCH   4   7
ATOM      6  C   UNL     1      -4.606 -39.124  -0.883  0.00  0.00    +0.000 C 
ATOM      7  C   UNL     1      -4.354 -39.208   0.288  0.00  0.00    +0.000 C 
BRANCH   6   8
ATOM      8  C   UNL     1      -4.932 -39.018  -2.377  0.00  0.00    +0.000 C 
BRANCH   8   9
ATOM      9  C   UNL     1      -5.215 -38.921  -3.639  0.00  0.00    +0.000 C 
ATOM     10  C   UNL     1      -5.588 -40.141  -4.424  0.00  0.00    +0.000 C 
BRANCH   9  12
ATOM     11  C   UNL     1      -4.921 -36.622  -4.861  0.00  0.00    +0.000 C 
ATOM     12  C   UNL     1      -5.059 -37.678  -4.302  0.00  0.00    +0.000 C 
BRANCH  11  18
ATOM     13  C   UNL     1      -5.967 -34.568  -5.843  0.00  0.00    +0.000 C 
ATOM     14  C   UNL     1      -3.397 -34.967  -5.891  0.00  0.00    +0.000 C 
ATOM     15  C   UNL     1      -5.524 -33.222  -6.231  0.00  0.00    +0.000 C 
ATOM     16  C   UNL     1      -4.327 -32.516  -6.458  0.00  0.00    +0.000 C 
ATOM     17  C   UNL     1      -3.395 -33.550  -6.232  0.00  0.00    +0.000 C 
ATOM     18  C   UNL     1      -4.772 -35.462  -5.470  0.00  0.00    +0.000 C 
ATOM     19  C   UNL     1      -6.734 -35.233  -7.018  0.00  0.00    +0.000 C 
ATOM     20  C   UNL     1      -6.908 -34.431  -4.607  0.00  0.00    +0.000 C 
ATOM     21  C   UNL     1      -2.837 -35.818  -7.035  0.00  0.00    +0.000 C 
BRANCH  14  22
ATOM     22  O   UNL     1      -2.493 -35.152  -4.824  0.00  0.00    +0.000 OA
ATOM     23  H   UNL     1      -2.606 -36.102  -4.637  0.00  0.00    +0.000 HD
ENDBRANCH  14  22
BRANCH  16  24
ATOM     24  O   UNL     1      -4.221 -31.706  -7.581  0.00  0.00    +0.000 OA
BRANCH  24  26
ATOM     25  O   UNL     1      -4.400 -33.312  -9.282  0.00  0.00    +0.000 OA
ATOM     26  C   UNL     1      -3.828 -32.444  -8.649  0.00  0.00    +0.000 C 
ATOM     27  C   UNL     1      -2.449 -32.145  -9.120  0.00  0.00    +0.000 C 
ENDBRANCH  24  26
ENDBRANCH  16  24
ENDBRANCH  11  18
ENDBRANCH   9  12
ENDBRANCH   8   9
ENDBRANCH   6   8
ENDBRANCH   4   7
ENDBRANCH   3   4
ENDBRANCH   2   3
BRANCH   1  28
ATOM     28  C   UNL     1      -5.649 -35.247   5.121  0.00  0.00    +0.000 C 
BRANCH  28  29
ATOM     29  C   UNL     1      -6.033 -34.295   5.911  0.00  0.00    +0.000 C 
ATOM     30  C   UNL     1      -7.421 -33.741   5.799  0.00  0.00    +0.000 C 
BRANCH  29  32
ATOM     31  C   UNL     1      -4.357 -33.285   7.648  0.00  0.00    +0.000 C 
ATOM     32  C   UNL     1      -5.127 -33.756   6.855  0.00  0.00    +0.000 C 
BRANCH  31  33
ATOM     33  C   UNL     1      -3.373 -32.672   8.652  0.00  0.00    +0.000 C 
BRANCH  33  34
ATOM     34  C   UNL     1      -2.534 -32.149   9.496  0.00  0.00    +0.000 C 
ATOM     35  C   UNL     1      -1.156 -31.808   8.965  0.00  0.00    +0.000 C 
BRANCH  34  37
ATOM     36  O   UNL     1      -2.365 -32.538  11.847  0.00  0.00    +0.000 OA
ATOM     37  C   UNL     1      -2.923 -31.951  10.926  0.00  0.00    +0.000 C 
BRANCH  37  38
ATOM     38  C   UNL     1      -3.985 -31.043  11.287  0.00  0.00    +0.000 C 
BRANCH  38  40
ATOM     39  O   UNL     1      -5.047 -29.977  13.126  0.00  0.00    +0.000 OA
ATOM     40  C   UNL     1      -5.056 -30.147  11.681  0.00  0.00    +0.000 C 
ATOM     41  C   UNL     1      -4.705 -28.813  12.375  0.00  0.00    +0.000 C 
ATOM     42  C   UNL     1      -6.464 -30.277  10.999  0.00  0.00    +0.000 C 
ATOM     43  C   UNL     1      -5.727 -27.818  12.429  0.00  0.00    +0.000 C 
ATOM     44  C   UNL     1      -7.229 -29.083  11.366  0.00  0.00    +0.000 C 
ATOM     45  C   UNL     1      -7.061 -27.831  11.988  0.00  0.00    +0.000 C 
ATOM     46  C   UNL     1      -3.265 -28.346  12.602  0.00  0.00    +0.000 C 
ATOM     47  C   UNL     1      -6.184 -30.315   9.477  0.00  0.00    +0.000 C 
ATOM     48  C   UNL     1      -7.069 -31.599  11.522  0.00  0.00    +0.000 C 
BRANCH  45  49
ATOM     49  O   UNL     1      -7.696 -26.717  11.527  0.00  0.00    +0.000 OA
ATOM     50  H   UNL     1      -7.711 -25.999  12.184  0.00  0.00    +0.000 HD
ENDBRANCH  45  49
ENDBRANCH  38  40
ENDBRANCH  37  38
ENDBRANCH  34  37
ENDBRANCH  33  34
ENDBRANCH  31  33
ENDBRANCH  29  32
ENDBRANCH  28  29
ENDBRANCH   1  28
TORSDOF 19
ENDMDL
MODEL 7
REMARK VINA RESULT:      -5.2     11.260     19.778
REMARK  Name = 5281239_Fucoxanthin.pdbqt.pdb
REMARK  19 active torsions:
REMARK  status: ('A' for Active; 'I' for Inactive)
REMARK    1  A    between atoms: C_1  and  C_5
REMARK    2  A    between atoms: C_2  and  C_26
REMARK    3  A    between atoms: C_3  and  C_5
REMARK    4  A    between atoms: C_3  and  C_7
REMARK    5  A    between atoms: C_6  and  C_10
REMARK    6  A    between atoms: C_8  and  C_10
REMARK    7  A    between atoms: C_8  and  C_12
REMARK    8  A    between atoms: C_12  and  C_13
REMARK    9  A    between atoms: C_13  and  C_15
REMARK   10  A    between atoms: C_20  and  O_24
REMARK   11  A    between atoms: C_26  and  C_27
REMARK   12  A    between atoms: C_27  and  C_30
REMARK   13  A    between atoms: C_29  and  C_33
REMARK   14  A    between atoms: C_31  and  C_33
REMARK   15  A    between atoms: C_31  and  C_44
REMARK   16  A    between atoms: C_35  and  O_45
REMARK   17  A    between atoms: C_37  and  O_47
REMARK   18  A    between atoms: C_39  and  C_43
REMARK   19  A    between atoms: O_47  and  C_49
REMARK                            x       y       z     vdW  Elec       q    Type
REMARK                         _______ _______ _______ _____ _____    ______ ____
ROOT
ATOM      1  C   UNL     1     -11.098 -26.378   5.869  0.00  0.00    +0.000 C 
ATOM      2  C   UNL     1     -11.744 -25.399   5.616  0.00  0.00    +0.000 C 
ENDROOT
BRANCH   2   3
ATOM      3  C   UNL     1     -12.566 -24.147   5.286  0.00  0.00    +0.000 C 
BRANCH   3   4
ATOM      4  C   UNL     1     -13.258 -23.089   5.004  0.00  0.00    +0.000 C 
ATOM      5  C   UNL     1     -13.266 -21.926   5.949  0.00  0.00    +0.000 C 
BRANCH   4   7
ATOM      6  C   UNL     1     -14.561 -22.950   2.739  0.00  0.00    +0.000 C 
ATOM      7  C   UNL     1     -13.965 -23.013   3.780  0.00  0.00    +0.000 C 
BRANCH   6   8
ATOM      8  C   UNL     1     -15.320 -22.873   1.410  0.00  0.00    +0.000 C 
BRANCH   8   9
ATOM      9  C   UNL     1     -15.970 -22.813   0.289  0.00  0.00    +0.000 C 
ATOM     10  C   UNL     1     -16.545 -24.056  -0.316  0.00  0.00    +0.000 C 
BRANCH   9  12
ATOM     11  C   UNL     1     -16.096 -20.552  -1.029  0.00  0.00    +0.000 C 
ATOM     12  C   UNL     1     -16.037 -21.588  -0.421  0.00  0.00    +0.000 C 
BRANCH  11  18
ATOM     13  C   UNL     1     -14.991 -18.414  -1.727  0.00  0.00    +0.000 C 
ATOM     14  C   UNL     1     -17.421 -19.010  -2.439  0.00  0.00    +0.000 C 
ATOM     15  C   UNL     1     -15.191 -17.396  -2.767  0.00  0.00    +0.000 C 
ATOM     16  C   UNL     1     -16.173 -16.994  -3.693  0.00  0.00    +0.000 C 
ATOM     17  C   UNL     1     -17.190 -17.918  -3.377  0.00  0.00    +0.000 C 
ATOM     18  C   UNL     1     -16.158 -19.418  -1.698  0.00  0.00    +0.000 C 
ATOM     19  C   UNL     1     -14.887 -17.737  -0.334  0.00  0.00    +0.000 C 
ATOM     20  C   UNL     1     -13.669 -19.178  -2.045  0.00  0.00    +0.000 C 
ATOM     21  C   UNL     1     -18.546 -18.673  -1.456  0.00  0.00    +0.000 C 
BRANCH  14  22
ATOM     22  O   UNL     1     -17.901 -20.113  -3.176  0.00  0.00    +0.000 OA
ATOM     23  H   UNL     1     -17.989 -20.788  -2.478  0.00  0.00    +0.000 HD
ENDBRANCH  14  22
BRANCH  16  24
ATOM     24  O   UNL     1     -16.466 -15.643  -3.825  0.00  0.00    +0.000 OA
BRANCH  24  26
ATOM     25  O   UNL     1     -16.719 -15.909  -6.143  0.00  0.00    +0.000 OA
ATOM     26  C   UNL     1     -16.438 -15.288  -5.134  0.00  0.00    +0.000 C 
ATOM     27  C   UNL     1     -15.969 -13.897  -5.378  0.00  0.00    +0.000 C 
ENDBRANCH  24  26
ENDBRANCH  16  24
ENDBRANCH  11  18
ENDBRANCH   9  12
ENDBRANCH   8   9
ENDBRANCH   6   8
ENDBRANCH   4   7
ENDBRANCH   3   4
ENDBRANCH   2   3
BRANCH   1  28
ATOM     28  C   UNL     1     -10.270 -27.630   6.182  0.00  0.00    +0.000 C 
BRANCH  28  29
ATOM     29  C   UNL     1      -9.573 -28.686   6.458  0.00  0.00    +0.000 C 
ATOM     30  C   UNL     1      -9.410 -29.765   5.432  0.00  0.00    +0.000 C 
BRANCH  29  32
ATOM     31  C   UNL     1      -8.510 -28.974   8.832  0.00  0.00    +0.000 C 
ATOM     32  C   UNL     1      -8.998 -28.834   7.743  0.00  0.00    +0.000 C 
BRANCH  31  33
ATOM     33  C   UNL     1      -7.888 -29.169  10.219  0.00  0.00    +0.000 C 
BRANCH  33  34
ATOM     34  C   UNL     1      -7.358 -29.325  11.396  0.00  0.00    +0.000 C 
ATOM     35  C   UNL     1      -7.108 -28.068  12.205  0.00  0.00    +0.000 C 
BRANCH  34  37
ATOM     36  O   UNL     1      -7.558 -31.239  12.813  0.00  0.00    +0.000 OA
ATOM     37  C   UNL     1      -6.980 -30.688  11.881  0.00  0.00    +0.000 C 
BRANCH  37  38
ATOM     38  C   UNL     1      -5.905 -31.426  11.261  0.00  0.00    +0.000 C 
BRANCH  38  40
ATOM     39  O   UNL     1      -5.053 -33.603  10.842  0.00  0.00    +0.000 OA
ATOM     40  C   UNL     1      -4.848 -32.181  10.617  0.00  0.00    +0.000 C 
ATOM     41  C   UNL     1      -5.209 -33.173   9.491  0.00  0.00    +0.000 C 
ATOM     42  C   UNL     1      -3.367 -31.664  10.699  0.00  0.00    +0.000 C 
ATOM     43  C   UNL     1      -4.145 -33.627   8.655  0.00  0.00    +0.000 C 
ATOM     44  C   UNL     1      -2.589 -32.441   9.731  0.00  0.00    +0.000 C 
ATOM     45  C   UNL     1      -2.764 -33.364   8.682  0.00  0.00    +0.000 C 
ATOM     46  C   UNL     1      -6.635 -33.347   8.959  0.00  0.00    +0.000 C 
ATOM     47  C   UNL     1      -3.427 -30.171  10.298  0.00  0.00    +0.000 C 
ATOM     48  C   UNL     1      -2.928 -31.865  12.167  0.00  0.00    +0.000 C 
BRANCH  45  49
ATOM     49  O   UNL     1      -2.001 -33.313   7.555  0.00  0.00    +0.000 OA
ATOM     50  H   UNL     1      -2.412 -32.779   6.852  0.00  0.00    +0.000 HD
ENDBRANCH  45  49
ENDBRANCH  38  40
ENDBRANCH  37  38
ENDBRANCH  34  37
ENDBRANCH  33  34
ENDBRANCH  31  33
ENDBRANCH  29  32
ENDBRANCH  28  29
ENDBRANCH   1  28
TORSDOF 19
ENDMDL
MODEL 8
REMARK VINA RESULT:      -5.0     10.652     16.600
REMARK  Name = 5281239_Fucoxanthin.pdbqt.pdb
REMARK  19 active torsions:
REMARK  status: ('A' for Active; 'I' for Inactive)
REMARK    1  A    between atoms: C_1  and  C_5
REMARK    2  A    between atoms: C_2  and  C_26
REMARK    3  A    between atoms: C_3  and  C_5
REMARK    4  A    between atoms: C_3  and  C_7
REMARK    5  A    between atoms: C_6  and  C_10
REMARK    6  A    between atoms: C_8  and  C_10
REMARK    7  A    between atoms: C_8  and  C_12
REMARK    8  A    between atoms: C_12  and  C_13
REMARK    9  A    between atoms: C_13  and  C_15
REMARK   10  A    between atoms: C_20  and  O_24
REMARK   11  A    between atoms: C_26  and  C_27
REMARK   12  A    between atoms: C_27  and  C_30
REMARK   13  A    between atoms: C_29  and  C_33
REMARK   14  A    between atoms: C_31  and  C_33
REMARK   15  A    between atoms: C_31  and  C_44
REMARK   16  A    between atoms: C_35  and  O_45
REMARK   17  A    between atoms: C_37  and  O_47
REMARK   18  A    between atoms: C_39  and  C_43
REMARK   19  A    between atoms: O_47  and  C_49
REMARK                            x       y       z     vdW  Elec       q    Type
REMARK                         _______ _______ _______ _____ _____    ______ ____
ROOT
ATOM      1  C   UNL     1     -14.215 -25.948   3.062  0.00  0.00    +0.000 C 
ATOM      2  C   UNL     1     -14.178 -24.755   2.941  0.00  0.00    +0.000 C 
ENDROOT
BRANCH   2   3
ATOM      3  C   UNL     1     -14.138 -23.230   2.790  0.00  0.00    +0.000 C 
BRANCH   3   4
ATOM      4  C   UNL     1     -14.107 -21.940   2.665  0.00  0.00    +0.000 C 
ATOM      5  C   UNL     1     -15.235 -21.227   1.983  0.00  0.00    +0.000 C 
BRANCH   4   7
ATOM      6  C   UNL     1     -12.119 -20.580   3.688  0.00  0.00    +0.000 C 
ATOM      7  C   UNL     1     -13.032 -21.203   3.218  0.00  0.00    +0.000 C 
BRANCH   6   8
ATOM      8  C   UNL     1     -10.952 -19.790   4.289  0.00  0.00    +0.000 C 
BRANCH   8   9
ATOM      9  C   UNL     1      -9.967 -19.123   4.807  0.00  0.00    +0.000 C 
ATOM     10  C   UNL     1      -9.479 -19.449   6.185  0.00  0.00    +0.000 C 
BRANCH   9  12
ATOM     11  C   UNL     1      -8.967 -17.069   3.525  0.00  0.00    +0.000 C 
ATOM     12  C   UNL     1      -9.429 -18.010   4.114  0.00  0.00    +0.000 C 
BRANCH  11  18
ATOM     13  C   UNL     1      -6.945 -15.876   2.648  0.00  0.00    +0.000 C 
ATOM     14  C   UNL     1      -9.345 -14.907   2.382  0.00  0.00    +0.000 C 
ATOM     15  C   UNL     1      -6.668 -14.820   1.665  0.00  0.00    +0.000 C 
ATOM     16  C   UNL     1      -7.358 -13.836   0.932  0.00  0.00    +0.000 C 
ATOM     17  C   UNL     1      -8.664 -14.046   1.422  0.00  0.00    +0.000 C 
ATOM     18  C   UNL     1      -8.458 -16.036   2.882  0.00  0.00    +0.000 C 
ATOM     19  C   UNL     1      -6.269 -15.532   4.002  0.00  0.00    +0.000 C 
ATOM     20  C   UNL     1      -6.371 -17.216   2.095  0.00  0.00    +0.000 C 
ATOM     21  C   UNL     1      -9.912 -14.099   3.552  0.00  0.00    +0.000 C 
BRANCH  14  22
ATOM     22  O   UNL     1     -10.473 -15.456   1.738  0.00  0.00    +0.000 OA
ATOM     23  H   UNL     1     -10.063 -16.142   1.180  0.00  0.00    +0.000 HD
ENDBRANCH  14  22
BRANCH  16  24
ATOM     24  O   UNL     1      -6.832 -12.553   0.860  0.00  0.00    +0.000 OA
BRANCH  24  26
ATOM     25  O   UNL     1      -7.759 -11.195  -0.814  0.00  0.00    +0.000 OA
ATOM     26  C   UNL     1      -7.005 -12.050  -0.388  0.00  0.00    +0.000 C 
ATOM     27  C   UNL     1      -6.123 -12.663  -1.418  0.00  0.00    +0.000 C 
ENDBRANCH  24  26
ENDBRANCH  16  24
ENDBRANCH  11  18
ENDBRANCH   9  12
ENDBRANCH   8   9
ENDBRANCH   6   8
ENDBRANCH   4   7
ENDBRANCH   3   4
ENDBRANCH   2   3
BRANCH   1  28
ATOM     28  C   UNL     1     -14.271 -27.472   3.222  0.00  0.00    +0.000 C 
BRANCH  28  29
ATOM     29  C   UNL     1     -14.326 -28.758   3.366  0.00  0.00    +0.000 C 
ATOM     30  C   UNL     1     -15.644 -29.466   3.284  0.00  0.00    +0.000 C 
BRANCH  29  32
ATOM     31  C   UNL     1     -12.145 -30.107   3.883  0.00  0.00    +0.000 C 
ATOM     32  C   UNL     1     -13.143 -29.486   3.638  0.00  0.00    +0.000 C 
BRANCH  31  33
ATOM     33  C   UNL     1     -10.874 -30.900   4.211  0.00  0.00    +0.000 C 
BRANCH  33  34
ATOM     34  C   UNL     1      -9.801 -31.577   4.496  0.00  0.00    +0.000 C 
ATOM     35  C   UNL     1      -8.751 -31.681   3.409  0.00  0.00    +0.000 C 
BRANCH  34  37
ATOM     36  O   UNL     1     -10.630 -32.628   6.476  0.00  0.00    +0.000 OA
ATOM     37  C   UNL     1      -9.661 -32.250   5.824  0.00  0.00    +0.000 C 
BRANCH  37  38
ATOM     38  C   UNL     1      -8.360 -32.488   6.403  0.00  0.00    +0.000 C 
BRANCH  38  40
ATOM     39  O   UNL     1      -6.148 -31.663   6.664  0.00  0.00    +0.000 OA
ATOM     40  C   UNL     1      -7.068 -32.733   7.014  0.00  0.00    +0.000 C 
ATOM     41  C   UNL     1      -6.516 -31.721   8.040  0.00  0.00    +0.000 C 
ATOM     42  C   UNL     1      -6.480 -34.189   7.022  0.00  0.00    +0.000 C 
ATOM     43  C   UNL     1      -5.437 -32.154   8.868  0.00  0.00    +0.000 C 
ATOM     44  C   UNL     1      -5.343 -34.186   7.946  0.00  0.00    +0.000 C 
ATOM     45  C   UNL     1      -4.723 -33.364   8.907  0.00  0.00    +0.000 C 
ATOM     46  C   UNL     1      -7.305 -30.496   8.510  0.00  0.00    +0.000 C 
ATOM     47  C   UNL     1      -7.622 -35.093   7.547  0.00  0.00    +0.000 C 
ATOM     48  C   UNL     1      -6.102 -34.503   5.558  0.00  0.00    +0.000 C 
BRANCH  45  49
ATOM     49  O   UNL     1      -4.209 -33.880  10.058  0.00  0.00    +0.000 OA
ATOM     50  H   UNL     1      -3.603 -33.262  10.504  0.00  0.00    +0.000 HD
ENDBRANCH  45  49
ENDBRANCH  38  40
ENDBRANCH  37  38
ENDBRANCH  34  37
ENDBRANCH  33  34
ENDBRANCH  31  33
ENDBRANCH  29  32
ENDBRANCH  28  29
ENDBRANCH   1  28
TORSDOF 19
ENDMDL
MODEL 9
REMARK VINA RESULT:      -4.9     21.681     26.671
REMARK  Name = 5281239_Fucoxanthin.pdbqt.pdb
REMARK  19 active torsions:
REMARK  status: ('A' for Active; 'I' for Inactive)
REMARK    1  A    between atoms: C_1  and  C_5
REMARK    2  A    between atoms: C_2  and  C_26
REMARK    3  A    between atoms: C_3  and  C_5
REMARK    4  A    between atoms: C_3  and  C_7
REMARK    5  A    between atoms: C_6  and  C_10
REMARK    6  A    between atoms: C_8  and  C_10
REMARK    7  A    between atoms: C_8  and  C_12
REMARK    8  A    between atoms: C_12  and  C_13
REMARK    9  A    between atoms: C_13  and  C_15
REMARK   10  A    between atoms: C_20  and  O_24
REMARK   11  A    between atoms: C_26  and  C_27
REMARK   12  A    between atoms: C_27  and  C_30
REMARK   13  A    between atoms: C_29  and  C_33
REMARK   14  A    between atoms: C_31  and  C_33
REMARK   15  A    between atoms: C_31  and  C_44
REMARK   16  A    between atoms: C_35  and  O_45
REMARK   17  A    between atoms: C_37  and  O_47
REMARK   18  A    between atoms: C_39  and  C_43
REMARK   19  A    between atoms: O_47  and  C_49
REMARK                            x       y       z     vdW  Elec       q    Type
REMARK                         _______ _______ _______ _____ _____    ______ ____
ROOT
ATOM      1  C   UNL     1      -2.605 -36.691  -3.406  0.00  0.00    +0.000 C 
ATOM      2  C   UNL     1      -2.863 -36.316  -4.516  0.00  0.00    +0.000 C 
ENDROOT
BRANCH   2   3
ATOM      3  C   UNL     1      -3.196 -35.843  -5.936  0.00  0.00    +0.000 C 
BRANCH   3   4
ATOM      4  C   UNL     1      -3.474 -35.440  -7.136  0.00  0.00    +0.000 C 
ATOM      5  C   UNL     1      -4.889 -35.116  -7.507  0.00  0.00    +0.000 C 
BRANCH   4   7
ATOM      6  C   UNL     1      -1.550 -35.102  -8.876  0.00  0.00    +0.000 C 
ATOM      7  C   UNL     1      -2.434 -35.258  -8.079  0.00  0.00    +0.000 C 
BRANCH   6   8
ATOM      8  C   UNL     1      -0.417 -34.906  -9.891  0.00  0.00    +0.000 C 
BRANCH   8   9
ATOM      9  C   UNL     1       0.547 -34.742 -10.742  0.00  0.00    +0.000 C 
ATOM     10  C   UNL     1       1.024 -35.895 -11.571  0.00  0.00    +0.000 C 
BRANCH   9  12
ATOM     11  C   UNL     1       1.811 -32.450 -10.860  0.00  0.00    +0.000 C 
ATOM     12  C   UNL     1       1.228 -33.501 -10.805  0.00  0.00    +0.000 C 
BRANCH  11  18
ATOM     13  C   UNL     1       2.508 -30.450 -12.199  0.00  0.00    +0.000 C 
ATOM     14  C   UNL     1       3.231 -30.774  -9.722  0.00  0.00    +0.000 C 
ATOM     15  C   UNL     1       3.017 -29.100 -11.922  0.00  0.00    +0.000 C 
ATOM     16  C   UNL     1       3.563 -28.365 -10.852  0.00  0.00    +0.000 C 
ATOM     17  C   UNL     1       3.580 -29.365  -9.859  0.00  0.00    +0.000 C 
ATOM     18  C   UNL     1       2.453 -31.301 -10.918  0.00  0.00    +0.000 C 
ATOM     19  C   UNL     1       3.428 -31.163 -13.227  0.00  0.00    +0.000 C 
ATOM     20  C   UNL     1       1.068 -30.314 -12.783  0.00  0.00    +0.000 C 
ATOM     21  C   UNL     1       4.471 -31.633  -9.456  0.00  0.00    +0.000 C 
BRANCH  14  22
ATOM     22  O   UNL     1       2.441 -30.909  -8.561  0.00  0.00    +0.000 OA
ATOM     23  H   UNL     1       3.062 -31.352  -7.955  0.00  0.00    +0.000 HD
ENDBRANCH  14  22
BRANCH  16  24
ATOM     24  O   UNL     1       4.685 -27.577 -11.076  0.00  0.00    +0.000 OA
BRANCH  24  26
ATOM     25  O   UNL     1       6.308 -28.123  -9.473  0.00  0.00    +0.000 OA
ATOM     26  C   UNL     1       5.787 -28.185 -10.571  0.00  0.00    +0.000 C 
ATOM     27  C   UNL     1       6.487 -29.076 -11.536  0.00  0.00    +0.000 C 
ENDBRANCH  24  26
ENDBRANCH  16  24
ENDBRANCH  11  18
ENDBRANCH   9  12
ENDBRANCH   8   9
ENDBRANCH   6   8
ENDBRANCH   4   7
ENDBRANCH   3   4
ENDBRANCH   2   3
BRANCH   1  28
ATOM     28  C   UNL     1      -2.280 -37.180  -1.990  0.00  0.00    +0.000 C 
BRANCH  28  29
ATOM     29  C   UNL     1      -1.996 -37.586  -0.793  0.00  0.00    +0.000 C 
ATOM     30  C   UNL     1      -2.216 -36.678   0.379  0.00  0.00    +0.000 C 
BRANCH  29  32
ATOM     31  C   UNL     1      -0.963 -39.964  -0.446  0.00  0.00    +0.000 C 
ATOM     32  C   UNL     1      -1.442 -38.874  -0.600  0.00  0.00    +0.000 C 
BRANCH  31  33
ATOM     33  C   UNL     1      -0.340 -41.353  -0.262  0.00  0.00    +0.000 C 
BRANCH  33  34
ATOM     34  C   UNL     1       0.195 -42.527  -0.101  0.00  0.00    +0.000 C 
ATOM     35  C   UNL     1       0.135 -43.119   1.293  0.00  0.00    +0.000 C 
BRANCH  34  37
ATOM     36  O   UNL     1       0.966 -44.437  -1.313  0.00  0.00    +0.000 OA
ATOM     37  C   UNL     1       0.870 -43.215  -1.244  0.00  0.00    +0.000 C 
BRANCH  37  38
ATOM     38  C   UNL     1       1.442 -42.459  -2.332  0.00  0.00    +0.000 C 
BRANCH  38  40
ATOM     39  O   UNL     1       3.468 -41.827  -3.399  0.00  0.00    +0.000 OA
ATOM     40  C   UNL     1       2.018 -41.728  -3.445  0.00  0.00    +0.000 C 
ATOM     41  C   UNL     1       2.849 -42.491  -4.499  0.00  0.00    +0.000 C 
ATOM     42  C   UNL     1       1.423 -40.331  -3.844  0.00  0.00    +0.000 C 
ATOM     43  C   UNL     1       3.098 -41.828  -5.738  0.00  0.00    +0.000 C 
ATOM     44  C   UNL     1       1.988 -39.982  -5.149  0.00  0.00    +0.000 C 
ATOM     45  C   UNL     1       2.751 -40.544  -6.192  0.00  0.00    +0.000 C 
ATOM     46  C   UNL     1       3.034 -44.011  -4.472  0.00  0.00    +0.000 C 
ATOM     47  C   UNL     1      -0.108 -40.545  -3.938  0.00  0.00    +0.000 C 
ATOM     48  C   UNL     1       1.815 -39.362  -2.707  0.00  0.00    +0.000 C 
BRANCH  45  49
ATOM     49  O   UNL     1       2.478 -40.272  -7.498  0.00  0.00    +0.000 OA
ATOM     50  H   UNL     1       2.125 -39.374  -7.624  0.00  0.00    +0.000 HD
ENDBRANCH  45  49
ENDBRANCH  38  40
ENDBRANCH  37  38
ENDBRANCH  34  37
ENDBRANCH  33  34
ENDBRANCH  31  33
ENDBRANCH  29  32
ENDBRANCH  28  29
ENDBRANCH   1  28
TORSDOF 19
ENDMDL
