MODEL 1
REMARK VINA RESULT:      -4.4      0.000      0.000
REMARK  Name = 5281416_Esculetin.pdbqt.pdb
REMARK  2 active torsions:
REMARK  status: ('A' for Active; 'I' for Inactive)
REMARK    1  A    between atoms: C_7  and  O_12
REMARK    2  A    between atoms: C_8  and  O_14
REMARK                            x       y       z     vdW  Elec       q    Type
REMARK                         _______ _______ _______ _____ _____    ______ ____
ROOT
ATOM      1  O   UNL     1     -10.303 -31.088  -0.714  0.00  0.00    +0.000 OA
ATOM      2  O   UNL     1     -11.515 -30.302   1.135  0.00  0.00    +0.000 OA
ATOM      3  C   UNL     1      -8.158 -32.257  -0.213  0.00  0.00    +0.000 A 
ATOM      4  C   UNL     1      -9.111 -31.780  -1.155  0.00  0.00    +0.000 A 
ATOM      5  C   UNL     1      -7.014 -32.920  -0.628  0.00  0.00    +0.000 A 
ATOM      6  C   UNL     1      -8.933 -31.960  -2.519  0.00  0.00    +0.000 A 
ATOM      7  C   UNL     1      -6.839 -33.099  -1.998  0.00  0.00    +0.000 A 
ATOM      8  C   UNL     1      -7.782 -32.627  -2.924  0.00  0.00    +0.000 A 
ATOM      9  C   UNL     1      -8.495 -31.989   1.137  0.00  0.00    +0.000 A 
ATOM     10  C   UNL     1      -9.484 -31.416   1.479  0.00  0.00    +0.000 A 
ATOM     11  C   UNL     1     -10.542 -30.873   0.671  0.00  0.00    +0.000 A 
ENDROOT
BRANCH   7  12
ATOM     12  O   UNL     1      -5.734 -33.745  -2.488  0.00  0.00    +0.000 OA
ATOM     13  H   UNL     1      -5.866 -34.703  -2.358  0.00  0.00    +0.000 HD
ENDBRANCH   7  12
BRANCH   8  14
ATOM     14  O   UNL     1      -7.569 -32.825  -4.261  0.00  0.00    +0.000 OA
ATOM     15  H   UNL     1      -8.460 -32.863  -4.661  0.00  0.00    +0.000 HD
ENDBRANCH   8  14
TORSDOF 2
ENDMDL
MODEL 2
REMARK VINA RESULT:      -4.4      1.229      2.260
REMARK  Name = 5281416_Esculetin.pdbqt.pdb
REMARK  2 active torsions:
REMARK  status: ('A' for Active; 'I' for Inactive)
REMARK    1  A    between atoms: C_7  and  O_12
REMARK    2  A    between atoms: C_8  and  O_14
REMARK                            x       y       z     vdW  Elec       q    Type
REMARK                         _______ _______ _______ _____ _____    ______ ____
ROOT
ATOM      1  O   UNL     1      -8.415 -32.271   1.353  0.00  0.00    +0.000 OA
ATOM      2  O   UNL     1      -9.735 -31.359   3.066  0.00  0.00    +0.000 OA
ATOM      3  C   UNL     1      -9.076 -31.688  -0.980  0.00  0.00    +0.000 A 
ATOM      4  C   UNL     1      -8.211 -32.365  -0.076  0.00  0.00    +0.000 A 
ATOM      5  C   UNL     1      -8.886 -31.774  -2.350  0.00  0.00    +0.000 A 
ATOM      6  C   UNL     1      -7.149 -33.135  -0.530  0.00  0.00    +0.000 A 
ATOM      7  C   UNL     1      -7.820 -32.548  -2.802  0.00  0.00    +0.000 A 
ATOM      8  C   UNL     1      -6.968 -33.214  -1.907  0.00  0.00    +0.000 A 
ATOM      9  C   UNL     1     -10.106 -30.949  -0.349  0.00  0.00    +0.000 A 
ATOM     10  C   UNL     1     -10.257 -30.884   0.833  0.00  0.00    +0.000 A 
ATOM     11  C   UNL     1      -9.486 -31.497   1.879  0.00  0.00    +0.000 A 
ENDROOT
BRANCH   7  12
ATOM     12  O   UNL     1      -7.566 -32.683  -4.141  0.00  0.00    +0.000 OA
ATOM     13  H   UNL     1      -6.661 -32.360  -4.308  0.00  0.00    +0.000 HD
ENDBRANCH   7  12
BRANCH   8  14
ATOM     14  O   UNL     1      -5.933 -33.963  -2.395  0.00  0.00    +0.000 OA
ATOM     15  H   UNL     1      -6.349 -34.632  -2.975  0.00  0.00    +0.000 HD
ENDBRANCH   8  14
TORSDOF 2
ENDMDL
MODEL 3
REMARK VINA RESULT:      -4.1     26.165     26.984
REMARK  Name = 5281416_Esculetin.pdbqt.pdb
REMARK  2 active torsions:
REMARK  status: ('A' for Active; 'I' for Inactive)
REMARK    1  A    between atoms: C_7  and  O_12
REMARK    2  A    between atoms: C_8  and  O_14
REMARK                            x       y       z     vdW  Elec       q    Type
REMARK                         _______ _______ _______ _____ _____    ______ ____
ROOT
ATOM      1  O   UNL     1     -14.801  -5.372  -6.293  0.00  0.00    +0.000 OA
ATOM      2  O   UNL     1     -16.644  -4.953  -4.903  0.00  0.00    +0.000 OA
ATOM      3  C   UNL     1     -12.689  -6.048  -5.154  0.00  0.00    +0.000 A 
ATOM      4  C   UNL     1     -13.408  -5.761  -6.346  0.00  0.00    +0.000 A 
ATOM      5  C   UNL     1     -11.355  -6.421  -5.197  0.00  0.00    +0.000 A 
ATOM      6  C   UNL     1     -12.805  -5.842  -7.593  0.00  0.00    +0.000 A 
ATOM      7  C   UNL     1     -10.752  -6.501  -6.450  0.00  0.00    +0.000 A 
ATOM      8  C   UNL     1     -11.466  -6.216  -7.625  0.00  0.00    +0.000 A 
ATOM      9  C   UNL     1     -13.456  -5.917  -3.970  0.00  0.00    +0.000 A 
ATOM     10  C   UNL     1     -14.605  -5.595  -3.948  0.00  0.00    +0.000 A 
ATOM     11  C   UNL     1     -15.475  -5.272  -5.045  0.00  0.00    +0.000 A 
ENDROOT
BRANCH   7  12
ATOM     12  O   UNL     1      -9.437  -6.862  -6.577  0.00  0.00    +0.000 OA
ATOM     13  H   UNL     1      -9.293  -7.663  -6.038  0.00  0.00    +0.000 HD
ENDBRANCH   7  12
BRANCH   8  14
ATOM     14  O   UNL     1     -10.834  -6.308  -8.834  0.00  0.00    +0.000 OA
ATOM     15  H   UNL     1     -10.724  -5.384  -9.139  0.00  0.00    +0.000 HD
ENDBRANCH   8  14
TORSDOF 2
ENDMDL
MODEL 4
REMARK VINA RESULT:      -4.0     19.477     20.801
REMARK  Name = 5281416_Esculetin.pdbqt.pdb
REMARK  2 active torsions:
REMARK  status: ('A' for Active; 'I' for Inactive)
REMARK    1  A    between atoms: C_7  and  O_12
REMARK    2  A    between atoms: C_8  and  O_14
REMARK                            x       y       z     vdW  Elec       q    Type
REMARK                         _______ _______ _______ _____ _____    ______ ____
ROOT
ATOM      1  O   UNL     1      -0.582 -16.514 -13.481  0.00  0.00    +0.000 OA
ATOM      2  O   UNL     1      -1.903 -15.262 -14.961  0.00  0.00    +0.000 OA
ATOM      3  C   UNL     1      -0.001 -18.828 -14.205  0.00  0.00    +0.000 A 
ATOM      4  C   UNL     1       0.076 -17.781 -13.245  0.00  0.00    +0.000 A 
ATOM      5  C   UNL     1       0.627 -20.044 -13.987  0.00  0.00    +0.000 A 
ATOM      6  C   UNL     1       0.779 -17.936 -12.059  0.00  0.00    +0.000 A 
ATOM      7  C   UNL     1       1.331 -20.197 -12.795  0.00  0.00    +0.000 A 
ATOM      8  C   UNL     1       1.405 -19.161 -11.851  0.00  0.00    +0.000 A 
ATOM      9  C   UNL     1      -0.757 -18.502 -15.357  0.00  0.00    +0.000 A 
ATOM     10  C   UNL     1      -1.293 -17.449 -15.532  0.00  0.00    +0.000 A 
ATOM     11  C   UNL     1      -1.318 -16.294 -14.678  0.00  0.00    +0.000 A 
ENDROOT
BRANCH   7  12
ATOM     12  O   UNL     1       1.979 -21.369 -12.505  0.00  0.00    +0.000 OA
ATOM     13  H   UNL     1       2.906 -21.277 -12.793  0.00  0.00    +0.000 HD
ENDBRANCH   7  12
BRANCH   8  14
ATOM     14  O   UNL     1       2.108 -19.355 -10.694  0.00  0.00    +0.000 OA
ATOM     15  H   UNL     1       2.650 -18.548 -10.583  0.00  0.00    +0.000 HD
ENDBRANCH   8  14
TORSDOF 2
ENDMDL
MODEL 5
REMARK VINA RESULT:      -4.0     15.078     15.546
REMARK  Name = 5281416_Esculetin.pdbqt.pdb
REMARK  2 active torsions:
REMARK  status: ('A' for Active; 'I' for Inactive)
REMARK    1  A    between atoms: C_7  and  O_12
REMARK    2  A    between atoms: C_8  and  O_14
REMARK                            x       y       z     vdW  Elec       q    Type
REMARK                         _______ _______ _______ _____ _____    ______ ____
ROOT
ATOM      1  O   UNL     1      -4.346 -16.443  -0.662  0.00  0.00    +0.000 OA
ATOM      2  O   UNL     1      -4.328 -14.815  -2.351  0.00  0.00    +0.000 OA
ATOM      3  C   UNL     1      -2.451 -18.064  -0.669  0.00  0.00    +0.000 A 
ATOM      4  C   UNL     1      -3.660 -17.584  -0.094  0.00  0.00    +0.000 A 
ATOM      5  C   UNL     1      -1.789 -19.155  -0.131  0.00  0.00    +0.000 A 
ATOM      6  C   UNL     1      -4.221 -18.188   1.022  0.00  0.00    +0.000 A 
ATOM      7  C   UNL     1      -2.354 -19.759   0.990  0.00  0.00    +0.000 A 
ATOM      8  C   UNL     1      -3.548 -19.283   1.554  0.00  0.00    +0.000 A 
ATOM      9  C   UNL     1      -2.019 -17.332  -1.802  0.00  0.00    +0.000 A 
ATOM     10  C   UNL     1      -2.600 -16.393  -2.255  0.00  0.00    +0.000 A 
ATOM     11  C   UNL     1      -3.821 -15.781  -1.806  0.00  0.00    +0.000 A 
ENDROOT
BRANCH   7  12
ATOM     12  O   UNL     1      -1.760 -20.844   1.580  0.00  0.00    +0.000 OA
ATOM     13  H   UNL     1      -0.992 -20.523   2.089  0.00  0.00    +0.000 HD
ENDBRANCH   7  12
BRANCH   8  14
ATOM     14  O   UNL     1      -4.067 -19.906   2.655  0.00  0.00    +0.000 OA
ATOM     15  H   UNL     1      -4.350 -19.184   3.251  0.00  0.00    +0.000 HD
ENDBRANCH   8  14
TORSDOF 2
ENDMDL
MODEL 6
REMARK VINA RESULT:      -3.9      9.946     11.909
REMARK  Name = 5281416_Esculetin.pdbqt.pdb
REMARK  2 active torsions:
REMARK  status: ('A' for Active; 'I' for Inactive)
REMARK    1  A    between atoms: C_7  and  O_12
REMARK    2  A    between atoms: C_8  and  O_14
REMARK                            x       y       z     vdW  Elec       q    Type
REMARK                         _______ _______ _______ _____ _____    ______ ____
ROOT
ATOM      1  O   UNL     1      -2.099 -30.907   9.538  0.00  0.00    +0.000 OA
ATOM      2  O   UNL     1      -0.031 -31.906   9.053  0.00  0.00    +0.000 OA
ATOM      3  C   UNL     1      -4.088 -31.865   8.380  0.00  0.00    +0.000 A 
ATOM      4  C   UNL     1      -3.522 -30.920   9.279  0.00  0.00    +0.000 A 
ATOM      5  C   UNL     1      -5.450 -31.883   8.126  0.00  0.00    +0.000 A 
ATOM      6  C   UNL     1      -4.309 -29.984   9.934  0.00  0.00    +0.000 A 
ATOM      7  C   UNL     1      -6.237 -30.942   8.786  0.00  0.00    +0.000 A 
ATOM      8  C   UNL     1      -5.675 -30.011   9.673  0.00  0.00    +0.000 A 
ATOM      9  C   UNL     1      -3.143 -32.747   7.798  0.00  0.00    +0.000 A 
ATOM     10  C   UNL     1      -1.972 -32.719   8.026  0.00  0.00    +0.000 A 
ATOM     11  C   UNL     1      -1.240 -31.841   8.897  0.00  0.00    +0.000 A 
ENDROOT
BRANCH   7  12
ATOM     12  O   UNL     1      -7.592 -30.895   8.589  0.00  0.00    +0.000 OA
ATOM     13  H   UNL     1      -7.832 -29.973   8.381  0.00  0.00    +0.000 HD
ENDBRANCH   7  12
BRANCH   8  14
ATOM     14  O   UNL     1      -6.485 -29.104  10.299  0.00  0.00    +0.000 OA
ATOM     15  H   UNL     1      -6.883 -29.590  11.050  0.00  0.00    +0.000 HD
ENDBRANCH   8  14
TORSDOF 2
ENDMDL
MODEL 7
REMARK VINA RESULT:      -3.9     14.435     16.343
REMARK  Name = 5281416_Esculetin.pdbqt.pdb
REMARK  2 active torsions:
REMARK  status: ('A' for Active; 'I' for Inactive)
REMARK    1  A    between atoms: C_7  and  O_12
REMARK    2  A    between atoms: C_8  and  O_14
REMARK                            x       y       z     vdW  Elec       q    Type
REMARK                         _______ _______ _______ _____ _____    ______ ____
ROOT
ATOM      1  O   UNL     1     -14.895 -16.006   0.746  0.00  0.00    +0.000 OA
ATOM      2  O   UNL     1     -16.269 -14.378   1.729  0.00  0.00    +0.000 OA
ATOM      3  C   UNL     1     -15.829 -17.186  -1.242  0.00  0.00    +0.000 A 
ATOM      4  C   UNL     1     -14.772 -16.986  -0.312  0.00  0.00    +0.000 A 
ATOM      5  C   UNL     1     -15.718 -18.123  -2.257  0.00  0.00    +0.000 A 
ATOM      6  C   UNL     1     -13.595 -17.717  -0.384  0.00  0.00    +0.000 A 
ATOM      7  C   UNL     1     -14.536 -18.855  -2.327  0.00  0.00    +0.000 A 
ATOM      8  C   UNL     1     -13.495 -18.655  -1.407  0.00  0.00    +0.000 A 
ATOM      9  C   UNL     1     -16.956 -16.357  -1.023  0.00  0.00    +0.000 A 
ATOM     10  C   UNL     1     -17.038 -15.554  -0.144  0.00  0.00    +0.000 A 
ATOM     11  C   UNL     1     -16.076 -15.225   0.872  0.00  0.00    +0.000 A 
ENDROOT
BRANCH   7  12
ATOM     12  O   UNL     1     -14.349 -19.801  -3.301  0.00  0.00    +0.000 OA
ATOM     13  H   UNL     1     -13.496 -19.616  -3.737  0.00  0.00    +0.000 HD
ENDBRANCH   7  12
BRANCH   8  14
ATOM     14  O   UNL     1     -12.351 -19.397  -1.513  0.00  0.00    +0.000 OA
ATOM     15  H   UNL     1     -12.652 -20.315  -1.663  0.00  0.00    +0.000 HD
ENDBRANCH   8  14
TORSDOF 2
ENDMDL
MODEL 8
REMARK VINA RESULT:      -3.9     15.594     16.896
REMARK  Name = 5281416_Esculetin.pdbqt.pdb
REMARK  2 active torsions:
REMARK  status: ('A' for Active; 'I' for Inactive)
REMARK    1  A    between atoms: C_7  and  O_12
REMARK    2  A    between atoms: C_8  and  O_14
REMARK                            x       y       z     vdW  Elec       q    Type
REMARK                         _______ _______ _______ _____ _____    ______ ____
ROOT
ATOM      1  O   UNL     1     -10.916 -17.100   1.277  0.00  0.00    +0.000 OA
ATOM      2  O   UNL     1     -13.204 -17.167   0.762  0.00  0.00    +0.000 OA
ATOM      3  C   UNL     1      -9.832 -14.856   1.203  0.00  0.00    +0.000 A 
ATOM      4  C   UNL     1      -9.748 -16.258   1.424  0.00  0.00    +0.000 A 
ATOM      5  C   UNL     1      -8.718 -14.044   1.342  0.00  0.00    +0.000 A 
ATOM      6  C   UNL     1      -8.553 -16.864   1.784  0.00  0.00    +0.000 A 
ATOM      7  C   UNL     1      -7.520 -14.655   1.704  0.00  0.00    +0.000 A 
ATOM      8  C   UNL     1      -7.441 -16.040   1.920  0.00  0.00    +0.000 A 
ATOM      9  C   UNL     1     -11.125 -14.404   0.842  0.00  0.00    +0.000 A 
ATOM     10  C   UNL     1     -12.076 -15.115   0.726  0.00  0.00    +0.000 A 
ATOM     11  C   UNL     1     -12.169 -16.538   0.909  0.00  0.00    +0.000 A 
ENDROOT
BRANCH   7  12
ATOM     12  O   UNL     1      -6.374 -13.921   1.861  0.00  0.00    +0.000 OA
ATOM     13  H   UNL     1      -6.071 -13.647   0.976  0.00  0.00    +0.000 HD
ENDBRANCH   7  12
BRANCH   8  14
ATOM     14  O   UNL     1      -6.244 -16.598   2.275  0.00  0.00    +0.000 OA
ATOM     15  H   UNL     1      -5.597 -15.866   2.239  0.00  0.00    +0.000 HD
ENDBRANCH   8  14
TORSDOF 2
ENDMDL
MODEL 9
REMARK VINA RESULT:      -3.8     19.330     21.414
REMARK  Name = 5281416_Esculetin.pdbqt.pdb
REMARK  2 active torsions:
REMARK  status: ('A' for Active; 'I' for Inactive)
REMARK    1  A    between atoms: C_7  and  O_12
REMARK    2  A    between atoms: C_8  and  O_14
REMARK                            x       y       z     vdW  Elec       q    Type
REMARK                         _______ _______ _______ _____ _____    ______ ____
ROOT
ATOM      1  O   UNL     1     -17.915 -15.611  -4.120  0.00  0.00    +0.000 OA
ATOM      2  O   UNL     1     -17.126 -17.525  -5.225  0.00  0.00    +0.000 OA
ATOM      3  C   UNL     1     -17.380 -13.421  -5.184  0.00  0.00    +0.000 A 
ATOM      4  C   UNL     1     -17.986 -14.166  -4.136  0.00  0.00    +0.000 A 
ATOM      5  C   UNL     1     -17.443 -12.037  -5.206  0.00  0.00    +0.000 A 
ATOM      6  C   UNL     1     -18.661 -13.539  -3.099  0.00  0.00    +0.000 A 
ATOM      7  C   UNL     1     -18.122 -11.411  -4.164  0.00  0.00    +0.000 A 
ATOM      8  C   UNL     1     -18.719 -12.149  -3.131  0.00  0.00    +0.000 A 
ATOM      9  C   UNL     1     -16.732 -14.219  -6.160  0.00  0.00    +0.000 A 
ATOM     10  C   UNL     1     -16.686 -15.411  -6.129  0.00  0.00    +0.000 A 
ATOM     11  C   UNL     1     -17.237 -16.312  -5.155  0.00  0.00    +0.000 A 
ENDROOT
BRANCH   7  12
ATOM     12  O   UNL     1     -18.229 -10.046  -4.114  0.00  0.00    +0.000 OA
ATOM     13  H   UNL     1     -17.345  -9.684  -3.918  0.00  0.00    +0.000 HD
ENDBRANCH   7  12
BRANCH   8  14
ATOM     14  O   UNL     1     -19.376 -11.492  -2.127  0.00  0.00    +0.000 OA
ATOM     15  H   UNL     1     -19.009 -11.857  -1.296  0.00  0.00    +0.000 HD
ENDBRANCH   8  14
TORSDOF 2
ENDMDL
