MODEL 1
REMARK VINA RESULT:      -5.1      0.000      0.000
REMARK  Name = 5281698_sexangularetin.pdbqt.pdb
REMARK  6 active torsions:
REMARK  status: ('A' for Active; 'I' for Inactive)
REMARK    1  A    between atoms: C_5  and  C_12
REMARK    2  A    between atoms: C_6  and  O_20
REMARK    3  A    between atoms: C_8  and  O_22
REMARK    4  A    between atoms: C_9  and  O_24
REMARK    5  A    between atoms: C_10  and  O_26
REMARK    6  A    between atoms: C_17  and  O_18
REMARK                            x       y       z     vdW  Elec       q    Type
REMARK                         _______ _______ _______ _____ _____    ______ ____
ROOT
ATOM      1  O   UNL     1      -5.627 -33.689  -3.832  0.00  0.00    +0.000 OA
ATOM      2  O   UNL     1      -4.361 -37.153  -2.154  0.00  0.00    +0.000 OA
ATOM      3  C   UNL     1      -4.212 -35.651  -3.961  0.00  0.00    +0.000 A 
ATOM      4  C   UNL     1      -4.698 -34.456  -4.489  0.00  0.00    +0.000 A 
ATOM      5  C   UNL     1      -6.157 -34.131  -2.625  0.00  0.00    +0.000 A 
ATOM      6  C   UNL     1      -4.213 -33.999  -5.723  0.00  0.00    +0.000 A 
ATOM      7  C   UNL     1      -4.747 -36.110  -2.677  0.00  0.00    +0.000 A 
ATOM      8  C   UNL     1      -5.773 -35.271  -2.019  0.00  0.00    +0.000 A 
ATOM      9  C   UNL     1      -3.231 -36.380  -4.643  0.00  0.00    +0.000 A 
ATOM     10  C   UNL     1      -3.204 -34.714  -6.378  0.00  0.00    +0.000 A 
ATOM     11  C   UNL     1      -2.721 -35.907  -5.848  0.00  0.00    +0.000 A 
ENDROOT
BRANCH   5  12
ATOM     12  C   UNL     1      -7.169 -33.210  -2.070  0.00  0.00    +0.000 A 
ATOM     13  C   UNL     1      -8.458 -33.185  -2.618  0.00  0.00    +0.000 A 
ATOM     14  C   UNL     1      -6.906 -32.399  -0.961  0.00  0.00    +0.000 A 
ATOM     15  C   UNL     1      -9.449 -32.359  -2.092  0.00  0.00    +0.000 A 
ATOM     16  C   UNL     1      -7.888 -31.567  -0.426  0.00  0.00    +0.000 A 
ATOM     17  C   UNL     1      -9.154 -31.555  -0.998  0.00  0.00    +0.000 A 
BRANCH  17  18
ATOM     18  O   UNL     1     -10.102 -30.735  -0.459  0.00  0.00    +0.000 OA
ATOM     19  H   UNL     1     -10.631 -31.256   0.171  0.00  0.00    +0.000 HD
ENDBRANCH  17  18
ENDBRANCH   5  12
BRANCH   6  20
ATOM     20  O   UNL     1      -4.643 -32.811  -6.263  0.00  0.00    +0.000 OA
ATOM     21  C   UNL     1      -5.648 -33.026  -7.227  0.00  0.00    +0.000 C 
ENDBRANCH   6  20
BRANCH   8  22
ATOM     22  O   UNL     1      -6.256 -35.711  -0.802  0.00  0.00    +0.000 OA
ATOM     23  H   UNL     1      -5.480 -36.068  -0.321  0.00  0.00    +0.000 HD
ENDBRANCH   8  22
BRANCH   9  24
ATOM     24  O   UNL     1      -2.712 -37.557  -4.177  0.00  0.00    +0.000 OA
ATOM     25  H   UNL     1      -1.876 -37.749  -4.659  0.00  0.00    +0.000 HD
ENDBRANCH   9  24
BRANCH  10  26
ATOM     26  O   UNL     1      -2.672 -34.231  -7.540  0.00  0.00    +0.000 OA
ATOM     27  H   UNL     1      -1.736 -34.498  -7.589  0.00  0.00    +0.000 HD
ENDBRANCH  10  26
TORSDOF 6
ENDMDL
MODEL 2
REMARK VINA RESULT:      -5.1      2.512      6.988
REMARK  Name = 5281698_sexangularetin.pdbqt.pdb
REMARK  6 active torsions:
REMARK  status: ('A' for Active; 'I' for Inactive)
REMARK    1  A    between atoms: C_5  and  C_12
REMARK    2  A    between atoms: C_6  and  O_20
REMARK    3  A    between atoms: C_8  and  O_22
REMARK    4  A    between atoms: C_9  and  O_24
REMARK    5  A    between atoms: C_10  and  O_26
REMARK    6  A    between atoms: C_17  and  O_18
REMARK                            x       y       z     vdW  Elec       q    Type
REMARK                         _______ _______ _______ _____ _____    ______ ____
ROOT
ATOM      1  O   UNL     1      -4.691 -36.110  -2.481  0.00  0.00    +0.000 OA
ATOM      2  O   UNL     1      -4.208 -33.167  -5.223  0.00  0.00    +0.000 OA
ATOM      3  C   UNL     1      -5.670 -34.315  -3.780  0.00  0.00    +0.000 A 
ATOM      4  C   UNL     1      -5.772 -35.350  -2.851  0.00  0.00    +0.000 A 
ATOM      5  C   UNL     1      -3.457 -35.894  -3.084  0.00  0.00    +0.000 A 
ATOM      6  C   UNL     1      -7.010 -35.620  -2.252  0.00  0.00    +0.000 A 
ATOM      7  C   UNL     1      -4.368 -34.065  -4.400  0.00  0.00    +0.000 A 
ATOM      8  C   UNL     1      -3.237 -34.930  -3.998  0.00  0.00    +0.000 A 
ATOM      9  C   UNL     1      -6.788 -33.535  -4.095  0.00  0.00    +0.000 A 
ATOM     10  C   UNL     1      -8.113 -34.810  -2.544  0.00  0.00    +0.000 A 
ATOM     11  C   UNL     1      -8.008 -33.777  -3.472  0.00  0.00    +0.000 A 
ENDROOT
BRANCH   5  12
ATOM     12  C   UNL     1      -2.412 -36.819  -2.601  0.00  0.00    +0.000 A 
ATOM     13  C   UNL     1      -2.185 -36.951  -1.225  0.00  0.00    +0.000 A 
ATOM     14  C   UNL     1      -1.678 -37.630  -3.472  0.00  0.00    +0.000 A 
ATOM     15  C   UNL     1      -1.238 -37.846  -0.733  0.00  0.00    +0.000 A 
ATOM     16  C   UNL     1      -0.726 -38.528  -2.994  0.00  0.00    +0.000 A 
ATOM     17  C   UNL     1      -0.514 -38.628  -1.624  0.00  0.00    +0.000 A 
BRANCH  17  18
ATOM     18  O   UNL     1       0.421 -39.514  -1.175  0.00  0.00    +0.000 OA
ATOM     19  H   UNL     1       0.257 -40.372  -1.605  0.00  0.00    +0.000 HD
ENDBRANCH  17  18
ENDBRANCH   5  12
BRANCH   6  20
ATOM     20  O   UNL     1      -7.146 -36.611  -1.310  0.00  0.00    +0.000 OA
ATOM     21  C   UNL     1      -6.845 -36.129  -0.021  0.00  0.00    +0.000 C 
ENDBRANCH   6  20
BRANCH   8  22
ATOM     22  O   UNL     1      -2.011 -34.671  -4.581  0.00  0.00    +0.000 OA
ATOM     23  H   UNL     1      -1.779 -35.481  -5.082  0.00  0.00    +0.000 HD
ENDBRANCH   8  22
BRANCH   9  24
ATOM     24  O   UNL     1      -6.754 -32.505  -4.995  0.00  0.00    +0.000 OA
ATOM     25  H   UNL     1      -7.624 -32.451  -5.451  0.00  0.00    +0.000 HD
ENDBRANCH   9  24
BRANCH  10  26
ATOM     26  O   UNL     1      -9.301 -35.019  -1.902  0.00  0.00    +0.000 OA
ATOM     27  H   UNL     1      -9.563 -35.950  -2.028  0.00  0.00    +0.000 HD
ENDBRANCH  10  26
TORSDOF 6
ENDMDL
MODEL 3
REMARK VINA RESULT:      -5.0      3.267      6.617
REMARK  Name = 5281698_sexangularetin.pdbqt.pdb
REMARK  6 active torsions:
REMARK  status: ('A' for Active; 'I' for Inactive)
REMARK    1  A    between atoms: C_5  and  C_12
REMARK    2  A    between atoms: C_6  and  O_20
REMARK    3  A    between atoms: C_8  and  O_22
REMARK    4  A    between atoms: C_9  and  O_24
REMARK    5  A    between atoms: C_10  and  O_26
REMARK    6  A    between atoms: C_17  and  O_18
REMARK                            x       y       z     vdW  Elec       q    Type
REMARK                         _______ _______ _______ _____ _____    ______ ____
ROOT
ATOM      1  O   UNL     1      -3.757 -34.987  -5.389  0.00  0.00    +0.000 OA
ATOM      2  O   UNL     1      -7.802 -35.190  -5.294  0.00  0.00    +0.000 OA
ATOM      3  C   UNL     1      -5.761 -35.750  -4.263  0.00  0.00    +0.000 A 
ATOM      4  C   UNL     1      -4.374 -35.654  -4.361  0.00  0.00    +0.000 A 
ATOM      5  C   UNL     1      -4.522 -34.432  -6.409  0.00  0.00    +0.000 A 
ATOM      6  C   UNL     1      -3.570 -36.236  -3.370  0.00  0.00    +0.000 A 
ATOM      7  C   UNL     1      -6.574 -35.145  -5.320  0.00  0.00    +0.000 A 
ATOM      8  C   UNL     1      -5.868 -34.466  -6.429  0.00  0.00    +0.000 A 
ATOM      9  C   UNL     1      -6.351 -36.401  -3.174  0.00  0.00    +0.000 A 
ATOM     10  C   UNL     1      -4.169 -36.849  -2.264  0.00  0.00    +0.000 A 
ATOM     11  C   UNL     1      -5.555 -36.944  -2.170  0.00  0.00    +0.000 A 
ENDROOT
BRANCH   5  12
ATOM     12  C   UNL     1      -3.703 -33.785  -7.454  0.00  0.00    +0.000 A 
ATOM     13  C   UNL     1      -3.748 -32.394  -7.608  0.00  0.00    +0.000 A 
ATOM     14  C   UNL     1      -2.822 -34.511  -8.261  0.00  0.00    +0.000 A 
ATOM     15  C   UNL     1      -2.957 -31.747  -8.554  0.00  0.00    +0.000 A 
ATOM     16  C   UNL     1      -2.026 -33.877  -9.214  0.00  0.00    +0.000 A 
ATOM     17  C   UNL     1      -2.101 -32.497  -9.352  0.00  0.00    +0.000 A 
BRANCH  17  18
ATOM     18  O   UNL     1      -1.313 -31.894 -10.288  0.00  0.00    +0.000 OA
ATOM     19  H   UNL     1      -1.870 -31.668 -11.054  0.00  0.00    +0.000 HD
ENDBRANCH  17  18
ENDBRANCH   5  12
BRANCH   6  20
ATOM     20  O   UNL     1      -2.201 -36.137  -3.413  0.00  0.00    +0.000 OA
ATOM     21  C   UNL     1      -1.632 -37.248  -4.065  0.00  0.00    +0.000 C 
ENDBRANCH   6  20
BRANCH   8  22
ATOM     22  O   UNL     1      -6.650 -33.888  -7.410  0.00  0.00    +0.000 OA
ATOM     23  H   UNL     1      -6.223 -33.031  -7.619  0.00  0.00    +0.000 HD
ENDBRANCH   8  22
BRANCH   9  24
ATOM     24  O   UNL     1      -7.704 -36.527  -3.018  0.00  0.00    +0.000 OA
ATOM     25  H   UNL     1      -8.155 -35.902  -3.630  0.00  0.00    +0.000 HD
ENDBRANCH   9  24
BRANCH  10  26
ATOM     26  O   UNL     1      -3.391 -37.347  -1.257  0.00  0.00    +0.000 OA
ATOM     27  H   UNL     1      -3.836 -37.175  -0.406  0.00  0.00    +0.000 HD
ENDBRANCH  10  26
TORSDOF 6
ENDMDL
MODEL 4
REMARK VINA RESULT:      -5.0     10.971     13.003
REMARK  Name = 5281698_sexangularetin.pdbqt.pdb
REMARK  6 active torsions:
REMARK  status: ('A' for Active; 'I' for Inactive)
REMARK    1  A    between atoms: C_5  and  C_12
REMARK    2  A    between atoms: C_6  and  O_20
REMARK    3  A    between atoms: C_8  and  O_22
REMARK    4  A    between atoms: C_9  and  O_24
REMARK    5  A    between atoms: C_10  and  O_26
REMARK    6  A    between atoms: C_17  and  O_18
REMARK                            x       y       z     vdW  Elec       q    Type
REMARK                         _______ _______ _______ _____ _____    ______ ____
ROOT
ATOM      1  O   UNL     1       3.332 -29.883 -11.086  0.00  0.00    +0.000 OA
ATOM      2  O   UNL     1       0.326 -32.257 -12.407  0.00  0.00    +0.000 OA
ATOM      3  C   UNL     1       1.600 -30.304 -12.727  0.00  0.00    +0.000 A 
ATOM      4  C   UNL     1       2.637 -29.525 -12.213  0.00  0.00    +0.000 A 
ATOM      5  C   UNL     1       2.967 -31.028 -10.385  0.00  0.00    +0.000 A 
ATOM      6  C   UNL     1       3.005 -28.344 -12.873  0.00  0.00    +0.000 A 
ATOM      7  C   UNL     1       1.228 -31.524 -12.008  0.00  0.00    +0.000 A 
ATOM      8  C   UNL     1       1.981 -31.855 -10.778  0.00  0.00    +0.000 A 
ATOM      9  C   UNL     1       0.947 -29.925 -13.904  0.00  0.00    +0.000 A 
ATOM     10  C   UNL     1       2.373 -27.995 -14.072  0.00  0.00    +0.000 A 
ATOM     11  C   UNL     1       1.338 -28.775 -14.582  0.00  0.00    +0.000 A 
ENDROOT
BRANCH   5  12
ATOM     12  C   UNL     1       3.790 -31.248  -9.178  0.00  0.00    +0.000 A 
ATOM     13  C   UNL     1       3.412 -30.662  -7.965  0.00  0.00    +0.000 A 
ATOM     14  C   UNL     1       4.910 -32.086  -9.187  0.00  0.00    +0.000 A 
ATOM     15  C   UNL     1       4.140 -30.884  -6.798  0.00  0.00    +0.000 A 
ATOM     16  C   UNL     1       5.649 -32.315  -8.028  0.00  0.00    +0.000 A 
ATOM     17  C   UNL     1       5.256 -31.711  -6.840  0.00  0.00    +0.000 A 
BRANCH  17  18
ATOM     18  O   UNL     1       5.991 -31.949  -5.716  0.00  0.00    +0.000 OA
ATOM     19  H   UNL     1       5.427 -32.421  -5.079  0.00  0.00    +0.000 HD
ENDBRANCH  17  18
ENDBRANCH   5  12
BRANCH   6  20
ATOM     20  O   UNL     1       4.041 -27.566 -12.417  0.00  0.00    +0.000 OA
ATOM     21  C   UNL     1       5.273 -28.003 -12.940  0.00  0.00    +0.000 C 
ENDBRANCH   6  20
BRANCH   8  22
ATOM     22  O   UNL     1       1.627 -33.018 -10.120  0.00  0.00    +0.000 OA
ATOM     23  H   UNL     1       1.938 -33.751 -10.691  0.00  0.00    +0.000 HD
ENDBRANCH   8  22
BRANCH   9  24
ATOM     24  O   UNL     1      -0.074 -30.646 -14.461  0.00  0.00    +0.000 OA
ATOM     25  H   UNL     1      -0.857 -30.602 -13.865  0.00  0.00    +0.000 HD
ENDBRANCH   9  24
BRANCH  10  26
ATOM     26  O   UNL     1       2.783 -26.888 -14.760  0.00  0.00    +0.000 OA
ATOM     27  H   UNL     1       2.189 -26.757 -15.523  0.00  0.00    +0.000 HD
ENDBRANCH  10  26
TORSDOF 6
ENDMDL
MODEL 5
REMARK VINA RESULT:      -5.0     20.781     23.355
REMARK  Name = 5281698_sexangularetin.pdbqt.pdb
REMARK  6 active torsions:
REMARK  status: ('A' for Active; 'I' for Inactive)
REMARK    1  A    between atoms: C_5  and  C_12
REMARK    2  A    between atoms: C_6  and  O_20
REMARK    3  A    between atoms: C_8  and  O_22
REMARK    4  A    between atoms: C_9  and  O_24
REMARK    5  A    between atoms: C_10  and  O_26
REMARK    6  A    between atoms: C_17  and  O_18
REMARK                            x       y       z     vdW  Elec       q    Type
REMARK                         _______ _______ _______ _____ _____    ______ ____
ROOT
ATOM      1  O   UNL     1      -4.623 -14.026 -13.849  0.00  0.00    +0.000 OA
ATOM      2  O   UNL     1      -8.045 -13.952 -16.016  0.00  0.00    +0.000 OA
ATOM      3  C   UNL     1      -6.137 -15.163 -15.360  0.00  0.00    +0.000 A 
ATOM      4  C   UNL     1      -4.968 -15.120 -14.602  0.00  0.00    +0.000 A 
ATOM      5  C   UNL     1      -5.424 -12.890 -13.876  0.00  0.00    +0.000 A 
ATOM      6  C   UNL     1      -4.116 -16.234 -14.582  0.00  0.00    +0.000 A 
ATOM      7  C   UNL     1      -6.999 -13.980 -15.372  0.00  0.00    +0.000 A 
ATOM      8  C   UNL     1      -6.573 -12.809 -14.574  0.00  0.00    +0.000 A 
ATOM      9  C   UNL     1      -6.473 -16.316 -16.078  0.00  0.00    +0.000 A 
ATOM     10  C   UNL     1      -4.481 -17.396 -15.271  0.00  0.00    +0.000 A 
ATOM     11  C   UNL     1      -5.649 -17.436 -16.027  0.00  0.00    +0.000 A 
ENDROOT
BRANCH   5  12
ATOM     12  C   UNL     1      -4.893 -11.793 -13.042  0.00  0.00    +0.000 A 
ATOM     13  C   UNL     1      -5.589 -11.396 -11.893  0.00  0.00    +0.000 A 
ATOM     14  C   UNL     1      -3.671 -11.173 -13.322  0.00  0.00    +0.000 A 
ATOM     15  C   UNL     1      -5.094 -10.394 -11.061  0.00  0.00    +0.000 A 
ATOM     16  C   UNL     1      -3.166 -10.168 -12.500  0.00  0.00    +0.000 A 
ATOM     17  C   UNL     1      -3.884  -9.787 -11.373  0.00  0.00    +0.000 A 
BRANCH  17  18
ATOM     18  O   UNL     1      -3.372  -8.802 -10.579  0.00  0.00    +0.000 OA
ATOM     19  H   UNL     1      -3.749  -8.905  -9.687  0.00  0.00    +0.000 HD
ENDBRANCH  17  18
ENDBRANCH   5  12
BRANCH   6  20
ATOM     20  O   UNL     1      -2.971 -16.243 -13.824  0.00  0.00    +0.000 OA
ATOM     21  C   UNL     1      -1.846 -15.897 -14.599  0.00  0.00    +0.000 C 
ENDBRANCH   6  20
BRANCH   8  22
ATOM     22  O   UNL     1      -7.405 -11.706 -14.585  0.00  0.00    +0.000 OA
ATOM     23  H   UNL     1      -7.104 -11.139 -13.844  0.00  0.00    +0.000 HD
ENDBRANCH   8  22
BRANCH   9  24
ATOM     24  O   UNL     1      -7.606 -16.423 -16.837  0.00  0.00    +0.000 OA
ATOM     25  H   UNL     1      -8.274 -16.949 -16.342  0.00  0.00    +0.000 HD
ENDBRANCH   9  24
BRANCH  10  26
ATOM     26  O   UNL     1      -3.694 -18.511 -15.190  0.00  0.00    +0.000 OA
ATOM     27  H   UNL     1      -2.967 -18.427 -15.834  0.00  0.00    +0.000 HD
ENDBRANCH  10  26
TORSDOF 6
ENDMDL
MODEL 6
REMARK VINA RESULT:      -4.9      4.821      6.714
REMARK  Name = 5281698_sexangularetin.pdbqt.pdb
REMARK  6 active torsions:
REMARK  status: ('A' for Active; 'I' for Inactive)
REMARK    1  A    between atoms: C_5  and  C_12
REMARK    2  A    between atoms: C_6  and  O_20
REMARK    3  A    between atoms: C_8  and  O_22
REMARK    4  A    between atoms: C_9  and  O_24
REMARK    5  A    between atoms: C_10  and  O_26
REMARK    6  A    between atoms: C_17  and  O_18
REMARK                            x       y       z     vdW  Elec       q    Type
REMARK                         _______ _______ _______ _____ _____    ______ ____
ROOT
ATOM      1  O   UNL     1     -11.196 -34.641  -3.729  0.00  0.00    +0.000 OA
ATOM      2  O   UNL     1      -8.583 -36.738  -6.007  0.00  0.00    +0.000 OA
ATOM      3  C   UNL     1     -10.801 -36.020  -5.681  0.00  0.00    +0.000 A 
ATOM      4  C   UNL     1     -11.649 -35.291  -4.848  0.00  0.00    +0.000 A 
ATOM      5  C   UNL     1      -9.858 -34.747  -3.364  0.00  0.00    +0.000 A 
ATOM      6  C   UNL     1     -13.011 -35.196  -5.165  0.00  0.00    +0.000 A 
ATOM      7  C   UNL     1      -9.386 -36.115  -5.316  0.00  0.00    +0.000 A 
ATOM      8  C   UNL     1      -8.945 -35.427  -4.083  0.00  0.00    +0.000 A 
ATOM      9  C   UNL     1     -11.297 -36.631  -6.837  0.00  0.00    +0.000 A 
ATOM     10  C   UNL     1     -13.491 -35.776  -6.345  0.00  0.00    +0.000 A 
ATOM     11  C   UNL     1     -12.640 -36.503  -7.174  0.00  0.00    +0.000 A 
ENDROOT
BRANCH   5  12
ATOM     12  C   UNL     1      -9.544 -34.020  -2.117  0.00  0.00    +0.000 A 
ATOM     13  C   UNL     1      -9.252 -32.651  -2.168  0.00  0.00    +0.000 A 
ATOM     14  C   UNL     1      -9.592 -34.639  -0.864  0.00  0.00    +0.000 A 
ATOM     15  C   UNL     1      -8.994 -31.925  -1.008  0.00  0.00    +0.000 A 
ATOM     16  C   UNL     1      -9.334 -33.925   0.304  0.00  0.00    +0.000 A 
ATOM     17  C   UNL     1      -9.036 -32.571   0.222  0.00  0.00    +0.000 A 
BRANCH  17  18
ATOM     18  O   UNL     1      -8.788 -31.889   1.377  0.00  0.00    +0.000 OA
ATOM     19  H   UNL     1      -9.152 -32.404   2.118  0.00  0.00    +0.000 HD
ENDBRANCH  17  18
ENDBRANCH   5  12
BRANCH   6  20
ATOM     20  O   UNL     1     -13.875 -34.462  -4.388  0.00  0.00    +0.000 OA
ATOM     21  C   UNL     1     -14.572 -35.289  -3.486  0.00  0.00    +0.000 C 
ENDBRANCH   6  20
BRANCH   8  22
ATOM     22  O   UNL     1      -7.604 -35.514  -3.761  0.00  0.00    +0.000 OA
ATOM     23  H   UNL     1      -7.143 -34.909  -4.380  0.00  0.00    +0.000 HD
ENDBRANCH   8  22
BRANCH   9  24
ATOM     24  O   UNL     1     -10.517 -37.356  -7.696  0.00  0.00    +0.000 OA
ATOM     25  H   UNL     1      -9.593 -37.366  -7.357  0.00  0.00    +0.000 HD
ENDBRANCH   9  24
BRANCH  10  26
ATOM     26  O   UNL     1     -14.801 -35.617  -6.699  0.00  0.00    +0.000 OA
ATOM     27  H   UNL     1     -15.246 -36.483  -6.645  0.00  0.00    +0.000 HD
ENDBRANCH  10  26
TORSDOF 6
ENDMDL
MODEL 7
REMARK VINA RESULT:      -4.9     12.144     14.892
REMARK  Name = 5281698_sexangularetin.pdbqt.pdb
REMARK  6 active torsions:
REMARK  status: ('A' for Active; 'I' for Inactive)
REMARK    1  A    between atoms: C_5  and  C_12
REMARK    2  A    between atoms: C_6  and  O_20
REMARK    3  A    between atoms: C_8  and  O_22
REMARK    4  A    between atoms: C_9  and  O_24
REMARK    5  A    between atoms: C_10  and  O_26
REMARK    6  A    between atoms: C_17  and  O_18
REMARK                            x       y       z     vdW  Elec       q    Type
REMARK                         _______ _______ _______ _____ _____    ______ ____
ROOT
ATOM      1  O   UNL     1      -3.311 -31.455  10.034  0.00  0.00    +0.000 OA
ATOM      2  O   UNL     1      -5.605 -33.744   7.602  0.00  0.00    +0.000 OA
ATOM      3  C   UNL     1      -5.471 -31.869   9.018  0.00  0.00    +0.000 A 
ATOM      4  C   UNL     1      -4.632 -31.130   9.851  0.00  0.00    +0.000 A 
ATOM      5  C   UNL     1      -2.789 -32.590   9.423  0.00  0.00    +0.000 A 
ATOM      6  C   UNL     1      -5.136 -30.002  10.513  0.00  0.00    +0.000 A 
ATOM      7  C   UNL     1      -4.921 -33.050   8.351  0.00  0.00    +0.000 A 
ATOM      8  C   UNL     1      -3.502 -33.386   8.603  0.00  0.00    +0.000 A 
ATOM      9  C   UNL     1      -6.800 -31.476   8.824  0.00  0.00    +0.000 A 
ATOM     10  C   UNL     1      -6.454 -29.594  10.282  0.00  0.00    +0.000 A 
ATOM     11  C   UNL     1      -7.290 -30.334   9.450  0.00  0.00    +0.000 A 
ENDROOT
BRANCH   5  12
ATOM     12  C   UNL     1      -1.368 -32.817   9.753  0.00  0.00    +0.000 A 
ATOM     13  C   UNL     1      -0.371 -32.257   8.945  0.00  0.00    +0.000 A 
ATOM     14  C   UNL     1      -0.974 -33.522  10.895  0.00  0.00    +0.000 A 
ATOM     15  C   UNL     1       0.979 -32.414   9.251  0.00  0.00    +0.000 A 
ATOM     16  C   UNL     1       0.373 -33.689  11.211  0.00  0.00    +0.000 A 
ATOM     17  C   UNL     1       1.340 -33.132  10.384  0.00  0.00    +0.000 A 
BRANCH  17  18
ATOM     18  O   UNL     1       2.653 -33.305  10.712  0.00  0.00    +0.000 OA
ATOM     19  H   UNL     1       2.991 -32.463  11.064  0.00  0.00    +0.000 HD
ENDBRANCH  17  18
ENDBRANCH   5  12
BRANCH   6  20
ATOM     20  O   UNL     1      -4.333 -29.229  11.318  0.00  0.00    +0.000 OA
ATOM     21  C   UNL     1      -3.546 -28.347  10.552  0.00  0.00    +0.000 C 
ENDBRANCH   6  20
BRANCH   8  22
ATOM     22  O   UNL     1      -2.995 -34.495   7.955  0.00  0.00    +0.000 OA
ATOM     23  H   UNL     1      -2.222 -34.782   8.484  0.00  0.00    +0.000 HD
ENDBRANCH   8  22
BRANCH   9  24
ATOM     24  O   UNL     1      -7.673 -32.155   8.019  0.00  0.00    +0.000 OA
ATOM     25  H   UNL     1      -7.193 -32.894   7.581  0.00  0.00    +0.000 HD
ENDBRANCH   9  24
BRANCH  10  26
ATOM     26  O   UNL     1      -6.925 -28.450  10.862  0.00  0.00    +0.000 OA
ATOM     27  H   UNL     1      -7.898 -28.502  10.909  0.00  0.00    +0.000 HD
ENDBRANCH  10  26
TORSDOF 6
ENDMDL
MODEL 8
REMARK VINA RESULT:      -4.8     19.270     22.514
REMARK  Name = 5281698_sexangularetin.pdbqt.pdb
REMARK  6 active torsions:
REMARK  status: ('A' for Active; 'I' for Inactive)
REMARK    1  A    between atoms: C_5  and  C_12
REMARK    2  A    between atoms: C_6  and  O_20
REMARK    3  A    between atoms: C_8  and  O_22
REMARK    4  A    between atoms: C_9  and  O_24
REMARK    5  A    between atoms: C_10  and  O_26
REMARK    6  A    between atoms: C_17  and  O_18
REMARK                            x       y       z     vdW  Elec       q    Type
REMARK                         _______ _______ _______ _____ _____    ______ ____
ROOT
ATOM      1  O   UNL     1      -8.113 -17.405 -16.300  0.00  0.00    +0.000 OA
ATOM      2  O   UNL     1      -7.045 -13.739 -14.945  0.00  0.00    +0.000 OA
ATOM      3  C   UNL     1      -8.786 -15.203 -15.549  0.00  0.00    +0.000 A 
ATOM      4  C   UNL     1      -9.086 -16.477 -16.028  0.00  0.00    +0.000 A 
ATOM      5  C   UNL     1      -6.773 -17.062 -16.153  0.00  0.00    +0.000 A 
ATOM      6  C   UNL     1     -10.425 -16.843 -16.225  0.00  0.00    +0.000 A 
ATOM      7  C   UNL     1      -7.379 -14.844 -15.367  0.00  0.00    +0.000 A 
ATOM      8  C   UNL     1      -6.359 -15.862 -15.704  0.00  0.00    +0.000 A 
ATOM      9  C   UNL     1      -9.812 -14.302 -15.242  0.00  0.00    +0.000 A 
ATOM     10  C   UNL     1     -11.445 -15.950 -15.878  0.00  0.00    +0.000 A 
ATOM     11  C   UNL     1     -11.143 -14.678 -15.399  0.00  0.00    +0.000 A 
ENDROOT
BRANCH   5  12
ATOM     12  C   UNL     1      -5.856 -18.160 -16.521  0.00  0.00    +0.000 A 
ATOM     13  C   UNL     1      -5.290 -18.190 -17.801  0.00  0.00    +0.000 A 
ATOM     14  C   UNL     1      -5.474 -19.146 -15.606  0.00  0.00    +0.000 A 
ATOM     15  C   UNL     1      -4.388 -19.186 -18.168  0.00  0.00    +0.000 A 
ATOM     16  C   UNL     1      -4.574 -20.150 -15.960  0.00  0.00    +0.000 A 
ATOM     17  C   UNL     1      -4.037 -20.161 -17.241  0.00  0.00    +0.000 A 
BRANCH  17  18
ATOM     18  O   UNL     1      -3.157 -21.150 -17.568  0.00  0.00    +0.000 OA
ATOM     19  H   UNL     1      -3.589 -21.741 -18.210  0.00  0.00    +0.000 HD
ENDBRANCH  17  18
ENDBRANCH   5  12
BRANCH   6  20
ATOM     20  O   UNL     1     -10.764 -18.099 -16.667  0.00  0.00    +0.000 OA
ATOM     21  C   UNL     1     -10.818 -18.145 -18.074  0.00  0.00    +0.000 C 
ENDBRANCH   6  20
BRANCH   8  22
ATOM     22  O   UNL     1      -5.037 -15.512 -15.513  0.00  0.00    +0.000 OA
ATOM     23  H   UNL     1      -4.654 -16.217 -14.949  0.00  0.00    +0.000 HD
ENDBRANCH   8  22
BRANCH   9  24
ATOM     24  O   UNL     1      -9.585 -13.040 -14.766  0.00  0.00    +0.000 OA
ATOM     25  H   UNL     1     -10.368 -12.478 -14.965  0.00  0.00    +0.000 HD
ENDBRANCH   9  24
BRANCH  10  26
ATOM     26  O   UNL     1     -12.752 -16.332 -15.992  0.00  0.00    +0.000 OA
ATOM     27  H   UNL     1     -13.208 -16.139 -15.152  0.00  0.00    +0.000 HD
ENDBRANCH  10  26
TORSDOF 6
ENDMDL
MODEL 9
REMARK VINA RESULT:      -4.7     20.804     22.933
REMARK  Name = 5281698_sexangularetin.pdbqt.pdb
REMARK  6 active torsions:
REMARK  status: ('A' for Active; 'I' for Inactive)
REMARK    1  A    between atoms: C_5  and  C_12
REMARK    2  A    between atoms: C_6  and  O_20
REMARK    3  A    between atoms: C_8  and  O_22
REMARK    4  A    between atoms: C_9  and  O_24
REMARK    5  A    between atoms: C_10  and  O_26
REMARK    6  A    between atoms: C_17  and  O_18
REMARK                            x       y       z     vdW  Elec       q    Type
REMARK                         _______ _______ _______ _____ _____    ______ ____
ROOT
ATOM      1  O   UNL     1      -5.694 -16.005 -15.219  0.00  0.00    +0.000 OA
ATOM      2  O   UNL     1      -7.208 -12.319 -14.486  0.00  0.00    +0.000 OA
ATOM      3  C   UNL     1      -7.617 -14.533 -15.172  0.00  0.00    +0.000 A 
ATOM      4  C   UNL     1      -7.032 -15.775 -15.417  0.00  0.00    +0.000 A 
ATOM      5  C   UNL     1      -4.867 -14.962 -14.817  0.00  0.00    +0.000 A 
ATOM      6  C   UNL     1      -7.830 -16.838 -15.862  0.00  0.00    +0.000 A 
ATOM      7  C   UNL     1      -6.757 -13.437 -14.723  0.00  0.00    +0.000 A 
ATOM      8  C   UNL     1      -5.314 -13.719 -14.556  0.00  0.00    +0.000 A 
ATOM      9  C   UNL     1      -8.994 -14.354 -15.344  0.00  0.00    +0.000 A 
ATOM     10  C   UNL     1      -9.212 -16.660 -15.992  0.00  0.00    +0.000 A 
ATOM     11  C   UNL     1      -9.793 -15.419 -15.747  0.00  0.00    +0.000 A 
ENDROOT
BRANCH   5  12
ATOM     12  C   UNL     1      -3.452 -15.369 -14.687  0.00  0.00    +0.000 A 
ATOM     13  C   UNL     1      -3.130 -16.545 -13.998  0.00  0.00    +0.000 A 
ATOM     14  C   UNL     1      -2.416 -14.650 -15.290  0.00  0.00    +0.000 A 
ATOM     15  C   UNL     1      -1.811 -16.980 -13.894  0.00  0.00    +0.000 A 
ATOM     16  C   UNL     1      -1.091 -15.074 -15.192  0.00  0.00    +0.000 A 
ATOM     17  C   UNL     1      -0.800 -16.238 -14.493  0.00  0.00    +0.000 A 
BRANCH  17  18
ATOM     18  O   UNL     1       0.502 -16.637 -14.409  0.00  0.00    +0.000 OA
ATOM     19  H   UNL     1       1.064 -15.908 -14.726  0.00  0.00    +0.000 HD
ENDBRANCH  17  18
ENDBRANCH   5  12
BRANCH   6  20
ATOM     20  O   UNL     1      -7.297 -18.085 -16.085  0.00  0.00    +0.000 OA
ATOM     21  C   UNL     1      -6.881 -18.227 -17.423  0.00  0.00    +0.000 C 
ENDBRANCH   6  20
BRANCH   8  22
ATOM     22  O   UNL     1      -4.518 -12.678 -14.117  0.00  0.00    +0.000 OA
ATOM     23  H   UNL     1      -3.657 -13.083 -13.882  0.00  0.00    +0.000 HD
ENDBRANCH   8  22
BRANCH   9  24
ATOM     24  O   UNL     1      -9.629 -13.163 -15.118  0.00  0.00    +0.000 OA
ATOM     25  H   UNL     1      -8.953 -12.454 -15.023  0.00  0.00    +0.000 HD
ENDBRANCH   9  24
BRANCH  10  26
ATOM     26  O   UNL     1     -10.004 -17.715 -16.347  0.00  0.00    +0.000 OA
ATOM     27  H   UNL     1      -9.516 -18.271 -16.983  0.00  0.00    +0.000 HD
ENDBRANCH  10  26
TORSDOF 6
ENDMDL
