MODEL 1
REMARK VINA RESULT:      -6.5      0.000      0.000
REMARK  Name = 5281224_Astaxanthin.pdbqt.pdb
REMARK  16 active torsions:
REMARK  status: ('A' for Active; 'I' for Inactive)
REMARK    1  A    between atoms: C_1  and  C_5
REMARK    2  A    between atoms: C_2  and  C_27
REMARK    3  A    between atoms: C_3  and  C_5
REMARK    4  A    between atoms: C_3  and  C_7
REMARK    5  A    between atoms: C_6  and  C_10
REMARK    6  A    between atoms: C_8  and  C_10
REMARK    7  A    between atoms: C_8  and  C_12
REMARK    8  A    between atoms: C_11  and  C_16
REMARK    9  A    between atoms: C_17  and  O_23
REMARK   10  A    between atoms: C_25  and  C_27
REMARK   11  A    between atoms: C_25  and  C_29
REMARK   12  A    between atoms: C_28  and  C_32
REMARK   13  A    between atoms: C_30  and  C_32
REMARK   14  A    between atoms: C_30  and  C_34
REMARK   15  A    between atoms: C_33  and  C_38
REMARK   16  A    between atoms: C_39  and  O_45
REMARK                            x       y       z     vdW  Elec       q    Type
REMARK                         _______ _______ _______ _____ _____    ______ ____
ROOT
ATOM      1  C   UNL     1      -9.730 -14.285   1.321  0.00  0.00    +0.000 C 
ATOM      2  C   UNL     1      -8.656 -13.773   1.162  0.00  0.00    +0.000 C 
ENDROOT
BRANCH   2   3
ATOM      3  C   UNL     1      -7.280 -13.126   0.961  0.00  0.00    +0.000 C 
BRANCH   3   4
ATOM      4  C   UNL     1      -6.118 -12.581   0.785  0.00  0.00    +0.000 C 
ATOM      5  C   UNL     1      -5.827 -11.233   1.373  0.00  0.00    +0.000 C 
BRANCH   4   7
ATOM      6  C   UNL     1      -4.333 -13.766  -0.716  0.00  0.00    +0.000 C 
ATOM      7  C   UNL     1      -5.152 -13.220  -0.029  0.00  0.00    +0.000 C 
BRANCH   6   8
ATOM      8  C   UNL     1      -3.286 -14.465  -1.591  0.00  0.00    +0.000 C 
BRANCH   8   9
ATOM      9  C   UNL     1      -2.406 -15.062  -2.334  0.00  0.00    +0.000 C 
ATOM     10  C   UNL     1      -2.134 -14.560  -3.720  0.00  0.00    +0.000 C 
BRANCH   9  12
ATOM     11  C   UNL     1      -0.927 -16.972  -1.321  0.00  0.00    +0.000 C 
ATOM     12  C   UNL     1      -1.598 -16.086  -1.781  0.00  0.00    +0.000 C 
BRANCH  11  16
ATOM     13  O   UNL     1      -0.567 -21.163   1.194  0.00  0.00    +0.000 OA
ATOM     14  C   UNL     1       1.401 -18.009  -1.015  0.00  0.00    +0.000 C 
ATOM     15  C   UNL     1       1.925 -19.196  -0.361  0.00  0.00    +0.000 C 
ATOM     16  C   UNL     1      -0.130 -18.050  -0.771  0.00  0.00    +0.000 C 
ATOM     17  C   UNL     1       1.436 -20.273   0.371  0.00  0.00    +0.000 C 
ATOM     18  C   UNL     1       1.672 -18.075  -2.536  0.00  0.00    +0.000 C 
ATOM     19  C   UNL     1       1.991 -16.738  -0.366  0.00  0.00    +0.000 C 
ATOM     20  C   UNL     1      -0.739 -19.053  -0.072  0.00  0.00    +0.000 C 
ATOM     21  C   UNL     1      -0.030 -20.259   0.568  0.00  0.00    +0.000 C 
ATOM     22  C   UNL     1      -2.264 -19.009   0.100  0.00  0.00    +0.000 C 
BRANCH  17  23
ATOM     23  O   UNL     1       2.239 -21.267   0.865  0.00  0.00    +0.000 OA
ATOM     24  H   UNL     1       2.941 -20.895   1.436  0.00  0.00    +0.000 HD
ENDBRANCH  17  23
ENDBRANCH  11  16
ENDBRANCH   9  12
ENDBRANCH   8   9
ENDBRANCH   6   8
ENDBRANCH   4   7
ENDBRANCH   3   4
ENDBRANCH   2   3
BRANCH   1  25
ATOM     25  C   UNL     1     -11.097 -14.948   1.527  0.00  0.00    +0.000 C 
BRANCH  25  26
ATOM     26  C   UNL     1     -12.251 -15.513   1.697  0.00  0.00    +0.000 C 
ATOM     27  C   UNL     1     -12.838 -15.611   3.074  0.00  0.00    +0.000 C 
BRANCH  26  29
ATOM     28  C   UNL     1     -13.481 -16.619  -0.328  0.00  0.00    +0.000 C 
ATOM     29  C   UNL     1     -12.915 -16.111   0.601  0.00  0.00    +0.000 C 
BRANCH  28  30
ATOM     30  C   UNL     1     -14.207 -17.268  -1.514  0.00  0.00    +0.000 C 
BRANCH  30  31
ATOM     31  C   UNL     1     -14.826 -17.819  -2.510  0.00  0.00    +0.000 C 
ATOM     32  C   UNL     1     -14.713 -19.297  -2.735  0.00  0.00    +0.000 C 
BRANCH  31  34
ATOM     33  C   UNL     1     -16.486 -16.406  -3.962  0.00  0.00    +0.000 C 
ATOM     34  C   UNL     1     -15.731 -17.054  -3.286  0.00  0.00    +0.000 C 
BRANCH  33  38
ATOM     35  O   UNL     1     -17.243 -12.927  -7.330  0.00  0.00    +0.000 OA
ATOM     36  C   UNL     1     -18.902 -15.909  -4.673  0.00  0.00    +0.000 C 
ATOM     37  C   UNL     1     -19.536 -14.990  -5.604  0.00  0.00    +0.000 C 
ATOM     38  C   UNL     1     -17.382 -15.622  -4.790  0.00  0.00    +0.000 C 
ATOM     39  C   UNL     1     -19.152 -13.998  -6.501  0.00  0.00    +0.000 C 
ATOM     40  C   UNL     1     -19.175 -17.371  -5.098  0.00  0.00    +0.000 C 
ATOM     41  C   UNL     1     -19.371 -15.616  -3.231  0.00  0.00    +0.000 C 
ATOM     42  C   UNL     1     -16.870 -14.679  -5.634  0.00  0.00    +0.000 C 
ATOM     43  C   UNL     1     -17.691 -13.775  -6.569  0.00  0.00    +0.000 C 
ATOM     44  C   UNL     1     -15.349 -14.484  -5.685  0.00  0.00    +0.000 C 
BRANCH  39  45
ATOM     45  O   UNL     1     -20.045 -13.291  -7.259  0.00  0.00    +0.000 OA
ATOM     46  H   UNL     1     -20.939 -13.323  -6.861  0.00  0.00    +0.000 HD
ENDBRANCH  39  45
ENDBRANCH  33  38
ENDBRANCH  31  34
ENDBRANCH  30  31
ENDBRANCH  28  30
ENDBRANCH  26  29
ENDBRANCH  25  26
ENDBRANCH   1  25
TORSDOF 16
ENDMDL
MODEL 2
REMARK VINA RESULT:      -6.4      8.875     12.268
REMARK  Name = 5281224_Astaxanthin.pdbqt.pdb
REMARK  16 active torsions:
REMARK  status: ('A' for Active; 'I' for Inactive)
REMARK    1  A    between atoms: C_1  and  C_5
REMARK    2  A    between atoms: C_2  and  C_27
REMARK    3  A    between atoms: C_3  and  C_5
REMARK    4  A    between atoms: C_3  and  C_7
REMARK    5  A    between atoms: C_6  and  C_10
REMARK    6  A    between atoms: C_8  and  C_10
REMARK    7  A    between atoms: C_8  and  C_12
REMARK    8  A    between atoms: C_11  and  C_16
REMARK    9  A    between atoms: C_17  and  O_23
REMARK   10  A    between atoms: C_25  and  C_27
REMARK   11  A    between atoms: C_25  and  C_29
REMARK   12  A    between atoms: C_28  and  C_32
REMARK   13  A    between atoms: C_30  and  C_32
REMARK   14  A    between atoms: C_30  and  C_34
REMARK   15  A    between atoms: C_33  and  C_38
REMARK   16  A    between atoms: C_39  and  O_45
REMARK                            x       y       z     vdW  Elec       q    Type
REMARK                         _______ _______ _______ _____ _____    ______ ____
ROOT
ATOM      1  C   UNL     1      -1.709 -11.165  -8.733  0.00  0.00    +0.000 C 
ATOM      2  C   UNL     1      -0.690 -11.667  -8.345  0.00  0.00    +0.000 C 
ENDROOT
BRANCH   2   3
ATOM      3  C   UNL     1       0.610 -12.306  -7.841  0.00  0.00    +0.000 C 
BRANCH   3   4
ATOM      4  C   UNL     1       1.707 -12.845  -7.410  0.00  0.00    +0.000 C 
ATOM      5  C   UNL     1       3.002 -12.570  -8.112  0.00  0.00    +0.000 C 
BRANCH   4   7
ATOM      6  C   UNL     1       1.633 -14.530  -5.409  0.00  0.00    +0.000 C 
ATOM      7  C   UNL     1       1.669 -13.756  -6.326  0.00  0.00    +0.000 C 
BRANCH   6   8
ATOM      8  C   UNL     1       1.586 -15.520  -4.240  0.00  0.00    +0.000 C 
BRANCH   8   9
ATOM      9  C   UNL     1       1.545 -16.352  -3.245  0.00  0.00    +0.000 C 
ATOM     10  C   UNL     1       2.812 -16.966  -2.732  0.00  0.00    +0.000 C 
BRANCH   9  12
ATOM     11  C   UNL     1      -0.714 -16.748  -1.981  0.00  0.00    +0.000 C 
ATOM     12  C   UNL     1       0.327 -16.559  -2.553  0.00  0.00    +0.000 C 
BRANCH  11  16
ATOM     13  O   UNL     1      -3.454 -19.290   1.189  0.00  0.00    +0.000 OA
ATOM     14  C   UNL     1      -3.158 -16.038  -1.645  0.00  0.00    +0.000 C 
ATOM     15  C   UNL     1      -4.268 -16.507  -0.832  0.00  0.00    +0.000 C 
ATOM     16  C   UNL     1      -1.976 -16.983  -1.307  0.00  0.00    +0.000 C 
ATOM     17  C   UNL     1      -4.515 -17.511   0.098  0.00  0.00    +0.000 C 
ATOM     18  C   UNL     1      -2.779 -14.592  -1.247  0.00  0.00    +0.000 C 
ATOM     19  C   UNL     1      -3.505 -16.164  -3.145  0.00  0.00    +0.000 C 
ATOM     20  C   UNL     1      -2.082 -18.006  -0.409  0.00  0.00    +0.000 C 
ATOM     21  C   UNL     1      -3.349 -18.377   0.381  0.00  0.00    +0.000 C 
ATOM     22  C   UNL     1      -0.847 -18.875  -0.133  0.00  0.00    +0.000 C 
BRANCH  17  23
ATOM     23  O   UNL     1      -5.730 -17.684   0.706  0.00  0.00    +0.000 OA
ATOM     24  H   UNL     1      -6.443 -17.764   0.040  0.00  0.00    +0.000 HD
ENDBRANCH  17  23
ENDBRANCH  11  16
ENDBRANCH   9  12
ENDBRANCH   8   9
ENDBRANCH   6   8
ENDBRANCH   4   7
ENDBRANCH   3   4
ENDBRANCH   2   3
BRANCH   1  25
ATOM     25  C   UNL     1      -3.012 -10.520  -9.219  0.00  0.00    +0.000 C 
BRANCH  25  26
ATOM     26  C   UNL     1      -4.111  -9.970  -9.628  0.00  0.00    +0.000 C 
ATOM     27  C   UNL     1      -4.752  -8.886  -8.814  0.00  0.00    +0.000 C 
BRANCH  26  29
ATOM     28  C   UNL     1      -5.297 -10.859 -11.783  0.00  0.00    +0.000 C 
ATOM     29  C   UNL     1      -4.751 -10.450 -10.795  0.00  0.00    +0.000 C 
BRANCH  28  30
ATOM     30  C   UNL     1      -5.995 -11.385 -13.045  0.00  0.00    +0.000 C 
BRANCH  30  31
ATOM     31  C   UNL     1      -6.592 -11.828 -14.105  0.00  0.00    +0.000 C 
ATOM     32  C   UNL     1      -7.342 -10.881 -14.993  0.00  0.00    +0.000 C 
BRANCH  31  34
ATOM     33  C   UNL     1      -6.249 -14.311 -14.869  0.00  0.00    +0.000 C 
ATOM     34  C   UNL     1      -6.404 -13.174 -14.507  0.00  0.00    +0.000 C 
BRANCH  33  38
ATOM     35  O   UNL     1      -3.513 -18.359 -15.251  0.00  0.00    +0.000 OA
ATOM     36  C   UNL     1      -7.245 -16.340 -16.085  0.00  0.00    +0.000 C 
ATOM     37  C   UNL     1      -6.784 -17.680 -16.406  0.00  0.00    +0.000 C 
ATOM     38  C   UNL     1      -6.069 -15.677 -15.322  0.00  0.00    +0.000 C 
ATOM     39  C   UNL     1      -5.643 -18.455 -16.215  0.00  0.00    +0.000 C 
ATOM     40  C   UNL     1      -8.477 -16.409 -15.152  0.00  0.00    +0.000 C 
ATOM     41  C   UNL     1      -7.529 -15.549 -17.381  0.00  0.00    +0.000 C 
ATOM     42  C   UNL     1      -4.896 -16.325 -15.063  0.00  0.00    +0.000 C 
ATOM     43  C   UNL     1      -4.561 -17.767 -15.478  0.00  0.00    +0.000 C 
ATOM     44  C   UNL     1      -3.800 -15.583 -14.287  0.00  0.00    +0.000 C 
BRANCH  39  45
ATOM     45  O   UNL     1      -5.532 -19.742 -16.665  0.00  0.00    +0.000 OA
ATOM     46  H   UNL     1      -6.255 -19.954 -17.291  0.00  0.00    +0.000 HD
ENDBRANCH  39  45
ENDBRANCH  33  38
ENDBRANCH  31  34
ENDBRANCH  30  31
ENDBRANCH  28  30
ENDBRANCH  26  29
ENDBRANCH  25  26
ENDBRANCH   1  25
TORSDOF 16
ENDMDL
MODEL 3
REMARK VINA RESULT:      -6.1     18.767     25.220
REMARK  Name = 5281224_Astaxanthin.pdbqt.pdb
REMARK  16 active torsions:
REMARK  status: ('A' for Active; 'I' for Inactive)
REMARK    1  A    between atoms: C_1  and  C_5
REMARK    2  A    between atoms: C_2  and  C_27
REMARK    3  A    between atoms: C_3  and  C_5
REMARK    4  A    between atoms: C_3  and  C_7
REMARK    5  A    between atoms: C_6  and  C_10
REMARK    6  A    between atoms: C_8  and  C_10
REMARK    7  A    between atoms: C_8  and  C_12
REMARK    8  A    between atoms: C_11  and  C_16
REMARK    9  A    between atoms: C_17  and  O_23
REMARK   10  A    between atoms: C_25  and  C_27
REMARK   11  A    between atoms: C_25  and  C_29
REMARK   12  A    between atoms: C_28  and  C_32
REMARK   13  A    between atoms: C_30  and  C_32
REMARK   14  A    between atoms: C_30  and  C_34
REMARK   15  A    between atoms: C_33  and  C_38
REMARK   16  A    between atoms: C_39  and  O_45
REMARK                            x       y       z     vdW  Elec       q    Type
REMARK                         _______ _______ _______ _____ _____    ______ ____
ROOT
ATOM      1  C   UNL     1       6.636 -32.890  -8.319  0.00  0.00    +0.000 C 
ATOM      2  C   UNL     1       5.738 -32.996  -9.107  0.00  0.00    +0.000 C 
ENDROOT
BRANCH   2   3
ATOM      3  C   UNL     1       4.595 -33.127 -10.121  0.00  0.00    +0.000 C 
BRANCH   3   4
ATOM      4  C   UNL     1       3.624 -33.238 -10.973  0.00  0.00    +0.000 C 
ATOM      5  C   UNL     1       3.692 -32.511 -12.282  0.00  0.00    +0.000 C 
BRANCH   4   7
ATOM      6  C   UNL     1       1.486 -34.610 -10.351  0.00  0.00    +0.000 C 
ATOM      7  C   UNL     1       2.467 -33.979 -10.635  0.00  0.00    +0.000 C 
BRANCH   6   8
ATOM      8  C   UNL     1       0.234 -35.418  -9.992  0.00  0.00    +0.000 C 
BRANCH   8   9
ATOM      9  C   UNL     1      -0.827 -36.104  -9.695  0.00  0.00    +0.000 C 
ATOM     10  C   UNL     1      -0.895 -37.561 -10.039  0.00  0.00    +0.000 C 
BRANCH   9  12
ATOM     11  C   UNL     1      -2.707 -35.008  -8.236  0.00  0.00    +0.000 C 
ATOM     12  C   UNL     1      -1.851 -35.512  -8.916  0.00  0.00    +0.000 C 
BRANCH  11  16
ATOM     13  O   UNL     1      -4.583 -34.026  -3.816  0.00  0.00    +0.000 OA
ATOM     14  C   UNL     1      -4.875 -33.639  -8.113  0.00  0.00    +0.000 C 
ATOM     15  C   UNL     1      -5.728 -33.150  -7.044  0.00  0.00    +0.000 C 
ATOM     16  C   UNL     1      -3.727 -34.403  -7.403  0.00  0.00    +0.000 C 
ATOM     17  C   UNL     1      -5.770 -33.192  -5.654  0.00  0.00    +0.000 C 
ATOM     18  C   UNL     1      -4.277 -32.452  -8.905  0.00  0.00    +0.000 C 
ATOM     19  C   UNL     1      -5.659 -34.615  -9.018  0.00  0.00    +0.000 C 
ATOM     20  C   UNL     1      -3.646 -34.517  -6.044  0.00  0.00    +0.000 C 
ATOM     21  C   UNL     1      -4.647 -33.931  -5.035  0.00  0.00    +0.000 C 
ATOM     22  C   UNL     1      -2.460 -35.281  -5.439  0.00  0.00    +0.000 C 
BRANCH  17  23
ATOM     23  O   UNL     1      -6.760 -32.598  -4.918  0.00  0.00    +0.000 OA
ATOM     24  H   UNL     1      -6.923 -31.684  -5.230  0.00  0.00    +0.000 HD
ENDBRANCH  17  23
ENDBRANCH  11  16
ENDBRANCH   9  12
ENDBRANCH   8   9
ENDBRANCH   6   8
ENDBRANCH   4   7
ENDBRANCH   3   4
ENDBRANCH   2   3
BRANCH   1  25
ATOM     25  C   UNL     1       7.790 -32.751  -7.318  0.00  0.00    +0.000 C 
BRANCH  25  26
ATOM     26  C   UNL     1       8.766 -32.639  -6.473  0.00  0.00    +0.000 C 
ATOM     27  C   UNL     1      10.141 -33.098  -6.855  0.00  0.00    +0.000 C 
BRANCH  26  29
ATOM     28  C   UNL     1       8.307 -31.762  -4.052  0.00  0.00    +0.000 C 
ATOM     29  C   UNL     1       8.517 -32.166  -5.163  0.00  0.00    +0.000 C 
BRANCH  28  30
ATOM     30  C   UNL     1       8.043 -31.244  -2.632  0.00  0.00    +0.000 C 
BRANCH  30  31
ATOM     31  C   UNL     1       7.828 -30.807  -1.431  0.00  0.00    +0.000 C 
ATOM     32  C   UNL     1       8.408 -29.495  -0.998  0.00  0.00    +0.000 C 
BRANCH  31  34
ATOM     33  C   UNL     1       6.162 -32.088   0.134  0.00  0.00    +0.000 C 
ATOM     34  C   UNL     1       6.919 -31.492  -0.587  0.00  0.00    +0.000 C 
BRANCH  33  38
ATOM     35  O   UNL     1       4.706 -36.280   2.214  0.00  0.00    +0.000 OA
ATOM     36  C   UNL     1       4.137 -32.023   1.710  0.00  0.00    +0.000 C 
ATOM     37  C   UNL     1       3.410 -33.004   2.497  0.00  0.00    +0.000 C 
ATOM     38  C   UNL     1       5.262 -32.822   1.002  0.00  0.00    +0.000 C 
ATOM     39  C   UNL     1       3.466 -34.370   2.755  0.00  0.00    +0.000 C 
ATOM     40  C   UNL     1       4.777 -30.962   2.637  0.00  0.00    +0.000 C 
ATOM     41  C   UNL     1       3.206 -31.395   0.649  0.00  0.00    +0.000 C 
ATOM     42  C   UNL     1       5.432 -34.166   1.170  0.00  0.00    +0.000 C 
ATOM     43  C   UNL     1       4.562 -35.074   2.054  0.00  0.00    +0.000 C 
ATOM     44  C   UNL     1       6.587 -34.860   0.435  0.00  0.00    +0.000 C 
BRANCH  39  45
ATOM     45  O   UNL     1       2.588 -35.009   3.587  0.00  0.00    +0.000 OA
ATOM     46  H   UNL     1       2.730 -35.978   3.564  0.00  0.00    +0.000 HD
ENDBRANCH  39  45
ENDBRANCH  33  38
ENDBRANCH  31  34
ENDBRANCH  30  31
ENDBRANCH  28  30
ENDBRANCH  26  29
ENDBRANCH  25  26
ENDBRANCH   1  25
TORSDOF 16
ENDMDL
MODEL 4
REMARK VINA RESULT:      -6.0     15.909     19.140
REMARK  Name = 5281224_Astaxanthin.pdbqt.pdb
REMARK  16 active torsions:
REMARK  status: ('A' for Active; 'I' for Inactive)
REMARK    1  A    between atoms: C_1  and  C_5
REMARK    2  A    between atoms: C_2  and  C_27
REMARK    3  A    between atoms: C_3  and  C_5
REMARK    4  A    between atoms: C_3  and  C_7
REMARK    5  A    between atoms: C_6  and  C_10
REMARK    6  A    between atoms: C_8  and  C_10
REMARK    7  A    between atoms: C_8  and  C_12
REMARK    8  A    between atoms: C_11  and  C_16
REMARK    9  A    between atoms: C_17  and  O_23
REMARK   10  A    between atoms: C_25  and  C_27
REMARK   11  A    between atoms: C_25  and  C_29
REMARK   12  A    between atoms: C_28  and  C_32
REMARK   13  A    between atoms: C_30  and  C_32
REMARK   14  A    between atoms: C_30  and  C_34
REMARK   15  A    between atoms: C_33  and  C_38
REMARK   16  A    between atoms: C_39  and  O_45
REMARK                            x       y       z     vdW  Elec       q    Type
REMARK                         _______ _______ _______ _____ _____    ______ ____
ROOT
ATOM      1  C   UNL     1       4.250 -30.663  -6.707  0.00  0.00    +0.000 C 
ATOM      2  C   UNL     1       4.343 -30.268  -5.578  0.00  0.00    +0.000 C 
ENDROOT
BRANCH   2   3
ATOM      3  C   UNL     1       4.470 -29.759  -4.136  0.00  0.00    +0.000 C 
BRANCH   3   4
ATOM      4  C   UNL     1       4.581 -29.334  -2.917  0.00  0.00    +0.000 C 
ATOM      5  C   UNL     1       4.634 -30.315  -1.785  0.00  0.00    +0.000 C 
BRANCH   4   7
ATOM      6  C   UNL     1       4.566 -26.766  -2.418  0.00  0.00    +0.000 C 
ATOM      7  C   UNL     1       4.571 -27.944  -2.648  0.00  0.00    +0.000 C 
BRANCH   6   8
ATOM      8  C   UNL     1       4.562 -25.262  -2.123  0.00  0.00    +0.000 C 
BRANCH   8   9
ATOM      9  C   UNL     1       4.551 -23.989  -1.870  0.00  0.00    +0.000 C 
ATOM     10  C   UNL     1       3.783 -23.058  -2.758  0.00  0.00    +0.000 C 
BRANCH   9  12
ATOM     11  C   UNL     1       5.621 -23.105   0.352  0.00  0.00    +0.000 C 
ATOM     12  C   UNL     1       5.137 -23.505  -0.675  0.00  0.00    +0.000 C 
BRANCH  11  16
ATOM     13  O   UNL     1       5.100 -21.136   4.809  0.00  0.00    +0.000 OA
ATOM     14  C   UNL     1       7.728 -22.733   1.770  0.00  0.00    +0.000 C 
ATOM     15  C   UNL     1       8.001 -22.195   3.091  0.00  0.00    +0.000 C 
ATOM     16  C   UNL     1       6.190 -22.632   1.598  0.00  0.00    +0.000 C 
ATOM     17  C   UNL     1       7.287 -21.655   4.156  0.00  0.00    +0.000 C 
ATOM     18  C   UNL     1       8.147 -24.220   1.701  0.00  0.00    +0.000 C 
ATOM     19  C   UNL     1       8.423 -21.875   0.690  0.00  0.00    +0.000 C 
ATOM     20  C   UNL     1       5.370 -22.127   2.567  0.00  0.00    +0.000 C 
ATOM     21  C   UNL     1       5.825 -21.589   3.934  0.00  0.00    +0.000 C 
ATOM     22  C   UNL     1       3.859 -22.085   2.304  0.00  0.00    +0.000 C 
BRANCH  17  23
ATOM     23  O   UNL     1       7.879 -21.227   5.313  0.00  0.00    +0.000 OA
ATOM     24  H   UNL     1       8.419 -21.940   5.711  0.00  0.00    +0.000 HD
ENDBRANCH  17  23
ENDBRANCH  11  16
ENDBRANCH   9  12
ENDBRANCH   8   9
ENDBRANCH   6   8
ENDBRANCH   4   7
ENDBRANCH   3   4
ENDBRANCH   2   3
BRANCH   1  25
ATOM     25  C   UNL     1       4.140 -31.164  -8.152  0.00  0.00    +0.000 C 
BRANCH  25  26
ATOM     26  C   UNL     1       4.048 -31.592  -9.371  0.00  0.00    +0.000 C 
ATOM     27  C   UNL     1       5.270 -31.642 -10.239  0.00  0.00    +0.000 C 
BRANCH  26  29
ATOM     28  C   UNL     1       1.713 -32.217 -10.370  0.00  0.00    +0.000 C 
ATOM     29  C   UNL     1       2.785 -31.930  -9.910  0.00  0.00    +0.000 C 
BRANCH  28  30
ATOM     30  C   UNL     1       0.345 -32.582 -10.961  0.00  0.00    +0.000 C 
BRANCH  30  31
ATOM     31  C   UNL     1      -0.814 -32.882 -11.456  0.00  0.00    +0.000 C 
ATOM     32  C   UNL     1      -0.974 -33.050 -12.937  0.00  0.00    +0.000 C 
BRANCH  31  34
ATOM     33  C   UNL     1      -2.799 -33.501  -9.862  0.00  0.00    +0.000 C 
ATOM     34  C   UNL     1      -1.887 -33.207 -10.588  0.00  0.00    +0.000 C 
BRANCH  33  38
ATOM     35  O   UNL     1      -5.763 -32.553  -6.076  0.00  0.00    +0.000 OA
ATOM     36  C   UNL     1      -4.620 -35.216  -9.286  0.00  0.00    +0.000 C 
ATOM     37  C   UNL     1      -5.663 -35.315  -8.279  0.00  0.00    +0.000 C 
ATOM     38  C   UNL     1      -3.904 -33.871  -8.998  0.00  0.00    +0.000 C 
ATOM     39  C   UNL     1      -6.142 -34.565  -7.209  0.00  0.00    +0.000 C 
ATOM     40  C   UNL     1      -5.246 -35.164 -10.699  0.00  0.00    +0.000 C 
ATOM     41  C   UNL     1      -3.615 -36.378  -9.128  0.00  0.00    +0.000 C 
ATOM     42  C   UNL     1      -4.275 -33.037  -7.983  0.00  0.00    +0.000 C 
ATOM     43  C   UNL     1      -5.421 -33.293  -6.990  0.00  0.00    +0.000 C 
ATOM     44  C   UNL     1      -3.510 -31.720  -7.794  0.00  0.00    +0.000 C 
BRANCH  39  45
ATOM     45  O   UNL     1      -7.192 -34.966  -6.428  0.00  0.00    +0.000 OA
ATOM     46  H   UNL     1      -7.909 -34.298  -6.441  0.00  0.00    +0.000 HD
ENDBRANCH  39  45
ENDBRANCH  33  38
ENDBRANCH  31  34
ENDBRANCH  30  31
ENDBRANCH  28  30
ENDBRANCH  26  29
ENDBRANCH  25  26
ENDBRANCH   1  25
TORSDOF 16
ENDMDL
MODEL 5
REMARK VINA RESULT:      -6.0      5.847      8.515
REMARK  Name = 5281224_Astaxanthin.pdbqt.pdb
REMARK  16 active torsions:
REMARK  status: ('A' for Active; 'I' for Inactive)
REMARK    1  A    between atoms: C_1  and  C_5
REMARK    2  A    between atoms: C_2  and  C_27
REMARK    3  A    between atoms: C_3  and  C_5
REMARK    4  A    between atoms: C_3  and  C_7
REMARK    5  A    between atoms: C_6  and  C_10
REMARK    6  A    between atoms: C_8  and  C_10
REMARK    7  A    between atoms: C_8  and  C_12
REMARK    8  A    between atoms: C_11  and  C_16
REMARK    9  A    between atoms: C_17  and  O_23
REMARK   10  A    between atoms: C_25  and  C_27
REMARK   11  A    between atoms: C_25  and  C_29
REMARK   12  A    between atoms: C_28  and  C_32
REMARK   13  A    between atoms: C_30  and  C_32
REMARK   14  A    between atoms: C_30  and  C_34
REMARK   15  A    between atoms: C_33  and  C_38
REMARK   16  A    between atoms: C_39  and  O_45
REMARK                            x       y       z     vdW  Elec       q    Type
REMARK                         _______ _______ _______ _____ _____    ______ ____
ROOT
ATOM      1  C   UNL     1      -4.295 -13.399  -1.143  0.00  0.00    +0.000 C 
ATOM      2  C   UNL     1      -3.475 -13.818  -1.912  0.00  0.00    +0.000 C 
ENDROOT
BRANCH   2   3
ATOM      3  C   UNL     1      -2.427 -14.347  -2.899  0.00  0.00    +0.000 C 
BRANCH   3   4
ATOM      4  C   UNL     1      -1.545 -14.791  -3.738  0.00  0.00    +0.000 C 
ATOM      5  C   UNL     1      -1.721 -14.548  -5.207  0.00  0.00    +0.000 C 
BRANCH   4   7
ATOM      6  C   UNL     1       0.460 -16.238  -2.883  0.00  0.00    +0.000 C 
ATOM      7  C   UNL     1      -0.459 -15.572  -3.275  0.00  0.00    +0.000 C 
BRANCH   6   8
ATOM      8  C   UNL     1       1.631 -17.091  -2.383  0.00  0.00    +0.000 C 
BRANCH   8   9
ATOM      9  C   UNL     1       2.627 -17.807  -1.959  0.00  0.00    +0.000 C 
ATOM     10  C   UNL     1       3.978 -17.655  -2.590  0.00  0.00    +0.000 C 
BRANCH   9  12
ATOM     11  C   UNL     1       2.321 -19.311   0.164  0.00  0.00    +0.000 C 
ATOM     12  C   UNL     1       2.472 -18.615  -0.806  0.00  0.00    +0.000 C 
BRANCH  11  16
ATOM     13  O   UNL     1       4.024 -22.540   3.434  0.00  0.00    +0.000 OA
ATOM     14  C   UNL     1       0.725 -20.143   1.994  0.00  0.00    +0.000 C 
ATOM     15  C   UNL     1       0.827 -21.065   3.112  0.00  0.00    +0.000 C 
ATOM     16  C   UNL     1       2.125 -20.155   1.326  0.00  0.00    +0.000 C 
ATOM     17  C   UNL     1       1.789 -21.890   3.687  0.00  0.00    +0.000 C 
ATOM     18  C   UNL     1       0.421 -18.716   2.505  0.00  0.00    +0.000 C 
ATOM     19  C   UNL     1      -0.331 -20.644   0.983  0.00  0.00    +0.000 C 
ATOM     20  C   UNL     1       3.159 -20.916   1.792  0.00  0.00    +0.000 C 
ATOM     21  C   UNL     1       3.103 -21.855   3.008  0.00  0.00    +0.000 C 
ATOM     22  C   UNL     1       4.511 -20.843   1.067  0.00  0.00    +0.000 C 
BRANCH  17  23
ATOM     23  O   UNL     1       1.546 -22.665   4.789  0.00  0.00    +0.000 OA
ATOM     24  H   UNL     1       0.682 -22.438   5.189  0.00  0.00    +0.000 HD
ENDBRANCH  17  23
ENDBRANCH  11  16
ENDBRANCH   9  12
ENDBRANCH   8   9
ENDBRANCH   6   8
ENDBRANCH   4   7
ENDBRANCH   3   4
ENDBRANCH   2   3
BRANCH   1  25
ATOM     25  C   UNL     1      -5.344 -12.854  -0.166  0.00  0.00    +0.000 C 
BRANCH  25  26
ATOM     26  C   UNL     1      -6.229 -12.397   0.663  0.00  0.00    +0.000 C 
ATOM     27  C   UNL     1      -5.907 -11.209   1.519  0.00  0.00    +0.000 C 
BRANCH  26  29
ATOM     28  C   UNL     1      -8.512 -13.639   0.959  0.00  0.00    +0.000 C 
ATOM     29  C   UNL     1      -7.463 -13.070   0.823  0.00  0.00    +0.000 C 
BRANCH  28  30
ATOM     30  C   UNL     1      -9.853 -14.363   1.134  0.00  0.00    +0.000 C 
BRANCH  30  31
ATOM     31  C   UNL     1     -10.981 -14.981   1.286  0.00  0.00    +0.000 C 
ATOM     32  C   UNL     1     -12.187 -14.539   0.513  0.00  0.00    +0.000 C 
BRANCH  31  34
ATOM     33  C   UNL     1     -11.101 -17.174   2.716  0.00  0.00    +0.000 C 
ATOM     34  C   UNL     1     -11.034 -16.168   2.059  0.00  0.00    +0.000 C 
BRANCH  33  38
ATOM     35  O   UNL     1      -9.189 -20.334   5.938  0.00  0.00    +0.000 OA
ATOM     36  C   UNL     1     -12.511 -19.203   3.409  0.00  0.00    +0.000 C 
ATOM     37  C   UNL     1     -12.322 -20.335   4.301  0.00  0.00    +0.000 C 
ATOM     38  C   UNL     1     -11.200 -18.382   3.512  0.00  0.00    +0.000 C 
ATOM     39  C   UNL     1     -11.340 -20.826   5.156  0.00  0.00    +0.000 C 
ATOM     40  C   UNL     1     -13.693 -18.332   3.895  0.00  0.00    +0.000 C 
ATOM     41  C   UNL     1     -12.698 -19.695   1.957  0.00  0.00    +0.000 C 
ATOM     42  C   UNL     1     -10.158 -18.748   4.315  0.00  0.00    +0.000 C 
ATOM     43  C   UNL     1     -10.117 -19.996   5.213  0.00  0.00    +0.000 C 
ATOM     44  C   UNL     1      -8.910 -17.856   4.356  0.00  0.00    +0.000 C 
BRANCH  39  45
ATOM     45  O   UNL     1     -11.491 -21.974   5.885  0.00  0.00    +0.000 OA
ATOM     46  H   UNL     1     -11.496 -21.776   6.845  0.00  0.00    +0.000 HD
ENDBRANCH  39  45
ENDBRANCH  33  38
ENDBRANCH  31  34
ENDBRANCH  30  31
ENDBRANCH  28  30
ENDBRANCH  26  29
ENDBRANCH  25  26
ENDBRANCH   1  25
TORSDOF 16
ENDMDL
MODEL 6
REMARK VINA RESULT:      -5.8     17.521     21.422
REMARK  Name = 5281224_Astaxanthin.pdbqt.pdb
REMARK  16 active torsions:
REMARK  status: ('A' for Active; 'I' for Inactive)
REMARK    1  A    between atoms: C_1  and  C_5
REMARK    2  A    between atoms: C_2  and  C_27
REMARK    3  A    between atoms: C_3  and  C_5
REMARK    4  A    between atoms: C_3  and  C_7
REMARK    5  A    between atoms: C_6  and  C_10
REMARK    6  A    between atoms: C_8  and  C_10
REMARK    7  A    between atoms: C_8  and  C_12
REMARK    8  A    between atoms: C_11  and  C_16
REMARK    9  A    between atoms: C_17  and  O_23
REMARK   10  A    between atoms: C_25  and  C_27
REMARK   11  A    between atoms: C_25  and  C_29
REMARK   12  A    between atoms: C_28  and  C_32
REMARK   13  A    between atoms: C_30  and  C_32
REMARK   14  A    between atoms: C_30  and  C_34
REMARK   15  A    between atoms: C_33  and  C_38
REMARK   16  A    between atoms: C_39  and  O_45
REMARK                            x       y       z     vdW  Elec       q    Type
REMARK                         _______ _______ _______ _____ _____    ______ ____
ROOT
ATOM      1  C   UNL     1      -5.439 -34.213 -10.183  0.00  0.00    +0.000 C 
ATOM      2  C   UNL     1      -6.186 -33.859 -11.052  0.00  0.00    +0.000 C 
ENDROOT
BRANCH   2   3
ATOM      3  C   UNL     1      -7.148 -33.409 -12.159  0.00  0.00    +0.000 C 
BRANCH   3   4
ATOM      4  C   UNL     1      -7.958 -33.033 -13.098  0.00  0.00    +0.000 C 
ATOM      5  C   UNL     1      -8.989 -33.987 -13.622  0.00  0.00    +0.000 C 
BRANCH   4   7
ATOM      6  C   UNL     1      -7.702 -30.666 -14.180  0.00  0.00    +0.000 C 
ATOM      7  C   UNL     1      -7.818 -31.752 -13.682  0.00  0.00    +0.000 C 
BRANCH   6   8
ATOM      8  C   UNL     1      -7.557 -29.279 -14.817  0.00  0.00    +0.000 C 
BRANCH   8   9
ATOM      9  C   UNL     1      -7.426 -28.105 -15.354  0.00  0.00    +0.000 C 
ATOM     10  C   UNL     1      -8.381 -27.008 -14.993  0.00  0.00    +0.000 C 
BRANCH   9  12
ATOM     11  C   UNL     1      -5.325 -27.574 -16.826  0.00  0.00    +0.000 C 
ATOM     12  C   UNL     1      -6.296 -27.823 -16.160  0.00  0.00    +0.000 C 
BRANCH  11  16
ATOM     13  O   UNL     1      -3.140 -25.096 -20.446  0.00  0.00    +0.000 OA
ATOM     14  C   UNL     1      -2.833 -28.005 -17.262  0.00  0.00    +0.000 C 
ATOM     15  C   UNL     1      -1.846 -27.501 -18.202  0.00  0.00    +0.000 C 
ATOM     16  C   UNL     1      -4.149 -27.266 -17.616  0.00  0.00    +0.000 C 
ATOM     17  C   UNL     1      -1.792 -26.594 -19.256  0.00  0.00    +0.000 C 
ATOM     18  C   UNL     1      -2.424 -27.645 -15.815  0.00  0.00    +0.000 C 
ATOM     19  C   UNL     1      -3.028 -29.525 -17.458  0.00  0.00    +0.000 C 
ATOM     20  C   UNL     1      -4.233 -26.348 -18.623  0.00  0.00    +0.000 C 
ATOM     21  C   UNL     1      -3.077 -25.918 -19.542  0.00  0.00    +0.000 C 
ATOM     22  C   UNL     1      -5.580 -25.659 -18.882  0.00  0.00    +0.000 C 
BRANCH  17  23
ATOM     23  O   UNL     1      -0.648 -26.341 -19.965  0.00  0.00    +0.000 OA
ATOM     24  H   UNL     1      -0.774 -26.553 -20.912  0.00  0.00    +0.000 HD
ENDBRANCH  17  23
ENDBRANCH  11  16
ENDBRANCH   9  12
ENDBRANCH   8   9
ENDBRANCH   6   8
ENDBRANCH   4   7
ENDBRANCH   3   4
ENDBRANCH   2   3
BRANCH   1  25
ATOM     25  C   UNL     1      -4.492 -34.670  -9.066  0.00  0.00    +0.000 C 
BRANCH  25  26
ATOM     26  C   UNL     1      -3.696 -35.057  -8.120  0.00  0.00    +0.000 C 
ATOM     27  C   UNL     1      -2.239 -35.267  -8.409  0.00  0.00    +0.000 C 
BRANCH  26  29
ATOM     28  C   UNL     1      -4.652 -35.630  -5.754  0.00  0.00    +0.000 C 
ATOM     29  C   UNL     1      -4.214 -35.366  -6.841  0.00  0.00    +0.000 C 
BRANCH  28  30
ATOM     30  C   UNL     1      -5.210 -35.970  -4.366  0.00  0.00    +0.000 C 
BRANCH  30  31
ATOM     31  C   UNL     1      -5.676 -36.264  -3.194  0.00  0.00    +0.000 C 
ATOM     32  C   UNL     1      -5.100 -37.417  -2.428  0.00  0.00    +0.000 C 
BRANCH  31  34
ATOM     33  C   UNL     1      -7.415 -34.662  -2.066  0.00  0.00    +0.000 C 
ATOM     34  C   UNL     1      -6.614 -35.402  -2.573  0.00  0.00    +0.000 C 
BRANCH  33  38
ATOM     35  O   UNL     1     -11.576 -33.882   0.404  0.00  0.00    +0.000 OA
ATOM     36  C   UNL     1      -8.103 -32.237  -1.581  0.00  0.00    +0.000 C 
ATOM     37  C   UNL     1      -9.219 -31.596  -0.906  0.00  0.00    +0.000 C 
ATOM     38  C   UNL     1      -8.381 -33.759  -1.471  0.00  0.00    +0.000 C 
ATOM     39  C   UNL     1     -10.381 -31.975  -0.240  0.00  0.00    +0.000 C 
ATOM     40  C   UNL     1      -6.780 -31.911  -0.850  0.00  0.00    +0.000 C 
ATOM     41  C   UNL     1      -8.073 -31.826  -3.069  0.00  0.00    +0.000 C 
ATOM     42  C   UNL     1      -9.480 -34.266  -0.840  0.00  0.00    +0.000 C 
ATOM     43  C   UNL     1     -10.586 -33.438  -0.165  0.00  0.00    +0.000 C 
ATOM     44  C   UNL     1      -9.654 -35.790  -0.773  0.00  0.00    +0.000 C 
BRANCH  39  45
ATOM     45  O   UNL     1     -11.256 -31.075   0.305  0.00  0.00    +0.000 OA
ATOM     46  H   UNL     1     -11.739 -30.593  -0.398  0.00  0.00    +0.000 HD
ENDBRANCH  39  45
ENDBRANCH  33  38
ENDBRANCH  31  34
ENDBRANCH  30  31
ENDBRANCH  28  30
ENDBRANCH  26  29
ENDBRANCH  25  26
ENDBRANCH   1  25
TORSDOF 16
ENDMDL
MODEL 7
REMARK VINA RESULT:      -5.7     18.739     24.599
REMARK  Name = 5281224_Astaxanthin.pdbqt.pdb
REMARK  16 active torsions:
REMARK  status: ('A' for Active; 'I' for Inactive)
REMARK    1  A    between atoms: C_1  and  C_5
REMARK    2  A    between atoms: C_2  and  C_27
REMARK    3  A    between atoms: C_3  and  C_5
REMARK    4  A    between atoms: C_3  and  C_7
REMARK    5  A    between atoms: C_6  and  C_10
REMARK    6  A    between atoms: C_8  and  C_10
REMARK    7  A    between atoms: C_8  and  C_12
REMARK    8  A    between atoms: C_11  and  C_16
REMARK    9  A    between atoms: C_17  and  O_23
REMARK   10  A    between atoms: C_25  and  C_27
REMARK   11  A    between atoms: C_25  and  C_29
REMARK   12  A    between atoms: C_28  and  C_32
REMARK   13  A    between atoms: C_30  and  C_32
REMARK   14  A    between atoms: C_30  and  C_34
REMARK   15  A    between atoms: C_33  and  C_38
REMARK   16  A    between atoms: C_39  and  O_45
REMARK                            x       y       z     vdW  Elec       q    Type
REMARK                         _______ _______ _______ _____ _____    ______ ____
ROOT
ATOM      1  C   UNL     1      -2.172 -34.376  -9.025  0.00  0.00    +0.000 C 
ATOM      2  C   UNL     1      -1.695 -34.262 -10.120  0.00  0.00    +0.000 C 
ENDROOT
BRANCH   2   3
ATOM      3  C   UNL     1      -1.077 -34.116 -11.516  0.00  0.00    +0.000 C 
BRANCH   3   4
ATOM      4  C   UNL     1      -0.556 -33.986 -12.696  0.00  0.00    +0.000 C 
ATOM      5  C   UNL     1       0.895 -34.292 -12.910  0.00  0.00    +0.000 C 
BRANCH   4   7
ATOM      6  C   UNL     1      -1.997 -33.048 -14.667  0.00  0.00    +0.000 C 
ATOM      7  C   UNL     1      -1.337 -33.480 -13.762  0.00  0.00    +0.000 C 
BRANCH   6   8
ATOM      8  C   UNL     1      -2.837 -32.494 -15.824  0.00  0.00    +0.000 C 
BRANCH   8   9
ATOM      9  C   UNL     1      -3.554 -32.030 -16.801  0.00  0.00    +0.000 C 
ATOM     10  C   UNL     1      -3.523 -32.706 -18.138  0.00  0.00    +0.000 C 
BRANCH   9  12
ATOM     11  C   UNL     1      -5.273 -30.107 -16.343  0.00  0.00    +0.000 C 
ATOM     12  C   UNL     1      -4.476 -30.982 -16.559  0.00  0.00    +0.000 C 
BRANCH  11  16
ATOM     13  O   UNL     1      -9.895 -28.675 -15.563  0.00  0.00    +0.000 OA
ATOM     14  C   UNL     1      -5.720 -27.612 -15.937  0.00  0.00    +0.000 C 
ATOM     15  C   UNL     1      -6.898 -26.803 -15.677  0.00  0.00    +0.000 C 
ATOM     16  C   UNL     1      -6.245 -29.065 -16.077  0.00  0.00    +0.000 C 
ATOM     17  C   UNL     1      -8.270 -26.990 -15.535  0.00  0.00    +0.000 C 
ATOM     18  C   UNL     1      -4.748 -27.540 -14.736  0.00  0.00    +0.000 C 
ATOM     19  C   UNL     1      -5.054 -27.176 -17.260  0.00  0.00    +0.000 C 
ATOM     20  C   UNL     1      -7.566 -29.387 -15.956  0.00  0.00    +0.000 C 
ATOM     21  C   UNL     1      -8.708 -28.396 -15.676  0.00  0.00    +0.000 C 
ATOM     22  C   UNL     1      -7.981 -30.859 -16.097  0.00  0.00    +0.000 C 
BRANCH  17  23
ATOM     23  O   UNL     1      -9.141 -25.965 -15.280  0.00  0.00    +0.000 OA
ATOM     24  H   UNL     1      -9.597 -26.102 -14.425  0.00  0.00    +0.000 HD
ENDBRANCH  17  23
ENDBRANCH  11  16
ENDBRANCH   9  12
ENDBRANCH   8   9
ENDBRANCH   6   8
ENDBRANCH   4   7
ENDBRANCH   3   4
ENDBRANCH   2   3
BRANCH   1  25
ATOM     25  C   UNL     1      -2.772 -34.524  -7.622  0.00  0.00    +0.000 C 
BRANCH  25  26
ATOM     26  C   UNL     1      -3.283 -34.651  -6.437  0.00  0.00    +0.000 C 
ATOM     27  C   UNL     1      -4.362 -33.713  -5.985  0.00  0.00    +0.000 C 
BRANCH  26  29
ATOM     28  C   UNL     1      -2.324 -36.434  -4.781  0.00  0.00    +0.000 C 
ATOM     29  C   UNL     1      -2.764 -35.616  -5.543  0.00  0.00    +0.000 C 
BRANCH  28  30
ATOM     30  C   UNL     1      -1.760 -37.476  -3.807  0.00  0.00    +0.000 C 
BRANCH  30  31
ATOM     31  C   UNL     1      -1.275 -38.351  -2.984  0.00  0.00    +0.000 C 
ATOM     32  C   UNL     1       0.057 -38.980  -3.260  0.00  0.00    +0.000 C 
BRANCH  31  34
ATOM     33  C   UNL     1      -2.500 -38.811  -0.714  0.00  0.00    +0.000 C 
ATOM     34  C   UNL     1      -1.929 -38.595  -1.750  0.00  0.00    +0.000 C 
BRANCH  33  38
ATOM     35  O   UNL     1      -3.967 -41.919   2.781  0.00  0.00    +0.000 OA
ATOM     36  C   UNL     1      -3.893 -37.882   1.231  0.00  0.00    +0.000 C 
ATOM     37  C   UNL     1      -4.505 -38.443   2.424  0.00  0.00    +0.000 C 
ATOM     38  C   UNL     1      -3.204 -39.078   0.526  0.00  0.00    +0.000 C 
ATOM     39  C   UNL     1      -4.617 -39.685   3.042  0.00  0.00    +0.000 C 
ATOM     40  C   UNL     1      -2.820 -36.839   1.622  0.00  0.00    +0.000 C 
ATOM     41  C   UNL     1      -4.978 -37.293   0.303  0.00  0.00    +0.000 C 
ATOM     42  C   UNL     1      -3.232 -40.349   1.025  0.00  0.00    +0.000 C 
ATOM     43  C   UNL     1      -3.935 -40.783   2.323  0.00  0.00    +0.000 C 
ATOM     44  C   UNL     1      -2.504 -41.459   0.257  0.00  0.00    +0.000 C 
BRANCH  39  45
ATOM     45  O   UNL     1      -5.294 -39.877   4.215  0.00  0.00    +0.000 OA
ATOM     46  H   UNL     1      -5.616 -39.024   4.573  0.00  0.00    +0.000 HD
ENDBRANCH  39  45
ENDBRANCH  33  38
ENDBRANCH  31  34
ENDBRANCH  30  31
ENDBRANCH  28  30
ENDBRANCH  26  29
ENDBRANCH  25  26
ENDBRANCH   1  25
TORSDOF 16
ENDMDL
MODEL 8
REMARK VINA RESULT:      -5.7     18.040     21.415
REMARK  Name = 5281224_Astaxanthin.pdbqt.pdb
REMARK  16 active torsions:
REMARK  status: ('A' for Active; 'I' for Inactive)
REMARK    1  A    between atoms: C_1  and  C_5
REMARK    2  A    between atoms: C_2  and  C_27
REMARK    3  A    between atoms: C_3  and  C_5
REMARK    4  A    between atoms: C_3  and  C_7
REMARK    5  A    between atoms: C_6  and  C_10
REMARK    6  A    between atoms: C_8  and  C_10
REMARK    7  A    between atoms: C_8  and  C_12
REMARK    8  A    between atoms: C_11  and  C_16
REMARK    9  A    between atoms: C_17  and  O_23
REMARK   10  A    between atoms: C_25  and  C_27
REMARK   11  A    between atoms: C_25  and  C_29
REMARK   12  A    between atoms: C_28  and  C_32
REMARK   13  A    between atoms: C_30  and  C_32
REMARK   14  A    between atoms: C_30  and  C_34
REMARK   15  A    between atoms: C_33  and  C_38
REMARK   16  A    between atoms: C_39  and  O_45
REMARK                            x       y       z     vdW  Elec       q    Type
REMARK                         _______ _______ _______ _____ _____    ______ ____
ROOT
ATOM      1  C   UNL     1      -5.842 -34.027 -11.261  0.00  0.00    +0.000 C 
ATOM      2  C   UNL     1      -4.981 -34.431 -10.530  0.00  0.00    +0.000 C 
ENDROOT
BRANCH   2   3
ATOM      3  C   UNL     1      -3.876 -34.939  -9.595  0.00  0.00    +0.000 C 
BRANCH   3   4
ATOM      4  C   UNL     1      -2.943 -35.374  -8.808  0.00  0.00    +0.000 C 
ATOM      5  C   UNL     1      -1.620 -35.790  -9.375  0.00  0.00    +0.000 C 
BRANCH   4   7
ATOM      6  C   UNL     1      -3.422 -35.662  -6.252  0.00  0.00    +0.000 C 
ATOM      7  C   UNL     1      -3.202 -35.532  -7.425  0.00  0.00    +0.000 C 
BRANCH   6   8
ATOM      8  C   UNL     1      -3.704 -35.825  -4.754  0.00  0.00    +0.000 C 
BRANCH   8   9
ATOM      9  C   UNL     1      -3.939 -35.970  -3.486  0.00  0.00    +0.000 C 
ATOM     10  C   UNL     1      -2.884 -36.545  -2.592  0.00  0.00    +0.000 C 
BRANCH   9  12
ATOM     11  C   UNL     1      -6.144 -35.017  -2.441  0.00  0.00    +0.000 C 
ATOM     12  C   UNL     1      -5.131 -35.445  -2.928  0.00  0.00    +0.000 C 
BRANCH  11  16
ATOM     13  O   UNL     1      -9.101 -34.483   1.431  0.00  0.00    +0.000 OA
ATOM     14  C   UNL     1      -8.340 -33.725  -2.758  0.00  0.00    +0.000 C 
ATOM     15  C   UNL     1      -9.454 -33.357  -1.901  0.00  0.00    +0.000 C 
ATOM     16  C   UNL     1      -7.367 -34.516  -1.845  0.00  0.00    +0.000 C 
ATOM     17  C   UNL     1      -9.837 -33.523  -0.574  0.00  0.00    +0.000 C 
ATOM     18  C   UNL     1      -7.624 -32.456  -3.278  0.00  0.00    +0.000 C 
ATOM     19  C   UNL     1      -8.827 -34.639  -3.904  0.00  0.00    +0.000 C 
ATOM     20  C   UNL     1      -7.619 -34.748  -0.523  0.00  0.00    +0.000 C 
ATOM     21  C   UNL     1      -8.867 -34.283   0.246  0.00  0.00    +0.000 C 
ATOM     22  C   UNL     1      -6.584 -35.529   0.298  0.00  0.00    +0.000 C 
BRANCH  17  23
ATOM     23  O   UNL     1     -11.005 -33.024  -0.065  0.00  0.00    +0.000 OA
ATOM     24  H   UNL     1     -10.866 -32.665   0.835  0.00  0.00    +0.000 HD
ENDBRANCH  17  23
ENDBRANCH  11  16
ENDBRANCH   9  12
ENDBRANCH   8   9
ENDBRANCH   6   8
ENDBRANCH   4   7
ENDBRANCH   3   4
ENDBRANCH   2   3
BRANCH   1  25
ATOM     25  C   UNL     1      -6.937 -33.503 -12.197  0.00  0.00    +0.000 C 
BRANCH  25  26
ATOM     26  C   UNL     1      -7.864 -33.056 -12.985  0.00  0.00    +0.000 C 
ATOM     27  C   UNL     1      -9.037 -33.925 -13.328  0.00  0.00    +0.000 C 
BRANCH  26  29
ATOM     28  C   UNL     1      -7.610 -30.703 -14.099  0.00  0.00    +0.000 C 
ATOM     29  C   UNL     1      -7.727 -31.784 -13.589  0.00  0.00    +0.000 C 
BRANCH  28  30
ATOM     30  C   UNL     1      -7.461 -29.320 -14.747  0.00  0.00    +0.000 C 
BRANCH  30  31
ATOM     31  C   UNL     1      -7.340 -28.150 -15.289  0.00  0.00    +0.000 C 
ATOM     32  C   UNL     1      -8.297 -27.055 -14.926  0.00  0.00    +0.000 C 
BRANCH  31  34
ATOM     33  C   UNL     1      -5.262 -27.598 -16.787  0.00  0.00    +0.000 C 
ATOM     34  C   UNL     1      -6.212 -27.862 -16.098  0.00  0.00    +0.000 C 
BRANCH  33  38
ATOM     35  O   UNL     1      -3.258 -25.012 -20.436  0.00  0.00    +0.000 OA
ATOM     36  C   UNL     1      -2.791 -28.005 -17.350  0.00  0.00    +0.000 C 
ATOM     37  C   UNL     1      -1.852 -27.470 -18.321  0.00  0.00    +0.000 C 
ATOM     38  C   UNL     1      -4.125 -27.262 -17.622  0.00  0.00    +0.000 C 
ATOM     39  C   UNL     1      -1.850 -26.534 -19.351  0.00  0.00    +0.000 C 
ATOM     40  C   UNL     1      -2.316 -27.681 -15.914  0.00  0.00    +0.000 C 
ATOM     41  C   UNL     1      -2.990 -29.520 -17.578  0.00  0.00    +0.000 C 
ATOM     42  C   UNL     1      -4.260 -26.317 -18.598  0.00  0.00    +0.000 C 
ATOM     43  C   UNL     1      -3.149 -25.858 -19.557  0.00  0.00    +0.000 C 
ATOM     44  C   UNL     1      -5.620 -25.630 -18.775  0.00  0.00    +0.000 C 
BRANCH  39  45
ATOM     45  O   UNL     1      -0.743 -26.257 -20.106  0.00  0.00    +0.000 OA
ATOM     46  H   UNL     1       0.033 -26.760 -19.781  0.00  0.00    +0.000 HD
ENDBRANCH  39  45
ENDBRANCH  33  38
ENDBRANCH  31  34
ENDBRANCH  30  31
ENDBRANCH  28  30
ENDBRANCH  26  29
ENDBRANCH  25  26
ENDBRANCH   1  25
TORSDOF 16
ENDMDL
MODEL 9
REMARK VINA RESULT:      -5.7     18.560     23.476
REMARK  Name = 5281224_Astaxanthin.pdbqt.pdb
REMARK  16 active torsions:
REMARK  status: ('A' for Active; 'I' for Inactive)
REMARK    1  A    between atoms: C_1  and  C_5
REMARK    2  A    between atoms: C_2  and  C_27
REMARK    3  A    between atoms: C_3  and  C_5
REMARK    4  A    between atoms: C_3  and  C_7
REMARK    5  A    between atoms: C_6  and  C_10
REMARK    6  A    between atoms: C_8  and  C_10
REMARK    7  A    between atoms: C_8  and  C_12
REMARK    8  A    between atoms: C_11  and  C_16
REMARK    9  A    between atoms: C_17  and  O_23
REMARK   10  A    between atoms: C_25  and  C_27
REMARK   11  A    between atoms: C_25  and  C_29
REMARK   12  A    between atoms: C_28  and  C_32
REMARK   13  A    between atoms: C_30  and  C_32
REMARK   14  A    between atoms: C_30  and  C_34
REMARK   15  A    between atoms: C_33  and  C_38
REMARK   16  A    between atoms: C_39  and  O_45
REMARK                            x       y       z     vdW  Elec       q    Type
REMARK                         _______ _______ _______ _____ _____    ______ ____
ROOT
ATOM      1  C   UNL     1      -8.493 -32.059   0.602  0.00  0.00    +0.000 C 
ATOM      2  C   UNL     1      -8.664 -31.792   1.759  0.00  0.00    +0.000 C 
ENDROOT
BRANCH   2   3
ATOM      3  C   UNL     1      -8.884 -31.442   3.237  0.00  0.00    +0.000 C 
BRANCH   3   4
ATOM      4  C   UNL     1      -9.073 -31.151   4.485  0.00  0.00    +0.000 C 
ATOM      5  C   UNL     1     -10.291 -30.381   4.897  0.00  0.00    +0.000 C 
BRANCH   4   7
ATOM      6  C   UNL     1      -7.261 -31.775   6.266  0.00  0.00    +0.000 C 
ATOM      7  C   UNL     1      -8.092 -31.491   5.447  0.00  0.00    +0.000 C 
BRANCH   6   8
ATOM      8  C   UNL     1      -6.201 -32.136   7.313  0.00  0.00    +0.000 C 
BRANCH   8   9
ATOM      9  C   UNL     1      -5.300 -32.434   8.197  0.00  0.00    +0.000 C 
ATOM     10  C   UNL     1      -4.075 -31.583   8.332  0.00  0.00    +0.000 C 
BRANCH   9  12
ATOM     11  C   UNL     1      -5.748 -34.338   9.941  0.00  0.00    +0.000 C 
ATOM     12  C   UNL     1      -5.549 -33.470   9.132  0.00  0.00    +0.000 C 
BRANCH  11  16
ATOM     13  O   UNL     1      -8.096 -38.376  11.424  0.00  0.00    +0.000 OA
ATOM     14  C   UNL     1      -5.130 -35.333  12.224  0.00  0.00    +0.000 C 
ATOM     15  C   UNL     1      -5.570 -36.476  13.006  0.00  0.00    +0.000 C 
ATOM     16  C   UNL     1      -5.977 -35.376  10.926  0.00  0.00    +0.000 C 
ATOM     17  C   UNL     1      -6.488 -37.515  12.892  0.00  0.00    +0.000 C 
ATOM     18  C   UNL     1      -3.635 -35.482  11.857  0.00  0.00    +0.000 C 
ATOM     19  C   UNL     1      -5.421 -34.021  12.986  0.00  0.00    +0.000 C 
ATOM     20  C   UNL     1      -6.910 -36.343  10.685  0.00  0.00    +0.000 C 
ATOM     21  C   UNL     1      -7.263 -37.503  11.631  0.00  0.00    +0.000 C 
ATOM     22  C   UNL     1      -7.686 -36.304   9.361  0.00  0.00    +0.000 C 
BRANCH  17  23
ATOM     23  O   UNL     1      -6.659 -38.471  13.856  0.00  0.00    +0.000 OA
ATOM     24  H   UNL     1      -7.047 -39.284  13.474  0.00  0.00    +0.000 HD
ENDBRANCH  17  23
ENDBRANCH  11  16
ENDBRANCH   9  12
ENDBRANCH   8   9
ENDBRANCH   6   8
ENDBRANCH   4   7
ENDBRANCH   3   4
ENDBRANCH   2   3
BRANCH   1  25
ATOM     25  C   UNL     1      -8.275 -32.390  -0.879  0.00  0.00    +0.000 C 
BRANCH  25  26
ATOM     26  C   UNL     1      -8.087 -32.665  -2.131  0.00  0.00    +0.000 C 
ATOM     27  C   UNL     1      -9.194 -32.445  -3.119  0.00  0.00    +0.000 C 
BRANCH  26  29
ATOM     28  C   UNL     1      -5.841 -33.755  -2.911  0.00  0.00    +0.000 C 
ATOM     29  C   UNL     1      -6.872 -33.254  -2.552  0.00  0.00    +0.000 C 
BRANCH  28  30
ATOM     30  C   UNL     1      -4.526 -34.398  -3.371  0.00  0.00    +0.000 C 
BRANCH  30  31
ATOM     31  C   UNL     1      -3.416 -34.936  -3.767  0.00  0.00    +0.000 C 
ATOM     32  C   UNL     1      -2.631 -34.302  -4.875  0.00  0.00    +0.000 C 
BRANCH  31  34
ATOM     33  C   UNL     1      -2.387 -36.944  -2.436  0.00  0.00    +0.000 C 
ATOM     34  C   UNL     1      -2.869 -36.029  -3.049  0.00  0.00    +0.000 C 
BRANCH  33  38
ATOM     35  O   UNL     1       0.610 -40.817  -2.217  0.00  0.00    +0.000 OA
ATOM     36  C   UNL     1      -2.192 -38.206  -0.209  0.00  0.00    +0.000 C 
ATOM     37  C   UNL     1      -1.448 -39.362   0.261  0.00  0.00    +0.000 C 
ATOM     38  C   UNL     1      -1.788 -38.039  -1.697  0.00  0.00    +0.000 C 
ATOM     39  C   UNL     1      -0.536 -40.282  -0.248  0.00  0.00    +0.000 C 
ATOM     40  C   UNL     1      -1.768 -36.942   0.575  0.00  0.00    +0.000 C 
ATOM     41  C   UNL     1      -3.710 -38.476  -0.116  0.00  0.00    +0.000 C 
ATOM     42  C   UNL     1      -0.901 -38.869  -2.320  0.00  0.00    +0.000 C 
ATOM     43  C   UNL     1      -0.188 -40.066  -1.669  0.00  0.00    +0.000 C 
ATOM     44  C   UNL     1      -0.556 -38.607  -3.792  0.00  0.00    +0.000 C 
BRANCH  39  45
ATOM     45  O   UNL     1      -0.002 -41.295   0.500  0.00  0.00    +0.000 OA
ATOM     46  H   UNL     1       0.010 -41.056   1.450  0.00  0.00    +0.000 HD
ENDBRANCH  39  45
ENDBRANCH  33  38
ENDBRANCH  31  34
ENDBRANCH  30  31
ENDBRANCH  28  30
ENDBRANCH  26  29
ENDBRANCH  25  26
ENDBRANCH   1  25
TORSDOF 16
ENDMDL
