MODEL 1
REMARK VINA RESULT:      -6.1      0.000      0.000
REMARK  Name = 5289155_Peridinin.pdbqt.pdb
REMARK  13 active torsions:
REMARK  status: ('A' for Active; 'I' for Inactive)
REMARK    1  A    between atoms: C_1  and  C_3
REMARK    2  A    between atoms: C_3  and  C_25
REMARK    3  A    between atoms: C_6  and  C_12
REMARK    4  A    between atoms: C_11  and  C_14
REMARK    5  A    between atoms: C_19  and  O_23
REMARK    6  A    between atoms: C_26  and  C_28
REMARK    7  A    between atoms: C_27  and  C_31
REMARK    8  A    between atoms: C_29  and  C_31
REMARK    9  A    between atoms: C_29  and  C_42
REMARK   10  A    between atoms: C_33  and  O_43
REMARK   11  A    between atoms: C_35  and  O_45
REMARK   12  A    between atoms: C_37  and  C_41
REMARK   13  A    between atoms: O_45  and  C_47
REMARK                            x       y       z     vdW  Elec       q    Type
REMARK                         _______ _______ _______ _____ _____    ______ ____
ROOT
ATOM      1  C   UNL     1     -13.698 -20.768   1.052  0.00  0.00    +0.000 C 
ENDROOT
BRANCH   1   2
ATOM      2  C   UNL     1     -13.814 -19.598   0.506  0.00  0.00    +0.000 C 
ATOM      3  C   UNL     1     -13.145 -18.410   1.124  0.00  0.00    +0.000 C 
ATOM      4  O   UNL     1     -16.244 -20.182  -2.091  0.00  0.00    +0.000 OA
ATOM      5  O   UNL     1     -17.949 -19.940  -3.643  0.00  0.00    +0.000 OA
ATOM      6  C   UNL     1     -16.310 -18.198  -3.303  0.00  0.00    +0.000 C 
ATOM      7  C   UNL     1     -15.297 -18.120  -2.521  0.00  0.00    +0.000 C 
ATOM      8  C   UNL     1     -16.958 -19.512  -3.079  0.00  0.00    +0.000 C 
ATOM      9  C   UNL     1     -15.204 -19.306  -1.797  0.00  0.00    +0.000 C 
ATOM     10  C   UNL     1     -14.541 -19.447  -0.696  0.00  0.00    +0.000 C 
BRANCH   6  12
ATOM     11  C   UNL     1     -17.038 -16.311  -4.951  0.00  0.00    +0.000 C 
ATOM     12  C   UNL     1     -16.707 -17.179  -4.189  0.00  0.00    +0.000 C 
BRANCH  11  14
ATOM     13  O   UNL     1     -17.090 -15.646  -7.240  0.00  0.00    +0.000 OA
ATOM     14  C   UNL     1     -17.428 -15.259  -5.877  0.00  0.00    +0.000 C 
ATOM     15  C   UNL     1     -18.485 -15.559  -6.961  0.00  0.00    +0.000 C 
ATOM     16  C   UNL     1     -17.172 -13.760  -5.492  0.00  0.00    +0.000 C 
ATOM     17  C   UNL     1     -19.095 -14.440  -7.605  0.00  0.00    +0.000 C 
ATOM     18  C   UNL     1     -17.930 -12.938  -6.441  0.00  0.00    +0.000 C 
ATOM     19  C   UNL     1     -18.890 -13.057  -7.463  0.00  0.00    +0.000 C 
ATOM     20  C   UNL     1     -19.220 -16.897  -7.077  0.00  0.00    +0.000 C 
ATOM     21  C   UNL     1     -17.733 -13.595  -4.055  0.00  0.00    +0.000 C 
ATOM     22  C   UNL     1     -15.646 -13.540  -5.567  0.00  0.00    +0.000 C 
BRANCH  19  23
ATOM     23  O   UNL     1     -19.894 -12.146  -7.605  0.00  0.00    +0.000 OA
ATOM     24  H   UNL     1     -20.356 -12.233  -8.458  0.00  0.00    +0.000 HD
ENDBRANCH  19  23
ENDBRANCH  11  14
ENDBRANCH   6  12
ENDBRANCH   1   2
BRANCH   1  25
ATOM     25  C   UNL     1     -13.562 -22.152   1.697  0.00  0.00    +0.000 C 
ATOM     26  C   UNL     1     -13.455 -23.238   2.196  0.00  0.00    +0.000 C 
BRANCH  26  28
ATOM     27  C   UNL     1     -13.215 -25.718   3.315  0.00  0.00    +0.000 C 
ATOM     28  C   UNL     1     -13.320 -24.627   2.827  0.00  0.00    +0.000 C 
BRANCH  27  29
ATOM     29  C   UNL     1     -13.083 -27.115   3.934  0.00  0.00    +0.000 C 
BRANCH  29  30
ATOM     30  C   UNL     1     -12.960 -28.294   4.457  0.00  0.00    +0.000 C 
ATOM     31  C   UNL     1     -13.479 -28.569   5.836  0.00  0.00    +0.000 C 
BRANCH  30  33
ATOM     32  C   UNL     1     -11.712 -30.183   3.137  0.00  0.00    +0.000 C 
ATOM     33  C   UNL     1     -12.284 -29.316   3.744  0.00  0.00    +0.000 C 
BRANCH  32  39
ATOM     34  C   UNL     1     -10.191 -32.175   3.160  0.00  0.00    +0.000 C 
ATOM     35  C   UNL     1     -11.162 -31.201   0.952  0.00  0.00    +0.000 C 
ATOM     36  C   UNL     1      -9.865 -33.281   2.249  0.00  0.00    +0.000 C 
ATOM     37  C   UNL     1     -10.041 -33.638   0.897  0.00  0.00    +0.000 C 
ATOM     38  C   UNL     1     -10.707 -32.486   0.431  0.00  0.00    +0.000 C 
ATOM     39  C   UNL     1     -11.083 -31.128   2.468  0.00  0.00    +0.000 C 
ATOM     40  C   UNL     1     -10.955 -32.769   4.383  0.00  0.00    +0.000 C 
ATOM     41  C   UNL     1      -8.888 -31.479   3.636  0.00  0.00    +0.000 C 
ATOM     42  C   UNL     1     -10.401 -30.038   0.308  0.00  0.00    +0.000 C 
BRANCH  35  43
ATOM     43  O   UNL     1     -12.503 -31.028   0.548  0.00  0.00    +0.000 OA
ATOM     44  H   UNL     1     -12.431 -31.152  -0.416  0.00  0.00    +0.000 HD
ENDBRANCH  35  43
BRANCH  37  45
ATOM     45  O   UNL     1      -8.965 -34.162   0.191  0.00  0.00    +0.000 OA
BRANCH  45  47
ATOM     46  O   UNL     1      -9.933 -35.970  -0.947  0.00  0.00    +0.000 OA
ATOM     47  C   UNL     1      -9.203 -35.460  -0.117  0.00  0.00    +0.000 C 
ATOM     48  C   UNL     1      -8.446 -36.433   0.717  0.00  0.00    +0.000 C 
ENDBRANCH  45  47
ENDBRANCH  37  45
ENDBRANCH  32  39
ENDBRANCH  30  33
ENDBRANCH  29  30
ENDBRANCH  27  29
ENDBRANCH  26  28
ENDBRANCH   1  25
TORSDOF 13
ENDMDL
MODEL 2
REMARK VINA RESULT:      -6.1      6.985      9.365
REMARK  Name = 5289155_Peridinin.pdbqt.pdb
REMARK  13 active torsions:
REMARK  status: ('A' for Active; 'I' for Inactive)
REMARK    1  A    between atoms: C_1  and  C_3
REMARK    2  A    between atoms: C_3  and  C_25
REMARK    3  A    between atoms: C_6  and  C_12
REMARK    4  A    between atoms: C_11  and  C_14
REMARK    5  A    between atoms: C_19  and  O_23
REMARK    6  A    between atoms: C_26  and  C_28
REMARK    7  A    between atoms: C_27  and  C_31
REMARK    8  A    between atoms: C_29  and  C_31
REMARK    9  A    between atoms: C_29  and  C_42
REMARK   10  A    between atoms: C_33  and  O_43
REMARK   11  A    between atoms: C_35  and  O_45
REMARK   12  A    between atoms: C_37  and  C_41
REMARK   13  A    between atoms: O_45  and  C_47
REMARK                            x       y       z     vdW  Elec       q    Type
REMARK                         _______ _______ _______ _____ _____    ______ ____
ROOT
ATOM      1  C   UNL     1     -12.577 -18.839   1.189  0.00  0.00    +0.000 C 
ENDROOT
BRANCH   1   2
ATOM      2  C   UNL     1     -12.291 -17.613   0.880  0.00  0.00    +0.000 C 
ATOM      3  C   UNL     1     -13.250 -16.795   0.072  0.00  0.00    +0.000 C 
ATOM      4  O   UNL     1      -8.879 -17.300   2.001  0.00  0.00    +0.000 OA
ATOM      5  O   UNL     1      -6.659 -16.678   2.236  0.00  0.00    +0.000 OA
ATOM      6  C   UNL     1      -8.369 -15.046   1.739  0.00  0.00    +0.000 C 
ATOM      7  C   UNL     1      -9.636 -15.160   1.577  0.00  0.00    +0.000 C 
ATOM      8  C   UNL     1      -7.824 -16.394   2.025  0.00  0.00    +0.000 C 
ATOM      9  C   UNL     1      -9.988 -16.495   1.757  0.00  0.00    +0.000 C 
ATOM     10  C   UNL     1     -11.087 -17.031   1.338  0.00  0.00    +0.000 C 
BRANCH   6  12
ATOM     11  C   UNL     1      -7.068 -12.793   1.542  0.00  0.00    +0.000 C 
ATOM     12  C   UNL     1      -7.663 -13.833   1.635  0.00  0.00    +0.000 C 
BRANCH  11  14
ATOM     13  O   UNL     1      -5.235 -11.678   0.504  0.00  0.00    +0.000 OA
ATOM     14  C   UNL     1      -6.356 -11.531   1.424  0.00  0.00    +0.000 C 
ATOM     15  C   UNL     1      -6.286 -10.828   0.052  0.00  0.00    +0.000 C 
ATOM     16  C   UNL     1      -6.098 -10.667   2.707  0.00  0.00    +0.000 C 
ATOM     17  C   UNL     1      -5.902  -9.453   0.041  0.00  0.00    +0.000 C 
ATOM     18  C   UNL     1      -5.656  -9.345   2.254  0.00  0.00    +0.000 C 
ATOM     19  C   UNL     1      -5.526  -8.582   1.079  0.00  0.00    +0.000 C 
ATOM     20  C   UNL     1      -6.999 -11.347  -1.201  0.00  0.00    +0.000 C 
ATOM     21  C   UNL     1      -7.469 -10.570   3.428  0.00  0.00    +0.000 C 
ATOM     22  C   UNL     1      -5.038 -11.420   3.540  0.00  0.00    +0.000 C 
BRANCH  19  23
ATOM     23  O   UNL     1      -5.812  -7.250   1.060  0.00  0.00    +0.000 OA
ATOM     24  H   UNL     1      -5.889  -6.899   0.155  0.00  0.00    +0.000 HD
ENDBRANCH  19  23
ENDBRANCH  11  14
ENDBRANCH   6  12
ENDBRANCH   1   2
BRANCH   1  25
ATOM     25  C   UNL     1     -12.917 -20.288   1.554  0.00  0.00    +0.000 C 
ATOM     26  C   UNL     1     -13.180 -21.422   1.845  0.00  0.00    +0.000 C 
BRANCH  26  28
ATOM     27  C   UNL     1     -13.772 -24.003   2.514  0.00  0.00    +0.000 C 
ATOM     28  C   UNL     1     -13.512 -22.869   2.223  0.00  0.00    +0.000 C 
BRANCH  27  29
ATOM     29  C   UNL     1     -14.108 -25.455   2.878  0.00  0.00    +0.000 C 
BRANCH  29  30
ATOM     30  C   UNL     1     -14.402 -26.678   3.188  0.00  0.00    +0.000 C 
ATOM     31  C   UNL     1     -15.760 -27.231   2.880  0.00  0.00    +0.000 C 
BRANCH  30  33
ATOM     32  C   UNL     1     -12.652 -28.164   4.451  0.00  0.00    +0.000 C 
ATOM     33  C   UNL     1     -13.454 -27.482   3.870  0.00  0.00    +0.000 C 
BRANCH  32  39
ATOM     34  C   UNL     1     -11.580 -30.408   4.763  0.00  0.00    +0.000 C 
ATOM     35  C   UNL     1     -10.944 -28.356   6.230  0.00  0.00    +0.000 C 
ATOM     36  C   UNL     1     -10.355 -30.931   5.384  0.00  0.00    +0.000 C 
ATOM     37  C   UNL     1      -9.343 -30.509   6.269  0.00  0.00    +0.000 C 
ATOM     38  C   UNL     1      -9.812 -29.212   6.566  0.00  0.00    +0.000 C 
ATOM     39  C   UNL     1     -11.777 -28.916   5.088  0.00  0.00    +0.000 C 
ATOM     40  C   UNL     1     -11.449 -30.582   3.218  0.00  0.00    +0.000 C 
ATOM     41  C   UNL     1     -12.814 -31.195   5.281  0.00  0.00    +0.000 C 
ATOM     42  C   UNL     1     -11.817 -28.078   7.458  0.00  0.00    +0.000 C 
BRANCH  35  43
ATOM     43  O   UNL     1     -10.431 -27.097   5.855  0.00  0.00    +0.000 OA
ATOM     44  H   UNL     1      -9.474 -27.233   5.983  0.00  0.00    +0.000 HD
ENDBRANCH  35  43
BRANCH  37  45
ATOM     45  O   UNL     1      -8.939 -31.361   7.289  0.00  0.00    +0.000 OA
BRANCH  45  47
ATOM     46  O   UNL     1      -7.072 -30.473   8.398  0.00  0.00    +0.000 OA
ATOM     47  C   UNL     1      -7.626 -31.163   7.562  0.00  0.00    +0.000 C 
ATOM     48  C   UNL     1      -6.699 -31.915   6.673  0.00  0.00    +0.000 C 
ENDBRANCH  45  47
ENDBRANCH  37  45
ENDBRANCH  32  39
ENDBRANCH  30  33
ENDBRANCH  29  30
ENDBRANCH  27  29
ENDBRANCH  26  28
ENDBRANCH   1  25
TORSDOF 13
ENDMDL
MODEL 3
REMARK VINA RESULT:      -5.9     11.729     14.290
REMARK  Name = 5289155_Peridinin.pdbqt.pdb
REMARK  13 active torsions:
REMARK  status: ('A' for Active; 'I' for Inactive)
REMARK    1  A    between atoms: C_1  and  C_3
REMARK    2  A    between atoms: C_3  and  C_25
REMARK    3  A    between atoms: C_6  and  C_12
REMARK    4  A    between atoms: C_11  and  C_14
REMARK    5  A    between atoms: C_19  and  O_23
REMARK    6  A    between atoms: C_26  and  C_28
REMARK    7  A    between atoms: C_27  and  C_31
REMARK    8  A    between atoms: C_29  and  C_31
REMARK    9  A    between atoms: C_29  and  C_42
REMARK   10  A    between atoms: C_33  and  O_43
REMARK   11  A    between atoms: C_35  and  O_45
REMARK   12  A    between atoms: C_37  and  C_41
REMARK   13  A    between atoms: O_45  and  C_47
REMARK                            x       y       z     vdW  Elec       q    Type
REMARK                         _______ _______ _______ _____ _____    ______ ____
ROOT
ATOM      1  C   UNL     1     -20.991 -22.590  -9.479  0.00  0.00    +0.000 C 
ENDROOT
BRANCH   1   2
ATOM      2  C   UNL     1     -20.889 -21.715  -8.529  0.00  0.00    +0.000 C 
ATOM      3  C   UNL     1     -21.492 -21.988  -7.186  0.00  0.00    +0.000 C 
ATOM      4  O   UNL     1     -19.439 -18.884 -10.224  0.00  0.00    +0.000 OA
ATOM      5  O   UNL     1     -18.839 -16.739 -10.868  0.00  0.00    +0.000 OA
ATOM      6  C   UNL     1     -18.964 -17.356  -8.536  0.00  0.00    +0.000 C 
ATOM      7  C   UNL     1     -19.261 -18.464  -7.960  0.00  0.00    +0.000 C 
ATOM      8  C   UNL     1     -19.053 -17.566 -10.000  0.00  0.00    +0.000 C 
ATOM      9  C   UNL     1     -19.523 -19.416  -8.941  0.00  0.00    +0.000 C 
ATOM     10  C   UNL     1     -20.176 -20.514  -8.747  0.00  0.00    +0.000 C 
BRANCH   6  12
ATOM     11  C   UNL     1     -18.348 -15.161  -7.267  0.00  0.00    +0.000 C 
ATOM     12  C   UNL     1     -18.637 -16.170  -7.852  0.00  0.00    +0.000 C 
BRANCH  11  14
ATOM     13  O   UNL     1     -17.722 -12.874  -7.505  0.00  0.00    +0.000 OA
ATOM     14  C   UNL     1     -17.990 -13.945  -6.555  0.00  0.00    +0.000 C 
ATOM     15  C   UNL     1     -18.882 -12.694  -6.697  0.00  0.00    +0.000 C 
ATOM     16  C   UNL     1     -17.036 -14.031  -5.313  0.00  0.00    +0.000 C 
ATOM     17  C   UNL     1     -18.712 -11.657  -5.731  0.00  0.00    +0.000 C 
ATOM     18  C   UNL     1     -17.103 -12.737  -4.628  0.00  0.00    +0.000 C 
ATOM     19  C   UNL     1     -17.828 -11.530  -4.645  0.00  0.00    +0.000 C 
ATOM     20  C   UNL     1     -20.189 -12.675  -7.495  0.00  0.00    +0.000 C 
ATOM     21  C   UNL     1     -17.617 -15.156  -4.416  0.00  0.00    +0.000 C 
ATOM     22  C   UNL     1     -15.631 -14.369  -5.858  0.00  0.00    +0.000 C 
BRANCH  19  23
ATOM     23  O   UNL     1     -18.167 -10.888  -3.492  0.00  0.00    +0.000 OA
ATOM     24  H   UNL     1     -18.977 -11.250  -3.090  0.00  0.00    +0.000 HD
ENDBRANCH  19  23
ENDBRANCH  11  14
ENDBRANCH   6  12
ENDBRANCH   1   2
BRANCH   1  25
ATOM     25  C   UNL     1     -21.110 -23.626 -10.603  0.00  0.00    +0.000 C 
ATOM     26  C   UNL     1     -21.204 -24.440 -11.479  0.00  0.00    +0.000 C 
BRANCH  26  28
ATOM     27  C   UNL     1     -21.422 -26.301 -13.467  0.00  0.00    +0.000 C 
ATOM     28  C   UNL     1     -21.325 -25.486 -12.592  0.00  0.00    +0.000 C 
BRANCH  27  29
ATOM     29  C   UNL     1     -21.554 -27.340 -14.588  0.00  0.00    +0.000 C 
BRANCH  29  30
ATOM     30  C   UNL     1     -21.675 -28.219 -15.531  0.00  0.00    +0.000 C 
ATOM     31  C   UNL     1     -22.267 -27.835 -16.853  0.00  0.00    +0.000 C 
BRANCH  30  33
ATOM     32  C   UNL     1     -20.974 -30.707 -15.097  0.00  0.00    +0.000 C 
ATOM     33  C   UNL     1     -21.297 -29.565 -15.295  0.00  0.00    +0.000 C 
BRANCH  32  39
ATOM     34  C   UNL     1     -20.886 -33.083 -15.890  0.00  0.00    +0.000 C 
ATOM     35  C   UNL     1     -19.957 -32.364 -13.569  0.00  0.00    +0.000 C 
ATOM     36  C   UNL     1     -20.127 -34.295 -15.553  0.00  0.00    +0.000 C 
ATOM     37  C   UNL     1     -19.291 -34.780 -14.527  0.00  0.00    +0.000 C 
ATOM     38  C   UNL     1     -19.328 -33.678 -13.649  0.00  0.00    +0.000 C 
ATOM     39  C   UNL     1     -20.615 -31.956 -14.877  0.00  0.00    +0.000 C 
ATOM     40  C   UNL     1     -20.438 -32.614 -17.308  0.00  0.00    +0.000 C 
ATOM     41  C   UNL     1     -22.407 -33.394 -15.891  0.00  0.00    +0.000 C 
ATOM     42  C   UNL     1     -20.955 -32.293 -12.409  0.00  0.00    +0.000 C 
BRANCH  35  43
ATOM     43  O   UNL     1     -18.953 -31.428 -13.244  0.00  0.00    +0.000 OA
ATOM     44  H   UNL     1     -18.184 -31.798 -13.718  0.00  0.00    +0.000 HD
ENDBRANCH  35  43
BRANCH  37  45
ATOM     45  O   UNL     1     -19.488 -36.068 -14.047  0.00  0.00    +0.000 OA
BRANCH  45  47
ATOM     46  O   UNL     1     -17.950 -37.058 -12.578  0.00  0.00    +0.000 OA
ATOM     47  C   UNL     1     -18.306 -36.599 -13.647  0.00  0.00    +0.000 C 
ATOM     48  C   UNL     1     -17.256 -36.608 -14.702  0.00  0.00    +0.000 C 
ENDBRANCH  45  47
ENDBRANCH  37  45
ENDBRANCH  32  39
ENDBRANCH  30  33
ENDBRANCH  29  30
ENDBRANCH  27  29
ENDBRANCH  26  28
ENDBRANCH   1  25
TORSDOF 13
ENDMDL
MODEL 4
REMARK VINA RESULT:      -5.8      6.021      8.949
REMARK  Name = 5289155_Peridinin.pdbqt.pdb
REMARK  13 active torsions:
REMARK  status: ('A' for Active; 'I' for Inactive)
REMARK    1  A    between atoms: C_1  and  C_3
REMARK    2  A    between atoms: C_3  and  C_25
REMARK    3  A    between atoms: C_6  and  C_12
REMARK    4  A    between atoms: C_11  and  C_14
REMARK    5  A    between atoms: C_19  and  O_23
REMARK    6  A    between atoms: C_26  and  C_28
REMARK    7  A    between atoms: C_27  and  C_31
REMARK    8  A    between atoms: C_29  and  C_31
REMARK    9  A    between atoms: C_29  and  C_42
REMARK   10  A    between atoms: C_33  and  O_43
REMARK   11  A    between atoms: C_35  and  O_45
REMARK   12  A    between atoms: C_37  and  C_41
REMARK   13  A    between atoms: O_45  and  C_47
REMARK                            x       y       z     vdW  Elec       q    Type
REMARK                         _______ _______ _______ _____ _____    ______ ____
ROOT
ATOM      1  C   UNL     1     -14.110 -27.221   3.330  0.00  0.00    +0.000 C 
ENDROOT
BRANCH   1   2
ATOM      2  C   UNL     1     -15.035 -26.419   2.906  0.00  0.00    +0.000 C 
ATOM      3  C   UNL     1     -16.411 -26.939   2.623  0.00  0.00    +0.000 C 
ATOM      4  O   UNL     1     -13.216 -23.365   2.313  0.00  0.00    +0.000 OA
ATOM      5  O   UNL     1     -12.500 -21.322   1.482  0.00  0.00    +0.000 OA
ATOM      6  C   UNL     1     -14.848 -21.785   1.811  0.00  0.00    +0.000 C 
ATOM      7  C   UNL     1     -15.459 -22.821   2.256  0.00  0.00    +0.000 C 
ATOM      8  C   UNL     1     -13.394 -22.072   1.832  0.00  0.00    +0.000 C 
ATOM      9  C   UNL     1     -14.512 -23.782   2.599  0.00  0.00    +0.000 C 
ATOM     10  C   UNL     1     -14.760 -25.042   2.745  0.00  0.00    +0.000 C 
BRANCH   6  12
ATOM     11  C   UNL     1     -16.040 -19.608   1.008  0.00  0.00    +0.000 C 
ATOM     12  C   UNL     1     -15.490 -20.612   1.373  0.00  0.00    +0.000 C 
BRANCH  11  14
ATOM     13  O   UNL     1     -18.151 -18.535   0.734  0.00  0.00    +0.000 OA
ATOM     14  C   UNL     1     -16.710 -18.391   0.578  0.00  0.00    +0.000 C 
ATOM     15  C   UNL     1     -17.537 -17.581   1.598  0.00  0.00    +0.000 C 
ATOM     16  C   UNL     1     -16.217 -17.657  -0.718  0.00  0.00    +0.000 C 
ATOM     17  C   UNL     1     -17.875 -16.239   1.247  0.00  0.00    +0.000 C 
ATOM     18  C   UNL     1     -16.849 -16.335  -0.730  0.00  0.00    +0.000 C 
ATOM     19  C   UNL     1     -17.618 -15.486   0.088  0.00  0.00    +0.000 C 
ATOM     20  C   UNL     1     -17.637 -17.944   3.083  0.00  0.00    +0.000 C 
ATOM     21  C   UNL     1     -14.678 -17.528  -0.567  0.00  0.00    +0.000 C 
ATOM     22  C   UNL     1     -16.627 -18.547  -1.912  0.00  0.00    +0.000 C 
BRANCH  19  23
ATOM     23  O   UNL     1     -17.403 -14.141   0.118  0.00  0.00    +0.000 OA
ATOM     24  H   UNL     1     -17.595 -13.754   0.991  0.00  0.00    +0.000 HD
ENDBRANCH  19  23
ENDBRANCH  11  14
ENDBRANCH   6  12
ENDBRANCH   1   2
BRANCH   1  25
ATOM     25  C   UNL     1     -13.014 -28.168   3.831  0.00  0.00    +0.000 C 
ATOM     26  C   UNL     1     -12.153 -28.907   4.222  0.00  0.00    +0.000 C 
BRANCH  26  28
ATOM     27  C   UNL     1     -10.186 -30.581   5.110  0.00  0.00    +0.000 C 
ATOM     28  C   UNL     1     -11.047 -29.844   4.717  0.00  0.00    +0.000 C 
BRANCH  27  29
ATOM     29  C   UNL     1      -9.087 -31.523   5.618  0.00  0.00    +0.000 C 
BRANCH  29  30
ATOM     30  C   UNL     1      -8.153 -32.310   6.050  0.00  0.00    +0.000 C 
ATOM     31  C   UNL     1      -8.013 -33.695   5.495  0.00  0.00    +0.000 C 
BRANCH  30  33
ATOM     32  C   UNL     1      -6.565 -31.514   7.976  0.00  0.00    +0.000 C 
ATOM     33  C   UNL     1      -7.292 -31.880   7.091  0.00  0.00    +0.000 C 
BRANCH  32  39
ATOM     34  C   UNL     1      -4.364 -31.707   9.160  0.00  0.00    +0.000 C 
ATOM     35  C   UNL     1      -6.229 -30.081   9.964  0.00  0.00    +0.000 C 
ATOM     36  C   UNL     1      -3.580 -30.892  10.099  0.00  0.00    +0.000 C 
ATOM     37  C   UNL     1      -3.750 -29.778  10.946  0.00  0.00    +0.000 C 
ATOM     38  C   UNL     1      -5.120 -29.523  10.730  0.00  0.00    +0.000 C 
ATOM     39  C   UNL     1      -5.770 -31.116   8.949  0.00  0.00    +0.000 C 
ATOM     40  C   UNL     1      -3.609 -31.728   7.796  0.00  0.00    +0.000 C 
ATOM     41  C   UNL     1      -4.510 -33.152   9.707  0.00  0.00    +0.000 C 
ATOM     42  C   UNL     1      -7.309 -30.657  10.884  0.00  0.00    +0.000 C 
BRANCH  35  43
ATOM     43  O   UNL     1      -6.858 -29.016   9.285  0.00  0.00    +0.000 OA
ATOM     44  H   UNL     1      -7.789 -29.309   9.288  0.00  0.00    +0.000 HD
ENDBRANCH  35  43
BRANCH  37  45
ATOM     45  O   UNL     1      -3.239 -29.826  12.237  0.00  0.00    +0.000 OA
BRANCH  45  47
ATOM     46  O   UNL     1      -2.511 -27.596  12.246  0.00  0.00    +0.000 OA
ATOM     47  C   UNL     1      -3.074 -28.568  12.714  0.00  0.00    +0.000 C 
ATOM     48  C   UNL     1      -3.677 -28.342  14.055  0.00  0.00    +0.000 C 
ENDBRANCH  45  47
ENDBRANCH  37  45
ENDBRANCH  32  39
ENDBRANCH  30  33
ENDBRANCH  29  30
ENDBRANCH  27  29
ENDBRANCH  26  28
ENDBRANCH   1  25
TORSDOF 13
ENDMDL
MODEL 5
REMARK VINA RESULT:      -5.7     20.402     24.401
REMARK  Name = 5289155_Peridinin.pdbqt.pdb
REMARK  13 active torsions:
REMARK  status: ('A' for Active; 'I' for Inactive)
REMARK    1  A    between atoms: C_1  and  C_3
REMARK    2  A    between atoms: C_3  and  C_25
REMARK    3  A    between atoms: C_6  and  C_12
REMARK    4  A    between atoms: C_11  and  C_14
REMARK    5  A    between atoms: C_19  and  O_23
REMARK    6  A    between atoms: C_26  and  C_28
REMARK    7  A    between atoms: C_27  and  C_31
REMARK    8  A    between atoms: C_29  and  C_31
REMARK    9  A    between atoms: C_29  and  C_42
REMARK   10  A    between atoms: C_33  and  O_43
REMARK   11  A    between atoms: C_35  and  O_45
REMARK   12  A    between atoms: C_37  and  C_41
REMARK   13  A    between atoms: O_45  and  C_47
REMARK                            x       y       z     vdW  Elec       q    Type
REMARK                         _______ _______ _______ _____ _____    ______ ____
ROOT
ATOM      1  C   UNL     1       4.915 -30.107  -2.025  0.00  0.00    +0.000 C 
ENDROOT
BRANCH   1   2
ATOM      2  C   UNL     1       5.118 -29.986  -0.751  0.00  0.00    +0.000 C 
ATOM      3  C   UNL     1       5.884 -28.814  -0.218  0.00  0.00    +0.000 C 
ATOM      4  O   UNL     1       3.889 -33.119   0.540  0.00  0.00    +0.000 OA
ATOM      5  O   UNL     1       3.548 -35.023   1.816  0.00  0.00    +0.000 OA
ATOM      6  C   UNL     1       3.959 -32.880   2.853  0.00  0.00    +0.000 C 
ATOM      7  C   UNL     1       4.162 -31.716   2.354  0.00  0.00    +0.000 C 
ATOM      8  C   UNL     1       3.766 -33.828   1.730  0.00  0.00    +0.000 C 
ATOM      9  C   UNL     1       4.097 -31.810   0.966  0.00  0.00    +0.000 C 
ATOM     10  C   UNL     1       4.585 -30.940   0.144  0.00  0.00    +0.000 C 
BRANCH   6  12
ATOM     11  C   UNL     1       3.931 -33.401   5.409  0.00  0.00    +0.000 C 
ATOM     12  C   UNL     1       3.949 -33.161   4.231  0.00  0.00    +0.000 C 
BRANCH  11  14
ATOM     13  O   UNL     1       2.559 -34.108   7.225  0.00  0.00    +0.000 OA
ATOM     14  C   UNL     1       3.898 -33.688   6.834  0.00  0.00    +0.000 C 
ATOM     15  C   UNL     1       3.562 -35.117   7.310  0.00  0.00    +0.000 C 
ATOM     16  C   UNL     1       4.651 -32.738   7.829  0.00  0.00    +0.000 C 
ATOM     17  C   UNL     1       3.883 -35.447   8.662  0.00  0.00    +0.000 C 
ATOM     18  C   UNL     1       4.709 -33.428   9.121  0.00  0.00    +0.000 C 
ATOM     19  C   UNL     1       4.439 -34.682   9.702  0.00  0.00    +0.000 C 
ATOM     20  C   UNL     1       3.333 -36.293   6.357  0.00  0.00    +0.000 C 
ATOM     21  C   UNL     1       6.075 -32.558   7.240  0.00  0.00    +0.000 C 
ATOM     22  C   UNL     1       3.851 -31.418   7.870  0.00  0.00    +0.000 C 
BRANCH  19  23
ATOM     23  O   UNL     1       5.257 -35.216  10.652  0.00  0.00    +0.000 OA
ATOM     24  H   UNL     1       4.968 -34.997  11.556  0.00  0.00    +0.000 HD
ENDBRANCH  19  23
ENDBRANCH  11  14
ENDBRANCH   6  12
ENDBRANCH   1   2
BRANCH   1  25
ATOM     25  C   UNL     1       4.675 -30.249  -3.533  0.00  0.00    +0.000 C 
ATOM     26  C   UNL     1       4.483 -30.356  -4.712  0.00  0.00    +0.000 C 
BRANCH  26  28
ATOM     27  C   UNL     1       4.043 -30.589  -7.398  0.00  0.00    +0.000 C 
ATOM     28  C   UNL     1       4.233 -30.487  -6.218  0.00  0.00    +0.000 C 
BRANCH  27  29
ATOM     29  C   UNL     1       3.807 -30.716  -8.908  0.00  0.00    +0.000 C 
BRANCH  29  30
ATOM     30  C   UNL     1       3.601 -30.814 -10.183  0.00  0.00    +0.000 C 
ATOM     31  C   UNL     1       4.384 -29.972 -11.144  0.00  0.00    +0.000 C 
BRANCH  30  33
ATOM     32  C   UNL     1       1.732 -32.415 -11.084  0.00  0.00    +0.000 C 
ATOM     33  C   UNL     1       2.591 -31.681 -10.671  0.00  0.00    +0.000 C 
BRANCH  32  39
ATOM     34  C   UNL     1       0.960 -34.744 -11.595  0.00  0.00    +0.000 C 
ATOM     35  C   UNL     1      -0.509 -32.658 -12.102  0.00  0.00    +0.000 C 
ATOM     36  C   UNL     1      -0.323 -35.413 -11.848  0.00  0.00    +0.000 C 
ATOM     37  C   UNL     1      -1.659 -35.081 -12.152  0.00  0.00    +0.000 C 
ATOM     38  C   UNL     1      -1.544 -33.678 -12.228  0.00  0.00    +0.000 C 
ATOM     39  C   UNL     1       0.790 -33.215 -11.542  0.00  0.00    +0.000 C 
ATOM     40  C   UNL     1       1.501 -35.246 -10.220  0.00  0.00    +0.000 C 
ATOM     41  C   UNL     1       1.970 -35.092 -12.721  0.00  0.00    +0.000 C 
ATOM     42  C   UNL     1      -0.268 -31.941 -13.434  0.00  0.00    +0.000 C 
BRANCH  35  43
ATOM     43  O   UNL     1      -0.997 -31.659 -11.233  0.00  0.00    +0.000 OA
ATOM     44  H   UNL     1      -0.166 -31.272 -10.899  0.00  0.00    +0.000 HD
ENDBRANCH  35  43
BRANCH  37  45
ATOM     45  O   UNL     1      -2.321 -35.787 -13.150  0.00  0.00    +0.000 OA
BRANCH  45  47
ATOM     46  O   UNL     1      -4.534 -35.051 -13.399  0.00  0.00    +0.000 OA
ATOM     47  C   UNL     1      -3.658 -35.753 -12.930  0.00  0.00    +0.000 C 
ATOM     48  C   UNL     1      -4.135 -36.744 -11.927  0.00  0.00    +0.000 C 
ENDBRANCH  45  47
ENDBRANCH  37  45
ENDBRANCH  32  39
ENDBRANCH  30  33
ENDBRANCH  29  30
ENDBRANCH  27  29
ENDBRANCH  26  28
ENDBRANCH   1  25
TORSDOF 13
ENDMDL
MODEL 6
REMARK VINA RESULT:      -5.7     18.897     22.451
REMARK  Name = 5289155_Peridinin.pdbqt.pdb
REMARK  13 active torsions:
REMARK  status: ('A' for Active; 'I' for Inactive)
REMARK    1  A    between atoms: C_1  and  C_3
REMARK    2  A    between atoms: C_3  and  C_25
REMARK    3  A    between atoms: C_6  and  C_12
REMARK    4  A    between atoms: C_11  and  C_14
REMARK    5  A    between atoms: C_19  and  O_23
REMARK    6  A    between atoms: C_26  and  C_28
REMARK    7  A    between atoms: C_27  and  C_31
REMARK    8  A    between atoms: C_29  and  C_31
REMARK    9  A    between atoms: C_29  and  C_42
REMARK   10  A    between atoms: C_33  and  O_43
REMARK   11  A    between atoms: C_35  and  O_45
REMARK   12  A    between atoms: C_37  and  C_41
REMARK   13  A    between atoms: O_45  and  C_47
REMARK                            x       y       z     vdW  Elec       q    Type
REMARK                         _______ _______ _______ _____ _____    ______ ____
ROOT
ATOM      1  C   UNL     1      -3.579 -17.894 -15.274  0.00  0.00    +0.000 C 
ENDROOT
BRANCH   1   2
ATOM      2  C   UNL     1      -2.929 -17.009 -14.586  0.00  0.00    +0.000 C 
ATOM      3  C   UNL     1      -3.522 -15.655 -14.349  0.00  0.00    +0.000 C 
ATOM      4  O   UNL     1       0.279 -18.584 -14.116  0.00  0.00    +0.000 OA
ATOM      5  O   UNL     1       2.542 -18.985 -13.811  0.00  0.00    +0.000 OA
ATOM      6  C   UNL     1       1.423 -17.184 -12.653  0.00  0.00    +0.000 C 
ATOM      7  C   UNL     1       0.202 -16.791 -12.663  0.00  0.00    +0.000 C 
ATOM      8  C   UNL     1       1.534 -18.346 -13.566  0.00  0.00    +0.000 C 
ATOM      9  C   UNL     1      -0.526 -17.626 -13.507  0.00  0.00    +0.000 C 
ATOM     10  C   UNL     1      -1.673 -17.333 -14.024  0.00  0.00    +0.000 C 
BRANCH   6  12
ATOM     11  C   UNL     1       3.313 -16.051 -11.256  0.00  0.00    +0.000 C 
ATOM     12  C   UNL     1       2.446 -16.574 -11.903  0.00  0.00    +0.000 C 
BRANCH  11  14
ATOM     13  O   UNL     1       4.335 -13.973 -10.691  0.00  0.00    +0.000 OA
ATOM     14  C   UNL     1       4.354 -15.413 -10.467  0.00  0.00    +0.000 C 
ATOM     15  C   UNL     1       3.960 -14.390  -9.380  0.00  0.00    +0.000 C 
ATOM     16  C   UNL     1       5.767 -16.086 -10.366  0.00  0.00    +0.000 C 
ATOM     17  C   UNL     1       4.949 -14.059  -8.405  0.00  0.00    +0.000 C 
ATOM     18  C   UNL     1       6.489 -15.409  -9.285  0.00  0.00    +0.000 C 
ATOM     19  C   UNL     1       6.282 -14.476  -8.251  0.00  0.00    +0.000 C 
ATOM     20  C   UNL     1       2.509 -14.055  -9.022  0.00  0.00    +0.000 C 
ATOM     21  C   UNL     1       5.499 -17.570 -10.001  0.00  0.00    +0.000 C 
ATOM     22  C   UNL     1       6.433 -15.922 -11.750  0.00  0.00    +0.000 C 
BRANCH  19  23
ATOM     23  O   UNL     1       6.870 -14.625  -7.031  0.00  0.00    +0.000 OA
ATOM     24  H   UNL     1       7.795 -14.922  -7.099  0.00  0.00    +0.000 HD
ENDBRANCH  19  23
ENDBRANCH  11  14
ENDBRANCH   6  12
ENDBRANCH   1   2
BRANCH   1  25
ATOM     25  C   UNL     1      -4.349 -18.940 -16.089  0.00  0.00    +0.000 C 
ATOM     26  C   UNL     1      -4.951 -19.755 -16.731  0.00  0.00    +0.000 C 
BRANCH  26  28
ATOM     27  C   UNL     1      -6.322 -21.606 -18.199  0.00  0.00    +0.000 C 
ATOM     28  C   UNL     1      -5.720 -20.791 -17.557  0.00  0.00    +0.000 C 
BRANCH  27  29
ATOM     29  C   UNL     1      -7.090 -22.653 -19.015  0.00  0.00    +0.000 C 
BRANCH  29  30
ATOM     30  C   UNL     1      -7.741 -23.530 -19.712  0.00  0.00    +0.000 C 
ATOM     31  C   UNL     1      -7.028 -24.377 -20.721  0.00  0.00    +0.000 C 
BRANCH  30  33
ATOM     32  C   UNL     1     -10.337 -23.751 -19.430  0.00  0.00    +0.000 C 
ATOM     33  C   UNL     1      -9.146 -23.651 -19.560  0.00  0.00    +0.000 C 
BRANCH  32  39
ATOM     34  C   UNL     1     -12.400 -25.168 -19.572  0.00  0.00    +0.000 C 
ATOM     35  C   UNL     1     -12.490 -22.657 -18.898  0.00  0.00    +0.000 C 
ATOM     36  C   UNL     1     -13.774 -25.111 -19.054  0.00  0.00    +0.000 C 
ATOM     37  C   UNL     1     -14.652 -24.184 -18.455  0.00  0.00    +0.000 C 
ATOM     38  C   UNL     1     -13.828 -23.040 -18.460  0.00  0.00    +0.000 C 
ATOM     39  C   UNL     1     -11.643 -23.857 -19.292  0.00  0.00    +0.000 C 
ATOM     40  C   UNL     1     -11.665 -26.344 -18.858  0.00  0.00    +0.000 C 
ATOM     41  C   UNL     1     -12.422 -25.410 -21.105  0.00  0.00    +0.000 C 
ATOM     42  C   UNL     1     -12.547 -21.631 -20.034  0.00  0.00    +0.000 C 
BRANCH  35  43
ATOM     43  O   UNL     1     -11.868 -21.982 -17.827  0.00  0.00    +0.000 OA
ATOM     44  H   UNL     1     -10.926 -22.074 -18.063  0.00  0.00    +0.000 HD
ENDBRANCH  35  43
BRANCH  37  45
ATOM     45  O   UNL     1     -15.964 -24.109 -18.906  0.00  0.00    +0.000 OA
BRANCH  45  47
ATOM     46  O   UNL     1     -16.837 -25.876 -17.635  0.00  0.00    +0.000 OA
ATOM     47  C   UNL     1     -16.790 -24.724 -18.025  0.00  0.00    +0.000 C 
ATOM     48  C   UNL     1     -17.831 -23.834 -17.443  0.00  0.00    +0.000 C 
ENDBRANCH  45  47
ENDBRANCH  37  45
ENDBRANCH  32  39
ENDBRANCH  30  33
ENDBRANCH  29  30
ENDBRANCH  27  29
ENDBRANCH  26  28
ENDBRANCH   1  25
TORSDOF 13
ENDMDL
MODEL 7
REMARK VINA RESULT:      -5.7     16.201     23.451
REMARK  Name = 5289155_Peridinin.pdbqt.pdb
REMARK  13 active torsions:
REMARK  status: ('A' for Active; 'I' for Inactive)
REMARK    1  A    between atoms: C_1  and  C_3
REMARK    2  A    between atoms: C_3  and  C_25
REMARK    3  A    between atoms: C_6  and  C_12
REMARK    4  A    between atoms: C_11  and  C_14
REMARK    5  A    between atoms: C_19  and  O_23
REMARK    6  A    between atoms: C_26  and  C_28
REMARK    7  A    between atoms: C_27  and  C_31
REMARK    8  A    between atoms: C_29  and  C_31
REMARK    9  A    between atoms: C_29  and  C_42
REMARK   10  A    between atoms: C_33  and  O_43
REMARK   11  A    between atoms: C_35  and  O_45
REMARK   12  A    between atoms: C_37  and  C_41
REMARK   13  A    between atoms: O_45  and  C_47
REMARK                            x       y       z     vdW  Elec       q    Type
REMARK                         _______ _______ _______ _____ _____    ______ ____
ROOT
ATOM      1  C   UNL     1      -4.281 -33.872  -5.775  0.00  0.00    +0.000 C 
ENDROOT
BRANCH   1   2
ATOM      2  C   UNL     1      -4.959 -34.200  -4.720  0.00  0.00    +0.000 C 
ATOM      3  C   UNL     1      -6.292 -33.572  -4.455  0.00  0.00    +0.000 C 
ATOM      4  O   UNL     1      -2.631 -36.270  -2.907  0.00  0.00    +0.000 OA
ATOM      5  O   UNL     1      -1.456 -37.366  -1.236  0.00  0.00    +0.000 OA
ATOM      6  C   UNL     1      -3.858 -37.133  -1.130  0.00  0.00    +0.000 C 
ATOM      7  C   UNL     1      -4.699 -36.584  -1.928  0.00  0.00    +0.000 C 
ATOM      8  C   UNL     1      -2.505 -36.971  -1.712  0.00  0.00    +0.000 C 
ATOM      9  C   UNL     1      -4.004 -36.081  -3.025  0.00  0.00    +0.000 C 
ATOM     10  C   UNL     1      -4.458 -35.182  -3.835  0.00  0.00    +0.000 C 
BRANCH   6  12
ATOM     11  C   UNL     1      -4.510 -38.272   1.125  0.00  0.00    +0.000 C 
ATOM     12  C   UNL     1      -4.207 -37.752   0.085  0.00  0.00    +0.000 C 
BRANCH  11  14
ATOM     13  O   UNL     1      -4.301 -38.142   3.496  0.00  0.00    +0.000 OA
ATOM     14  C   UNL     1      -4.878 -38.892   2.388  0.00  0.00    +0.000 C 
ATOM     15  C   UNL     1      -5.723 -38.094   3.404  0.00  0.00    +0.000 C 
ATOM     16  C   UNL     1      -4.857 -40.455   2.516  0.00  0.00    +0.000 C 
ATOM     17  C   UNL     1      -6.357 -38.832   4.449  0.00  0.00    +0.000 C 
ATOM     18  C   UNL     1      -5.557 -40.794   3.758  0.00  0.00    +0.000 C 
ATOM     19  C   UNL     1      -6.337 -40.200   4.768  0.00  0.00    +0.000 C 
ATOM     20  C   UNL     1      -6.273 -36.691   3.128  0.00  0.00    +0.000 C 
ATOM     21  C   UNL     1      -5.638 -40.986   1.284  0.00  0.00    +0.000 C 
ATOM     22  C   UNL     1      -3.372 -40.878   2.509  0.00  0.00    +0.000 C 
BRANCH  19  23
ATOM     23  O   UNL     1      -7.407 -40.845   5.311  0.00  0.00    +0.000 OA
ATOM     24  H   UNL     1      -7.152 -41.666   5.770  0.00  0.00    +0.000 HD
ENDBRANCH  19  23
ENDBRANCH  11  14
ENDBRANCH   6  12
ENDBRANCH   1   2
BRANCH   1  25
ATOM     25  C   UNL     1      -3.479 -33.484  -7.023  0.00  0.00    +0.000 C 
ATOM     26  C   UNL     1      -2.854 -33.184  -8.002  0.00  0.00    +0.000 C 
BRANCH  26  28
ATOM     27  C   UNL     1      -1.434 -32.517 -10.238  0.00  0.00    +0.000 C 
ATOM     28  C   UNL     1      -2.059 -32.807  -9.256  0.00  0.00    +0.000 C 
BRANCH  27  29
ATOM     29  C   UNL     1      -0.629 -32.151 -11.491  0.00  0.00    +0.000 C 
BRANCH  29  30
ATOM     30  C   UNL     1       0.045 -31.848 -12.555  0.00  0.00    +0.000 C 
ATOM     31  C   UNL     1      -0.251 -32.529 -13.858  0.00  0.00    +0.000 C 
BRANCH  30  33
ATOM     32  C   UNL     1       2.001 -30.111 -12.410  0.00  0.00    +0.000 C 
ATOM     33  C   UNL     1       1.104 -30.909 -12.478  0.00  0.00    +0.000 C 
BRANCH  32  39
ATOM     34  C   UNL     1       3.468 -28.425 -13.545  0.00  0.00    +0.000 C 
ATOM     35  C   UNL     1       3.744 -29.027 -11.030  0.00  0.00    +0.000 C 
ATOM     36  C   UNL     1       4.347 -27.322 -13.132  0.00  0.00    +0.000 C 
ATOM     37  C   UNL     1       4.964 -26.829 -11.965  0.00  0.00    +0.000 C 
ATOM     38  C   UNL     1       4.538 -27.804 -11.040  0.00  0.00    +0.000 C 
ATOM     39  C   UNL     1       2.985 -29.238 -12.331  0.00  0.00    +0.000 C 
ATOM     40  C   UNL     1       2.233 -27.810 -14.272  0.00  0.00    +0.000 C 
ATOM     41  C   UNL     1       4.229 -29.376 -14.507  0.00  0.00    +0.000 C 
ATOM     42  C   UNL     1       4.605 -30.249 -10.694  0.00  0.00    +0.000 C 
BRANCH  35  43
ATOM     43  O   UNL     1       2.821 -28.929  -9.967  0.00  0.00    +0.000 OA
ATOM     44  H   UNL     1       3.321 -29.343  -9.239  0.00  0.00    +0.000 HD
ENDBRANCH  35  43
BRANCH  37  45
ATOM     45  O   UNL     1       6.298 -26.445 -12.017  0.00  0.00    +0.000 OA
BRANCH  45  47
ATOM     46  O   UNL     1       7.340 -26.006  -9.962  0.00  0.00    +0.000 OA
ATOM     47  C   UNL     1       6.619 -25.739 -10.905  0.00  0.00    +0.000 C 
ATOM     48  C   UNL     1       5.962 -24.406 -10.819  0.00  0.00    +0.000 C 
ENDBRANCH  45  47
ENDBRANCH  37  45
ENDBRANCH  32  39
ENDBRANCH  30  33
ENDBRANCH  29  30
ENDBRANCH  27  29
ENDBRANCH  26  28
ENDBRANCH   1  25
TORSDOF 13
ENDMDL
MODEL 8
REMARK VINA RESULT:      -5.6     18.657     21.308
REMARK  Name = 5289155_Peridinin.pdbqt.pdb
REMARK  13 active torsions:
REMARK  status: ('A' for Active; 'I' for Inactive)
REMARK    1  A    between atoms: C_1  and  C_3
REMARK    2  A    between atoms: C_3  and  C_25
REMARK    3  A    between atoms: C_6  and  C_12
REMARK    4  A    between atoms: C_11  and  C_14
REMARK    5  A    between atoms: C_19  and  O_23
REMARK    6  A    between atoms: C_26  and  C_28
REMARK    7  A    between atoms: C_27  and  C_31
REMARK    8  A    between atoms: C_29  and  C_31
REMARK    9  A    between atoms: C_29  and  C_42
REMARK   10  A    between atoms: C_33  and  O_43
REMARK   11  A    between atoms: C_35  and  O_45
REMARK   12  A    between atoms: C_37  and  C_41
REMARK   13  A    between atoms: O_45  and  C_47
REMARK                            x       y       z     vdW  Elec       q    Type
REMARK                         _______ _______ _______ _____ _____    ______ ____
ROOT
ATOM      1  C   UNL     1      -3.279 -17.571 -15.468  0.00  0.00    +0.000 C 
ENDROOT
BRANCH   1   2
ATOM      2  C   UNL     1      -2.607 -16.654 -14.846  0.00  0.00    +0.000 C 
ATOM      3  C   UNL     1      -3.077 -15.233 -14.865  0.00  0.00    +0.000 C 
ATOM      4  O   UNL     1       0.366 -18.418 -13.824  0.00  0.00    +0.000 OA
ATOM      5  O   UNL     1       2.538 -18.966 -13.229  0.00  0.00    +0.000 OA
ATOM      6  C   UNL     1       1.509 -16.921 -12.460  0.00  0.00    +0.000 C 
ATOM      7  C   UNL     1       0.341 -16.427 -12.654  0.00  0.00    +0.000 C 
ATOM      8  C   UNL     1       1.583 -18.212 -13.184  0.00  0.00    +0.000 C 
ATOM      9  C   UNL     1      -0.388 -17.312 -13.444  0.00  0.00    +0.000 C 
ATOM     10  C   UNL     1      -1.448 -17.000 -14.115  0.00  0.00    +0.000 C 
BRANCH   6  12
ATOM     11  C   UNL     1       3.371 -15.766 -11.043  0.00  0.00    +0.000 C 
ATOM     12  C   UNL     1       2.516 -16.297 -11.700  0.00  0.00    +0.000 C 
BRANCH  11  14
ATOM     13  O   UNL     1       4.356 -13.680 -10.446  0.00  0.00    +0.000 OA
ATOM     14  C   UNL     1       4.398 -15.121 -10.240  0.00  0.00    +0.000 C 
ATOM     15  C   UNL     1       3.981 -14.119  -9.143  0.00  0.00    +0.000 C 
ATOM     16  C   UNL     1       5.821 -15.773 -10.140  0.00  0.00    +0.000 C 
ATOM     17  C   UNL     1       4.960 -13.785  -8.158  0.00  0.00    +0.000 C 
ATOM     18  C   UNL     1       6.526 -15.098  -9.047  0.00  0.00    +0.000 C 
ATOM     19  C   UNL     1       6.299 -14.182  -8.002  0.00  0.00    +0.000 C 
ATOM     20  C   UNL     1       2.523 -13.813  -8.788  0.00  0.00    +0.000 C 
ATOM     21  C   UNL     1       5.575 -17.266  -9.796  0.00  0.00    +0.000 C 
ATOM     22  C   UNL     1       6.491 -15.581 -11.518  0.00  0.00    +0.000 C 
BRANCH  19  23
ATOM     23  O   UNL     1       6.883 -14.337  -6.781  0.00  0.00    +0.000 OA
ATOM     24  H   UNL     1       6.228 -14.445  -6.068  0.00  0.00    +0.000 HD
ENDBRANCH  19  23
ENDBRANCH  11  14
ENDBRANCH   6  12
ENDBRANCH   1   2
BRANCH   1  25
ATOM     25  C   UNL     1      -4.074 -18.656 -16.204  0.00  0.00    +0.000 C 
ATOM     26  C   UNL     1      -4.693 -19.508 -16.778  0.00  0.00    +0.000 C 
BRANCH  26  28
ATOM     27  C   UNL     1      -6.089 -21.460 -18.083  0.00  0.00    +0.000 C 
ATOM     28  C   UNL     1      -5.479 -20.602 -17.508  0.00  0.00    +0.000 C 
BRANCH  27  29
ATOM     29  C   UNL     1      -6.864 -22.558 -18.823  0.00  0.00    +0.000 C 
BRANCH  29  30
ATOM     30  C   UNL     1      -7.510 -23.486 -19.454  0.00  0.00    +0.000 C 
ATOM     31  C   UNL     1      -8.041 -23.236 -20.833  0.00  0.00    +0.000 C 
BRANCH  30  33
ATOM     32  C   UNL     1      -7.980 -25.779 -18.276  0.00  0.00    +0.000 C 
ATOM     33  C   UNL     1      -7.765 -24.728 -18.818  0.00  0.00    +0.000 C 
BRANCH  32  39
ATOM     34  C   UNL     1      -9.014 -28.061 -18.353  0.00  0.00    +0.000 C 
ATOM     35  C   UNL     1      -7.765 -27.179 -16.249  0.00  0.00    +0.000 C 
ATOM     36  C   UNL     1      -8.875 -29.323 -17.614  0.00  0.00    +0.000 C 
ATOM     37  C   UNL     1      -8.309 -29.802 -16.414  0.00  0.00    +0.000 C 
ATOM     38  C   UNL     1      -7.805 -28.593 -15.891  0.00  0.00    +0.000 C 
ATOM     39  C   UNL     1      -8.219 -26.929 -17.678  0.00  0.00    +0.000 C 
ATOM     40  C   UNL     1      -8.460 -28.285 -19.794  0.00  0.00    +0.000 C 
ATOM     41  C   UNL     1     -10.508 -27.647 -18.418  0.00  0.00    +0.000 C 
ATOM     42  C   UNL     1      -8.573 -26.331 -15.261  0.00  0.00    +0.000 C 
BRANCH  35  43
ATOM     43  O   UNL     1      -6.433 -26.739 -16.102  0.00  0.00    +0.000 OA
ATOM     44  H   UNL     1      -6.442 -26.399 -15.188  0.00  0.00    +0.000 HD
ENDBRANCH  35  43
BRANCH  37  45
ATOM     45  O   UNL     1      -9.050 -30.660 -15.612  0.00  0.00    +0.000 OA
BRANCH  45  47
ATOM     46  O   UNL     1      -7.855 -32.666 -15.831  0.00  0.00    +0.000 OA
ATOM     47  C   UNL     1      -8.281 -31.704 -15.219  0.00  0.00    +0.000 C 
ATOM     48  C   UNL     1      -7.900 -31.673 -13.781  0.00  0.00    +0.000 C 
ENDBRANCH  45  47
ENDBRANCH  37  45
ENDBRANCH  32  39
ENDBRANCH  30  33
ENDBRANCH  29  30
ENDBRANCH  27  29
ENDBRANCH  26  28
ENDBRANCH   1  25
TORSDOF 13
ENDMDL
MODEL 9
REMARK VINA RESULT:      -5.5     14.992     23.767
REMARK  Name = 5289155_Peridinin.pdbqt.pdb
REMARK  13 active torsions:
REMARK  status: ('A' for Active; 'I' for Inactive)
REMARK    1  A    between atoms: C_1  and  C_3
REMARK    2  A    between atoms: C_3  and  C_25
REMARK    3  A    between atoms: C_6  and  C_12
REMARK    4  A    between atoms: C_11  and  C_14
REMARK    5  A    between atoms: C_19  and  O_23
REMARK    6  A    between atoms: C_26  and  C_28
REMARK    7  A    between atoms: C_27  and  C_31
REMARK    8  A    between atoms: C_29  and  C_31
REMARK    9  A    between atoms: C_29  and  C_42
REMARK   10  A    between atoms: C_33  and  O_43
REMARK   11  A    between atoms: C_35  and  O_45
REMARK   12  A    between atoms: C_37  and  C_41
REMARK   13  A    between atoms: O_45  and  C_47
REMARK                            x       y       z     vdW  Elec       q    Type
REMARK                         _______ _______ _______ _____ _____    ______ ____
ROOT
ATOM      1  C   UNL     1      -1.875 -36.791  -9.723  0.00  0.00    +0.000 C 
ENDROOT
BRANCH   1   2
ATOM      2  C   UNL     1      -1.685 -37.533  -8.678  0.00  0.00    +0.000 C 
ATOM      3  C   UNL     1      -0.982 -38.849  -8.806  0.00  0.00    +0.000 C 
ATOM      4  O   UNL     1      -3.570 -35.805  -6.138  0.00  0.00    +0.000 OA
ATOM      5  O   UNL     1      -4.846 -35.291  -4.272  0.00  0.00    +0.000 OA
ATOM      6  C   UNL     1      -3.061 -36.915  -4.158  0.00  0.00    +0.000 C 
ATOM      7  C   UNL     1      -2.237 -37.342  -5.044  0.00  0.00    +0.000 C 
ATOM      8  C   UNL     1      -3.942 -35.913  -4.802  0.00  0.00    +0.000 C 
ATOM      9  C   UNL     1      -2.490 -36.677  -6.241  0.00  0.00    +0.000 C 
ATOM     10  C   UNL     1      -2.107 -37.085  -7.406  0.00  0.00    +0.000 C 
BRANCH   6  12
ATOM     11  C   UNL     1      -3.131 -37.744  -1.685  0.00  0.00    +0.000 C 
ATOM     12  C   UNL     1      -3.094 -37.365  -2.825  0.00  0.00    +0.000 C 
BRANCH  11  14
ATOM     13  O   UNL     1      -4.206 -37.453   0.422  0.00  0.00    +0.000 OA
ATOM     14  C   UNL     1      -3.183 -38.194  -0.303  0.00  0.00    +0.000 C 
ATOM     15  C   UNL     1      -4.477 -38.840   0.234  0.00  0.00    +0.000 C 
ATOM     16  C   UNL     1      -1.845 -38.476   0.466  0.00  0.00    +0.000 C 
ATOM     17  C   UNL     1      -4.382 -39.579   1.452  0.00  0.00    +0.000 C 
ATOM     18  C   UNL     1      -2.199 -39.196   1.693  0.00  0.00    +0.000 C 
ATOM     19  C   UNL     1      -3.298 -39.818   2.314  0.00  0.00    +0.000 C 
ATOM     20  C   UNL     1      -5.709 -39.111  -0.634  0.00  0.00    +0.000 C 
ATOM     21  C   UNL     1      -1.002 -39.377  -0.475  0.00  0.00    +0.000 C 
ATOM     22  C   UNL     1      -1.188 -37.103   0.725  0.00  0.00    +0.000 C 
BRANCH  19  23
ATOM     23  O   UNL     1      -3.157 -40.980   3.013  0.00  0.00    +0.000 OA
ATOM     24  H   UNL     1      -2.640 -40.861   3.830  0.00  0.00    +0.000 HD
ENDBRANCH  19  23
ENDBRANCH  11  14
ENDBRANCH   6  12
ENDBRANCH   1   2
BRANCH   1  25
ATOM     25  C   UNL     1      -2.099 -35.914 -10.960  0.00  0.00    +0.000 C 
ATOM     26  C   UNL     1      -2.279 -35.230 -11.930  0.00  0.00    +0.000 C 
BRANCH  26  28
ATOM     27  C   UNL     1      -2.701 -33.679 -14.138  0.00  0.00    +0.000 C 
ATOM     28  C   UNL     1      -2.514 -34.362 -13.170  0.00  0.00    +0.000 C 
BRANCH  27  29
ATOM     29  C   UNL     1      -2.947 -32.801 -15.371  0.00  0.00    +0.000 C 
BRANCH  29  30
ATOM     30  C   UNL     1      -3.150 -32.068 -16.420  0.00  0.00    +0.000 C 
ATOM     31  C   UNL     1      -2.291 -32.233 -17.637  0.00  0.00    +0.000 C 
BRANCH  30  33
ATOM     32  C   UNL     1      -5.004 -30.217 -16.381  0.00  0.00    +0.000 C 
ATOM     33  C   UNL     1      -4.155 -31.068 -16.399  0.00  0.00    +0.000 C 
BRANCH  32  39
ATOM     34  C   UNL     1      -6.027 -28.227 -15.250  0.00  0.00    +0.000 C 
ATOM     35  C   UNL     1      -7.012 -29.233 -17.438  0.00  0.00    +0.000 C 
ATOM     36  C   UNL     1      -6.938 -27.137 -15.624  0.00  0.00    +0.000 C 
ATOM     37  C   UNL     1      -7.832 -26.800 -16.661  0.00  0.00    +0.000 C 
ATOM     38  C   UNL     1      -7.720 -27.958 -17.458  0.00  0.00    +0.000 C 
ATOM     39  C   UNL     1      -5.934 -29.283 -16.367  0.00  0.00    +0.000 C 
ATOM     40  C   UNL     1      -4.615 -27.613 -15.009  0.00  0.00    +0.000 C 
ATOM     41  C   UNL     1      -6.533 -28.919 -13.956  0.00  0.00    +0.000 C 
ATOM     42  C   UNL     1      -7.984 -30.408 -17.291  0.00  0.00    +0.000 C 
BRANCH  35  43
ATOM     43  O   UNL     1      -6.416 -29.410 -18.704  0.00  0.00    +0.000 OA
ATOM     44  H   UNL     1      -7.097 -29.033 -19.292  0.00  0.00    +0.000 HD
ENDBRANCH  35  43
BRANCH  37  45
ATOM     45  O   UNL     1      -9.082 -26.289 -16.336  0.00  0.00    +0.000 OA
BRANCH  45  47
ATOM     46  O   UNL     1     -10.602 -25.648 -18.004  0.00  0.00    +0.000 OA
ATOM     47  C   UNL     1      -9.567 -25.559 -17.370  0.00  0.00    +0.000 C 
ATOM     48  C   UNL     1      -8.665 -24.462 -17.816  0.00  0.00    +0.000 C 
ENDBRANCH  45  47
ENDBRANCH  37  45
ENDBRANCH  32  39
ENDBRANCH  30  33
ENDBRANCH  29  30
ENDBRANCH  27  29
ENDBRANCH  26  28
ENDBRANCH   1  25
TORSDOF 13
ENDMDL
