MODEL 1
REMARK VINA RESULT:      -6.3      0.000      0.000
REMARK  Name = 5318517_Andrographolide.pdbqt.pdb
REMARK  6 active torsions:
REMARK  status: ('A' for Active; 'I' for Inactive)
REMARK    1  A    between atoms: C_3  and  C_16
REMARK    2  A    between atoms: C_4  and  C_19
REMARK    3  A    between atoms: C_6  and  O_14
REMARK    4  A    between atoms: C_16  and  O_17
REMARK    5  A    between atoms: C_22  and  C_23
REMARK    6  A    between atoms: C_24  and  O_27
REMARK                            x       y       z     vdW  Elec       q    Type
REMARK                         _______ _______ _______ _____ _____    ______ ____
ROOT
ATOM      1  C   UNL     1      -3.308 -35.171  -4.722  0.00  0.00    +0.000 C 
ATOM      2  C   UNL     1      -3.998 -34.875  -6.088  0.00  0.00    +0.000 C 
ATOM      3  C   UNL     1      -5.122 -33.834  -6.240  0.00  0.00    +0.000 C 
ATOM      4  C   UNL     1      -2.747 -36.606  -4.513  0.00  0.00    +0.000 C 
ATOM      5  C   UNL     1      -4.332 -34.885  -3.722  0.00  0.00    +0.000 C 
ATOM      6  C   UNL     1      -5.958 -33.501  -4.968  0.00  0.00    +0.000 C 
ATOM      7  C   UNL     1      -3.523 -35.689  -7.155  0.00  0.00    +0.000 C 
ATOM      8  C   UNL     1      -5.603 -34.106  -3.749  0.00  0.00    +0.000 C 
ATOM      9  C   UNL     1      -2.116 -34.175  -4.584  0.00  0.00    +0.000 C 
ATOM     10  C   UNL     1      -2.683 -36.906  -6.931  0.00  0.00    +0.000 C 
ATOM     11  C   UNL     1      -2.286 -37.391  -5.667  0.00  0.00    +0.000 C 
ATOM     12  C   UNL     1      -6.152 -34.391  -7.288  0.00  0.00    +0.000 C 
ATOM     13  C   UNL     1      -1.745 -38.608  -5.607  0.00  0.00    +0.000 C 
ENDROOT
BRANCH   6  14
ATOM     14  O   UNL     1      -6.896 -32.484  -4.984  0.00  0.00    +0.000 OA
ATOM     15  H   UNL     1      -6.487 -31.603  -4.913  0.00  0.00    +0.000 HD
ENDBRANCH   6  14
BRANCH   4  16
ATOM     16  C   UNL     1      -2.557 -37.122  -3.186  0.00  0.00    +0.000 C 
ATOM     17  C   UNL     1      -2.351 -37.661  -1.768  0.00  0.00    +0.000 C 
BRANCH  17  20
ATOM     18  O   UNL     1      -1.102 -39.103   1.240  0.00  0.00    +0.000 OA
ATOM     19  O   UNL     1      -0.072 -39.333  -0.840  0.00  0.00    +0.000 OA
ATOM     20  C   UNL     1      -2.185 -38.113  -0.565  0.00  0.00    +0.000 C 
ATOM     21  C   UNL     1      -3.013 -37.870   0.590  0.00  0.00    +0.000 C 
ATOM     22  C   UNL     1      -0.976 -38.921  -0.135  0.00  0.00    +0.000 C 
ATOM     23  C   UNL     1      -2.233 -38.495   1.565  0.00  0.00    +0.000 C 
BRANCH  21  24
ATOM     24  O   UNL     1      -3.634 -36.664   0.750  0.00  0.00    +0.000 OA
ATOM     25  H   UNL     1      -4.048 -36.358  -0.076  0.00  0.00    +0.000 HD
ENDBRANCH  21  24
ENDBRANCH  17  20
ENDBRANCH   4  16
BRANCH   3  26
ATOM     26  C   UNL     1      -4.504 -32.575  -6.744  0.00  0.00    +0.000 C 
BRANCH  26  27
ATOM     27  O   UNL     1      -3.952 -31.449  -7.207  0.00  0.00    +0.000 OA
ATOM     28  H   UNL     1      -4.289 -31.244  -8.098  0.00  0.00    +0.000 HD
ENDBRANCH  26  27
ENDBRANCH   3  26
TORSDOF 6
ENDMDL
MODEL 2
REMARK VINA RESULT:      -6.2      6.020      9.944
REMARK  Name = 5318517_Andrographolide.pdbqt.pdb
REMARK  6 active torsions:
REMARK  status: ('A' for Active; 'I' for Inactive)
REMARK    1  A    between atoms: C_3  and  C_16
REMARK    2  A    between atoms: C_4  and  C_19
REMARK    3  A    between atoms: C_6  and  O_14
REMARK    4  A    between atoms: C_16  and  O_17
REMARK    5  A    between atoms: C_22  and  C_23
REMARK    6  A    between atoms: C_24  and  O_27
REMARK                            x       y       z     vdW  Elec       q    Type
REMARK                         _______ _______ _______ _____ _____    ______ ____
ROOT
ATOM      1  C   UNL     1      -1.725 -33.813 -10.068  0.00  0.00    +0.000 C 
ATOM      2  C   UNL     1      -2.289 -34.736  -8.946  0.00  0.00    +0.000 C 
ATOM      3  C   UNL     1      -3.448 -34.309  -8.027  0.00  0.00    +0.000 C 
ATOM      4  C   UNL     1      -0.226 -33.993 -10.440  0.00  0.00    +0.000 C 
ATOM      5  C   UNL     1      -1.957 -32.456  -9.581  0.00  0.00    +0.000 C 
ATOM      6  C   UNL     1      -3.668 -32.779  -7.825  0.00  0.00    +0.000 C 
ATOM      7  C   UNL     1      -1.601 -35.977  -8.829  0.00  0.00    +0.000 C 
ATOM      8  C   UNL     1      -2.854 -31.880  -8.538  0.00  0.00    +0.000 C 
ATOM      9  C   UNL     1      -2.565 -34.084 -11.353  0.00  0.00    +0.000 C 
ATOM     10  C   UNL     1      -0.288 -36.238  -9.493  0.00  0.00    +0.000 C 
ATOM     11  C   UNL     1       0.419 -35.305 -10.280  0.00  0.00    +0.000 C 
ATOM     12  C   UNL     1      -3.161 -34.885  -6.593  0.00  0.00    +0.000 C 
ATOM     13  C   UNL     1       1.680 -35.591 -10.608  0.00  0.00    +0.000 C 
ENDROOT
BRANCH   6  14
ATOM     14  O   UNL     1      -4.765 -32.308  -7.125  0.00  0.00    +0.000 OA
ATOM     15  H   UNL     1      -5.509 -32.084  -7.711  0.00  0.00    +0.000 HD
ENDBRANCH   6  14
BRANCH   4  16
ATOM     16  C   UNL     1       0.500 -32.920 -11.060  0.00  0.00    +0.000 C 
ATOM     17  C   UNL     1       1.279 -31.783 -11.727  0.00  0.00    +0.000 C 
BRANCH  17  20
ATOM     18  O   UNL     1       3.559 -29.798 -13.610  0.00  0.00    +0.000 OA
ATOM     19  O   UNL     1       3.905 -32.048 -13.102  0.00  0.00    +0.000 OA
ATOM     20  C   UNL     1       1.934 -30.822 -12.300  0.00  0.00    +0.000 C 
ATOM     21  C   UNL     1       1.526 -29.448 -12.453  0.00  0.00    +0.000 C 
ATOM     22  C   UNL     1       3.247 -31.025 -13.030  0.00  0.00    +0.000 C 
ATOM     23  C   UNL     1       2.570 -28.990 -13.259  0.00  0.00    +0.000 C 
BRANCH  21  24
ATOM     24  O   UNL     1       0.210 -29.137 -12.639  0.00  0.00    +0.000 OA
ATOM     25  H   UNL     1       0.094 -28.216 -12.934  0.00  0.00    +0.000 HD
ENDBRANCH  21  24
ENDBRANCH  17  20
ENDBRANCH   4  16
BRANCH   3  26
ATOM     26  C   UNL     1      -4.701 -34.898  -8.578  0.00  0.00    +0.000 C 
BRANCH  26  27
ATOM     27  O   UNL     1      -5.825 -35.418  -9.080  0.00  0.00    +0.000 OA
ATOM     28  H   UNL     1      -5.697 -36.357  -9.308  0.00  0.00    +0.000 HD
ENDBRANCH  26  27
ENDBRANCH   3  26
TORSDOF 6
ENDMDL
MODEL 3
REMARK VINA RESULT:      -5.5      2.167      3.838
REMARK  Name = 5318517_Andrographolide.pdbqt.pdb
REMARK  6 active torsions:
REMARK  status: ('A' for Active; 'I' for Inactive)
REMARK    1  A    between atoms: C_3  and  C_16
REMARK    2  A    between atoms: C_4  and  C_19
REMARK    3  A    between atoms: C_6  and  O_14
REMARK    4  A    between atoms: C_16  and  O_17
REMARK    5  A    between atoms: C_22  and  C_23
REMARK    6  A    between atoms: C_24  and  O_27
REMARK                            x       y       z     vdW  Elec       q    Type
REMARK                         _______ _______ _______ _____ _____    ______ ____
ROOT
ATOM      1  C   UNL     1      -4.455 -35.352  -6.408  0.00  0.00    +0.000 C 
ATOM      2  C   UNL     1      -4.926 -34.185  -7.328  0.00  0.00    +0.000 C 
ATOM      3  C   UNL     1      -4.353 -33.960  -8.739  0.00  0.00    +0.000 C 
ATOM      4  C   UNL     1      -4.532 -35.114  -4.874  0.00  0.00    +0.000 C 
ATOM      5  C   UNL     1      -3.071 -35.599  -6.805  0.00  0.00    +0.000 C 
ATOM      6  C   UNL     1      -2.926 -34.518  -9.024  0.00  0.00    +0.000 C 
ATOM      7  C   UNL     1      -5.891 -33.334  -6.720  0.00  0.00    +0.000 C 
ATOM      8  C   UNL     1      -2.274 -35.250  -8.015  0.00  0.00    +0.000 C 
ATOM      9  C   UNL     1      -5.347 -36.587  -6.739  0.00  0.00    +0.000 C 
ATOM     10  C   UNL     1      -6.188 -33.366  -5.255  0.00  0.00    +0.000 C 
ATOM     11  C   UNL     1      -5.551 -34.209  -4.321  0.00  0.00    +0.000 C 
ATOM     12  C   UNL     1      -4.253 -32.409  -8.974  0.00  0.00    +0.000 C 
ATOM     13  C   UNL     1      -5.743 -33.963  -3.024  0.00  0.00    +0.000 C 
ENDROOT
BRANCH   6  14
ATOM     14  O   UNL     1      -2.391 -34.477 -10.300  0.00  0.00    +0.000 OA
ATOM     15  H   UNL     1      -1.424 -34.592 -10.299  0.00  0.00    +0.000 HD
ENDBRANCH   6  14
BRANCH   4  16
ATOM     16  C   UNL     1      -3.699 -35.870  -3.981  0.00  0.00    +0.000 C 
ATOM     17  C   UNL     1      -2.814 -36.669  -3.021  0.00  0.00    +0.000 C 
BRANCH  17  20
ATOM     18  O   UNL     1      -0.373 -38.777  -1.510  0.00  0.00    +0.000 OA
ATOM     19  O   UNL     1      -0.837 -38.753  -3.796  0.00  0.00    +0.000 OA
ATOM     20  C   UNL     1      -2.072 -37.349  -2.204  0.00  0.00    +0.000 C 
ATOM     21  C   UNL     1      -1.990 -37.217  -0.771  0.00  0.00    +0.000 C 
ATOM     22  C   UNL     1      -1.044 -38.366  -2.659  0.00  0.00    +0.000 C 
ATOM     23  C   UNL     1      -0.938 -38.101  -0.521  0.00  0.00    +0.000 C 
BRANCH  21  24
ATOM     24  O   UNL     1      -2.129 -35.992  -0.183  0.00  0.00    +0.000 OA
ATOM     25  H   UNL     1      -2.076 -36.049   0.787  0.00  0.00    +0.000 HD
ENDBRANCH  21  24
ENDBRANCH  17  20
ENDBRANCH   4  16
BRANCH   3  26
ATOM     26  C   UNL     1      -5.302 -34.569  -9.714  0.00  0.00    +0.000 C 
BRANCH  26  27
ATOM     27  O   UNL     1      -6.144 -35.116 -10.596  0.00  0.00    +0.000 OA
ATOM     28  H   UNL     1      -5.703 -35.828 -11.094  0.00  0.00    +0.000 HD
ENDBRANCH  26  27
ENDBRANCH   3  26
TORSDOF 6
ENDMDL
MODEL 4
REMARK VINA RESULT:      -5.4     10.186     14.154
REMARK  Name = 5318517_Andrographolide.pdbqt.pdb
REMARK  6 active torsions:
REMARK  status: ('A' for Active; 'I' for Inactive)
REMARK    1  A    between atoms: C_3  and  C_16
REMARK    2  A    between atoms: C_4  and  C_19
REMARK    3  A    between atoms: C_6  and  O_14
REMARK    4  A    between atoms: C_16  and  O_17
REMARK    5  A    between atoms: C_22  and  C_23
REMARK    6  A    between atoms: C_24  and  O_27
REMARK                            x       y       z     vdW  Elec       q    Type
REMARK                         _______ _______ _______ _____ _____    ______ ____
ROOT
ATOM      1  C   UNL     1       5.452 -29.512  -9.108  0.00  0.00    +0.000 C 
ATOM      2  C   UNL     1       6.162 -29.210  -7.754  0.00  0.00    +0.000 C 
ATOM      3  C   UNL     1       5.913 -30.045  -6.484  0.00  0.00    +0.000 C 
ATOM      4  C   UNL     1       5.214 -28.306 -10.061  0.00  0.00    +0.000 C 
ATOM      5  C   UNL     1       4.174 -30.107  -8.729  0.00  0.00    +0.000 C 
ATOM      6  C   UNL     1       4.554 -30.802  -6.387  0.00  0.00    +0.000 C 
ATOM      7  C   UNL     1       7.017 -28.072  -7.798  0.00  0.00    +0.000 C 
ATOM      8  C   UNL     1       3.669 -30.742  -7.478  0.00  0.00    +0.000 C 
ATOM      9  C   UNL     1       6.334 -30.547  -9.870  0.00  0.00    +0.000 C 
ATOM     10  C   UNL     1       6.994 -27.089  -8.924  0.00  0.00    +0.000 C 
ATOM     11  C   UNL     1       6.134 -27.159 -10.040  0.00  0.00    +0.000 C 
ATOM     12  C   UNL     1       5.940 -29.067  -5.254  0.00  0.00    +0.000 C 
ATOM     13  C   UNL     1       6.058 -26.094 -10.839  0.00  0.00    +0.000 C 
ENDROOT
BRANCH   6  14
ATOM     14  O   UNL     1       4.305 -31.678  -5.345  0.00  0.00    +0.000 OA
ATOM     15  H   UNL     1       4.006 -32.549  -5.659  0.00  0.00    +0.000 HD
ENDBRANCH   6  14
BRANCH   4  16
ATOM     16  C   UNL     1       4.175 -28.361 -11.051  0.00  0.00    +0.000 C 
ATOM     17  C   UNL     1       3.072 -28.429 -12.111  0.00  0.00    +0.000 C 
BRANCH  17  20
ATOM     18  O   UNL     1       1.124 -28.316 -15.091  0.00  0.00    +0.000 OA
ATOM     19  O   UNL     1       3.207 -27.291 -14.856  0.00  0.00    +0.000 OA
ATOM     20  C   UNL     1       2.135 -28.494 -13.004  0.00  0.00    +0.000 C 
ATOM     21  C   UNL     1       0.864 -29.166 -12.899  0.00  0.00    +0.000 C 
ATOM     22  C   UNL     1       2.277 -27.938 -14.407  0.00  0.00    +0.000 C 
ATOM     23  C   UNL     1       0.405 -28.990 -14.206  0.00  0.00    +0.000 C 
BRANCH  21  24
ATOM     24  O   UNL     1       0.756 -30.329 -12.191  0.00  0.00    +0.000 OA
ATOM     25  H   UNL     1       0.587 -31.092 -12.772  0.00  0.00    +0.000 HD
ENDBRANCH  21  24
ENDBRANCH  17  20
ENDBRANCH   4  16
BRANCH   3  26
ATOM     26  C   UNL     1       7.017 -31.040  -6.374  0.00  0.00    +0.000 C 
BRANCH  26  27
ATOM     27  O   UNL     1       8.008 -31.930  -6.264  0.00  0.00    +0.000 OA
ATOM     28  H   UNL     1       7.832 -32.709  -6.822  0.00  0.00    +0.000 HD
ENDBRANCH  26  27
ENDBRANCH   3  26
TORSDOF 6
ENDMDL
MODEL 5
REMARK VINA RESULT:      -5.3     10.024     13.348
REMARK  Name = 5318517_Andrographolide.pdbqt.pdb
REMARK  6 active torsions:
REMARK  status: ('A' for Active; 'I' for Inactive)
REMARK    1  A    between atoms: C_3  and  C_16
REMARK    2  A    between atoms: C_4  and  C_19
REMARK    3  A    between atoms: C_6  and  O_14
REMARK    4  A    between atoms: C_16  and  O_17
REMARK    5  A    between atoms: C_22  and  C_23
REMARK    6  A    between atoms: C_24  and  O_27
REMARK                            x       y       z     vdW  Elec       q    Type
REMARK                         _______ _______ _______ _____ _____    ______ ____
ROOT
ATOM      1  C   UNL     1       5.742 -29.824  -8.084  0.00  0.00    +0.000 C 
ATOM      2  C   UNL     1       6.375 -29.077  -6.872  0.00  0.00    +0.000 C 
ATOM      3  C   UNL     1       6.190 -29.549  -5.418  0.00  0.00    +0.000 C 
ATOM      4  C   UNL     1       5.392 -28.968  -9.334  0.00  0.00    +0.000 C 
ATOM      5  C   UNL     1       4.531 -30.438  -7.546  0.00  0.00    +0.000 C 
ATOM      6  C   UNL     1       4.925 -30.404  -5.105  0.00  0.00    +0.000 C 
ATOM      7  C   UNL     1       7.093 -27.903  -7.237  0.00  0.00    +0.000 C 
ATOM      8  C   UNL     1       4.069 -30.756  -6.164  0.00  0.00    +0.000 C 
ATOM      9  C   UNL     1       6.758 -30.918  -8.532  0.00  0.00    +0.000 C 
ATOM     10  C   UNL     1       6.988 -27.281  -8.593  0.00  0.00    +0.000 C 
ATOM     11  C   UNL     1       6.172 -27.760  -9.639  0.00  0.00    +0.000 C 
ATOM     12  C   UNL     1       6.069 -28.272  -4.510  0.00  0.00    +0.000 C 
ATOM     13  C   UNL     1       5.996 -26.976 -10.704  0.00  0.00    +0.000 C 
ENDROOT
BRANCH   6  14
ATOM     14  O   UNL     1       4.750 -30.980  -3.859  0.00  0.00    +0.000 OA
ATOM     15  H   UNL     1       3.907 -31.461  -3.790  0.00  0.00    +0.000 HD
ENDBRANCH   6  14
BRANCH   4  16
ATOM     16  C   UNL     1       4.394 -29.419 -10.263  0.00  0.00    +0.000 C 
ATOM     17  C   UNL     1       3.321 -29.896 -11.246  0.00  0.00    +0.000 C 
BRANCH  17  20
ATOM     18  O   UNL     1       0.992 -31.762 -13.190  0.00  0.00    +0.000 OA
ATOM     19  O   UNL     1       2.696 -32.725 -11.922  0.00  0.00    +0.000 OA
ATOM     20  C   UNL     1       2.411 -30.291 -12.079  0.00  0.00    +0.000 C 
ATOM     21  C   UNL     1       1.473 -29.477 -12.811  0.00  0.00    +0.000 C 
ATOM     22  C   UNL     1       2.102 -31.751 -12.349  0.00  0.00    +0.000 C 
ATOM     23  C   UNL     1       0.701 -30.485 -13.391  0.00  0.00    +0.000 C 
BRANCH  21  24
ATOM     24  O   UNL     1       0.967 -28.339 -12.252  0.00  0.00    +0.000 OA
ATOM     25  H   UNL     1       0.180 -28.021 -12.729  0.00  0.00    +0.000 HD
ENDBRANCH  21  24
ENDBRANCH  17  20
ENDBRANCH   4  16
BRANCH   3  26
ATOM     26  C   UNL     1       7.398 -30.336  -5.042  0.00  0.00    +0.000 C 
BRANCH  26  27
ATOM     27  O   UNL     1       8.477 -31.043  -4.693  0.00  0.00    +0.000 OA
ATOM     28  H   UNL     1       9.291 -30.535  -4.865  0.00  0.00    +0.000 HD
ENDBRANCH  26  27
ENDBRANCH   3  26
TORSDOF 6
ENDMDL
MODEL 6
REMARK VINA RESULT:      -5.3     17.060     20.578
REMARK  Name = 5318517_Andrographolide.pdbqt.pdb
REMARK  6 active torsions:
REMARK  status: ('A' for Active; 'I' for Inactive)
REMARK    1  A    between atoms: C_3  and  C_16
REMARK    2  A    between atoms: C_4  and  C_19
REMARK    3  A    between atoms: C_6  and  O_14
REMARK    4  A    between atoms: C_16  and  O_17
REMARK    5  A    between atoms: C_22  and  C_23
REMARK    6  A    between atoms: C_24  and  O_27
REMARK                            x       y       z     vdW  Elec       q    Type
REMARK                         _______ _______ _______ _____ _____    ______ ____
ROOT
ATOM      1  C   UNL     1      -0.505 -17.366  -0.700  0.00  0.00    +0.000 C 
ATOM      2  C   UNL     1      -1.414 -18.419   0.005  0.00  0.00    +0.000 C 
ATOM      3  C   UNL     1      -0.843 -19.627   0.768  0.00  0.00    +0.000 C 
ATOM      4  C   UNL     1      -1.097 -16.649  -1.946  0.00  0.00    +0.000 C 
ATOM      5  C   UNL     1       0.695 -18.108  -1.075  0.00  0.00    +0.000 C 
ATOM      6  C   UNL     1       0.578 -20.120   0.357  0.00  0.00    +0.000 C 
ATOM      7  C   UNL     1      -2.806 -18.176  -0.166  0.00  0.00    +0.000 C 
ATOM      8  C   UNL     1       1.283 -19.403  -0.626  0.00  0.00    +0.000 C 
ATOM      9  C   UNL     1      -0.164 -16.271   0.356  0.00  0.00    +0.000 C 
ATOM     10  C   UNL     1      -3.339 -17.205  -1.171  0.00  0.00    +0.000 C 
ATOM     11  C   UNL     1      -2.548 -16.446  -2.058  0.00  0.00    +0.000 C 
ATOM     12  C   UNL     1      -1.800 -20.848   0.519  0.00  0.00    +0.000 C 
ATOM     13  C   UNL     1      -3.165 -15.806  -3.053  0.00  0.00    +0.000 C 
ENDROOT
BRANCH   6  14
ATOM     14  O   UNL     1       1.219 -21.113   1.077  0.00  0.00    +0.000 OA
ATOM     15  H   UNL     1       0.800 -21.984   0.959  0.00  0.00    +0.000 HD
ENDBRANCH   6  14
BRANCH   4  16
ATOM     16  C   UNL     1      -0.224 -16.069  -2.929  0.00  0.00    +0.000 C 
ATOM     17  C   UNL     1       0.713 -15.446  -3.968  0.00  0.00    +0.000 C 
BRANCH  17  20
ATOM     18  O   UNL     1       3.511 -14.465  -5.941  0.00  0.00    +0.000 OA
ATOM     19  O   UNL     1       3.685 -15.503  -3.859  0.00  0.00    +0.000 OA
ATOM     20  C   UNL     1       1.512 -14.925  -4.845  0.00  0.00    +0.000 C 
ATOM     21  C   UNL     1       1.158 -14.265  -6.076  0.00  0.00    +0.000 C 
ATOM     22  C   UNL     1       3.022 -15.027  -4.764  0.00  0.00    +0.000 C 
ATOM     23  C   UNL     1       2.435 -14.079  -6.610  0.00  0.00    +0.000 C 
BRANCH  21  24
ATOM     24  O   UNL     1       0.072 -14.679  -6.793  0.00  0.00    +0.000 OA
ATOM     25  H   UNL     1      -0.741 -14.666  -6.258  0.00  0.00    +0.000 HD
ENDBRANCH  21  24
ENDBRANCH  17  20
ENDBRANCH   4  16
BRANCH   3  26
ATOM     26  C   UNL     1      -0.820 -19.278   2.217  0.00  0.00    +0.000 C 
BRANCH  26  27
ATOM     27  O   UNL     1      -0.810 -18.956   3.514  0.00  0.00    +0.000 OA
ATOM     28  H   UNL     1      -1.083 -19.717   4.058  0.00  0.00    +0.000 HD
ENDBRANCH  26  27
ENDBRANCH   3  26
TORSDOF 6
ENDMDL
MODEL 7
REMARK VINA RESULT:      -5.2      2.670      4.323
REMARK  Name = 5318517_Andrographolide.pdbqt.pdb
REMARK  6 active torsions:
REMARK  status: ('A' for Active; 'I' for Inactive)
REMARK    1  A    between atoms: C_3  and  C_16
REMARK    2  A    between atoms: C_4  and  C_19
REMARK    3  A    between atoms: C_6  and  O_14
REMARK    4  A    between atoms: C_16  and  O_17
REMARK    5  A    between atoms: C_22  and  C_23
REMARK    6  A    between atoms: C_24  and  O_27
REMARK                            x       y       z     vdW  Elec       q    Type
REMARK                         _______ _______ _______ _____ _____    ______ ____
ROOT
ATOM      1  C   UNL     1      -2.802 -36.948  -6.263  0.00  0.00    +0.000 C 
ATOM      2  C   UNL     1      -2.590 -36.242  -7.637  0.00  0.00    +0.000 C 
ATOM      3  C   UNL     1      -2.098 -36.994  -8.887  0.00  0.00    +0.000 C 
ATOM      4  C   UNL     1      -2.615 -36.076  -4.989  0.00  0.00    +0.000 C 
ATOM      5  C   UNL     1      -1.841 -38.047  -6.261  0.00  0.00    +0.000 C 
ATOM      6  C   UNL     1      -1.272 -38.295  -8.654  0.00  0.00    +0.000 C 
ATOM      7  C   UNL     1      -2.848 -34.842  -7.606  0.00  0.00    +0.000 C 
ATOM      8  C   UNL     1      -1.081 -38.747  -7.335  0.00  0.00    +0.000 C 
ATOM      9  C   UNL     1      -4.262 -37.496  -6.248  0.00  0.00    +0.000 C 
ATOM     10  C   UNL     1      -3.000 -34.078  -6.330  0.00  0.00    +0.000 C 
ATOM     11  C   UNL     1      -2.890 -34.633  -5.038  0.00  0.00    +0.000 C 
ATOM     12  C   UNL     1      -1.149 -36.029  -9.685  0.00  0.00    +0.000 C 
ATOM     13  C   UNL     1      -2.811 -33.796  -4.003  0.00  0.00    +0.000 C 
ENDROOT
BRANCH   6  14
ATOM     14  O   UNL     1      -0.905 -39.102  -9.717  0.00  0.00    +0.000 OA
ATOM     15  H   UNL     1      -1.669 -39.367 -10.259  0.00  0.00    +0.000 HD
ENDBRANCH   6  14
BRANCH   4  16
ATOM     16  C   UNL     1      -2.299 -36.693  -3.731  0.00  0.00    +0.000 C 
ATOM     17  C   UNL     1      -1.973 -37.352  -2.388  0.00  0.00    +0.000 C 
BRANCH  17  20
ATOM     18  O   UNL     1      -0.669 -39.369   0.242  0.00  0.00    +0.000 OA
ATOM     19  O   UNL     1      -0.360 -39.825  -2.024  0.00  0.00    +0.000 OA
ATOM     20  C   UNL     1      -1.699 -37.917  -1.254  0.00  0.00    +0.000 C 
ATOM     21  C   UNL     1      -2.054 -37.460   0.066  0.00  0.00    +0.000 C 
ATOM     22  C   UNL     1      -0.829 -39.152  -1.124  0.00  0.00    +0.000 C 
ATOM     23  C   UNL     1      -1.358 -38.401   0.828  0.00  0.00    +0.000 C 
BRANCH  21  24
ATOM     24  O   UNL     1      -2.102 -36.123   0.343  0.00  0.00    +0.000 OA
ATOM     25  H   UNL     1      -2.416 -35.952   1.248  0.00  0.00    +0.000 HD
ENDBRANCH  21  24
ENDBRANCH  17  20
ENDBRANCH   4  16
BRANCH   3  26
ATOM     26  C   UNL     1      -3.295 -37.336  -9.708  0.00  0.00    +0.000 C 
BRANCH  26  27
ATOM     27  O   UNL     1      -4.360 -37.650 -10.450  0.00  0.00    +0.000 OA
ATOM     28  H   UNL     1      -4.580 -38.595 -10.352  0.00  0.00    +0.000 HD
ENDBRANCH  26  27
ENDBRANCH   3  26
TORSDOF 6
ENDMDL
MODEL 8
REMARK VINA RESULT:      -5.2     19.478     21.180
REMARK  Name = 5318517_Andrographolide.pdbqt.pdb
REMARK  6 active torsions:
REMARK  status: ('A' for Active; 'I' for Inactive)
REMARK    1  A    between atoms: C_3  and  C_16
REMARK    2  A    between atoms: C_4  and  C_19
REMARK    3  A    between atoms: C_6  and  O_14
REMARK    4  A    between atoms: C_16  and  O_17
REMARK    5  A    between atoms: C_22  and  C_23
REMARK    6  A    between atoms: C_24  and  O_27
REMARK                            x       y       z     vdW  Elec       q    Type
REMARK                         _______ _______ _______ _____ _____    ______ ____
ROOT
ATOM      1  C   UNL     1     -12.399 -17.009   1.737  0.00  0.00    +0.000 C 
ATOM      2  C   UNL     1     -12.975 -16.511   0.377  0.00  0.00    +0.000 C 
ATOM      3  C   UNL     1     -13.927 -17.363  -0.481  0.00  0.00    +0.000 C 
ATOM      4  C   UNL     1     -11.007 -16.457   2.156  0.00  0.00    +0.000 C 
ATOM      5  C   UNL     1     -12.338 -18.462   1.602  0.00  0.00    +0.000 C 
ATOM      6  C   UNL     1     -13.859 -18.909  -0.296  0.00  0.00    +0.000 C 
ATOM      7  C   UNL     1     -12.499 -15.226  -0.008  0.00  0.00    +0.000 C 
ATOM      8  C   UNL     1     -12.995 -19.435   0.682  0.00  0.00    +0.000 C 
ATOM      9  C   UNL     1     -13.419 -16.605   2.844  0.00  0.00    +0.000 C 
ATOM     10  C   UNL     1     -11.336 -14.563   0.659  0.00  0.00    +0.000 C 
ATOM     11  C   UNL     1     -10.580 -15.124   1.709  0.00  0.00    +0.000 C 
ATOM     12  C   UNL     1     -13.575 -17.104  -1.991  0.00  0.00    +0.000 C 
ATOM     13  C   UNL     1      -9.433 -14.528   2.041  0.00  0.00    +0.000 C 
ENDROOT
BRANCH   6  14
ATOM     14  O   UNL     1     -14.769 -19.739  -0.927  0.00  0.00    +0.000 OA
ATOM     15  H   UNL     1     -15.571 -19.881  -0.394  0.00  0.00    +0.000 HD
ENDBRANCH   6  14
BRANCH   4  16
ATOM     16  C   UNL     1     -10.188 -17.188   3.082  0.00  0.00    +0.000 C 
ATOM     17  C   UNL     1      -9.323 -17.965   4.079  0.00  0.00    +0.000 C 
BRANCH  17  20
ATOM     18  O   UNL     1      -7.973 -20.370   6.333  0.00  0.00    +0.000 OA
ATOM     19  O   UNL     1     -10.181 -20.386   5.579  0.00  0.00    +0.000 OA
ATOM     20  C   UNL     1      -8.597 -18.629   4.922  0.00  0.00    +0.000 C 
ATOM     21  C   UNL     1      -7.220 -18.392   5.277  0.00  0.00    +0.000 C 
ATOM     22  C   UNL     1      -9.070 -19.888   5.622  0.00  0.00    +0.000 C 
ATOM     23  C   UNL     1      -6.999 -19.506   6.089  0.00  0.00    +0.000 C 
BRANCH  21  24
ATOM     24  O   UNL     1      -6.338 -17.927   4.343  0.00  0.00    +0.000 OA
ATOM     25  H   UNL     1      -6.651 -18.094   3.437  0.00  0.00    +0.000 HD
ENDBRANCH  21  24
ENDBRANCH  17  20
ENDBRANCH   4  16
BRANCH   3  26
ATOM     26  C   UNL     1     -15.319 -16.913  -0.193  0.00  0.00    +0.000 C 
BRANCH  26  27
ATOM     27  O   UNL     1     -16.565 -16.514   0.077  0.00  0.00    +0.000 OA
ATOM     28  H   UNL     1     -16.932 -16.007  -0.670  0.00  0.00    +0.000 HD
ENDBRANCH  26  27
ENDBRANCH   3  26
TORSDOF 6
ENDMDL
MODEL 9
REMARK VINA RESULT:      -5.1     18.559     21.416
REMARK  Name = 5318517_Andrographolide.pdbqt.pdb
REMARK  6 active torsions:
REMARK  status: ('A' for Active; 'I' for Inactive)
REMARK    1  A    between atoms: C_3  and  C_16
REMARK    2  A    between atoms: C_4  and  C_19
REMARK    3  A    between atoms: C_6  and  O_14
REMARK    4  A    between atoms: C_16  and  O_17
REMARK    5  A    between atoms: C_22  and  C_23
REMARK    6  A    between atoms: C_24  and  O_27
REMARK                            x       y       z     vdW  Elec       q    Type
REMARK                         _______ _______ _______ _____ _____    ______ ____
ROOT
ATOM      1  C   UNL     1       1.365 -18.850 -14.372  0.00  0.00    +0.000 C 
ATOM      2  C   UNL     1       2.312 -18.370 -13.231  0.00  0.00    +0.000 C 
ATOM      3  C   UNL     1       3.249 -19.329 -12.475  0.00  0.00    +0.000 C 
ATOM      4  C   UNL     1       0.047 -18.050 -14.575  0.00  0.00    +0.000 C 
ATOM      5  C   UNL     1       1.059 -20.238 -14.038  0.00  0.00    +0.000 C 
ATOM      6  C   UNL     1       2.847 -20.835 -12.439  0.00  0.00    +0.000 C 
ATOM      7  C   UNL     1       2.188 -16.984 -12.931  0.00  0.00    +0.000 C 
ATOM      8  C   UNL     1       1.704 -21.245 -13.148  0.00  0.00    +0.000 C 
ATOM      9  C   UNL     1       2.173 -18.772 -15.703  0.00  0.00    +0.000 C 
ATOM     10  C   UNL     1       1.056 -16.147 -13.434  0.00  0.00    +0.000 C 
ATOM     11  C   UNL     1      -0.007 -16.622 -14.230  0.00  0.00    +0.000 C 
ATOM     12  C   UNL     1       3.296 -18.870 -10.973  0.00  0.00    +0.000 C 
ATOM     13  C   UNL     1      -1.062 -15.825 -14.403  0.00  0.00    +0.000 C 
ENDROOT
BRANCH   6  14
ATOM     14  O   UNL     1       3.698 -21.782 -11.897  0.00  0.00    +0.000 OA
ATOM     15  H   UNL     1       3.311 -22.676 -11.909  0.00  0.00    +0.000 HD
ENDBRANCH   6  14
BRANCH   4  16
ATOM     16  C   UNL     1      -1.081 -18.665 -15.216  0.00  0.00    +0.000 C 
ATOM     17  C   UNL     1      -2.289 -19.311 -15.901  0.00  0.00    +0.000 C 
BRANCH  17  20
ATOM     18  O   UNL     1      -4.482 -21.304 -17.877  0.00  0.00    +0.000 OA
ATOM     19  O   UNL     1      -2.169 -21.234 -18.168  0.00  0.00    +0.000 OA
ATOM     20  C   UNL     1      -3.309 -19.853 -16.488  0.00  0.00    +0.000 C 
ATOM     21  C   UNL     1      -4.702 -19.702 -16.151  0.00  0.00    +0.000 C 
ATOM     22  C   UNL     1      -3.187 -20.867 -17.608  0.00  0.00    +0.000 C 
ATOM     23  C   UNL     1      -5.253 -20.630 -17.037  0.00  0.00    +0.000 C 
BRANCH  21  24
ATOM     24  O   UNL     1      -5.084 -19.555 -14.848  0.00  0.00    +0.000 OA
ATOM     25  H   UNL     1      -4.362 -19.206 -14.296  0.00  0.00    +0.000 HD
ENDBRANCH  21  24
ENDBRANCH  17  20
ENDBRANCH   4  16
BRANCH   3  26
ATOM     26  C   UNL     1       4.602 -19.216 -13.090  0.00  0.00    +0.000 C 
BRANCH  26  27
ATOM     27  O   UNL     1       5.810 -19.109 -13.652  0.00  0.00    +0.000 OA
ATOM     28  H   UNL     1       5.796 -19.450 -14.564  0.00  0.00    +0.000 HD
ENDBRANCH  26  27
ENDBRANCH   3  26
TORSDOF 6
ENDMDL
