MODEL 1
REMARK VINA RESULT:      -6.5      0.000      0.000
REMARK  Name = 5326018_Caulerpin.pdbqt.pdb
REMARK  4 active torsions:
REMARK  status: ('A' for Active; 'I' for Inactive)
REMARK    1  A    between atoms: C_11  and  C_26
REMARK    2  A    between atoms: C_12  and  C_30
REMARK    3  A    between atoms: C_26  and  O_27
REMARK    4  A    between atoms: C_30  and  O_31
REMARK                            x       y       z     vdW  Elec       q    Type
REMARK                         _______ _______ _______ _____ _____    ______ ____
ROOT
ATOM      1  N   UNL     1      -5.844 -35.219  -1.984  0.00  0.00    +0.000 N 
ATOM      2  N   UNL     1      -2.819 -35.771  -7.748  0.00  0.00    +0.000 N 
ATOM      3  C   UNL     1      -5.390 -34.305  -3.951  0.00  0.00    +0.000 C 
ATOM      4  C   UNL     1      -2.975 -36.455  -5.646  0.00  0.00    +0.000 C 
ATOM      5  C   UNL     1      -4.963 -35.273  -3.044  0.00  0.00    +0.000 C 
ATOM      6  C   UNL     1      -3.297 -35.409  -6.506  0.00  0.00    +0.000 C 
ATOM      7  C   UNL     1      -6.499 -33.617  -3.404  0.00  0.00    +0.000 A 
ATOM      8  C   UNL     1      -2.239 -37.431  -6.361  0.00  0.00    +0.000 A 
ATOM      9  C   UNL     1      -6.761 -34.206  -2.168  0.00  0.00    +0.000 A 
ATOM     10  C   UNL     1      -2.151 -36.975  -7.676  0.00  0.00    +0.000 A 
ATOM     11  C   UNL     1      -3.907 -36.249  -3.101  0.00  0.00    +0.000 C 
ATOM     12  C   UNL     1      -4.039 -34.191  -6.307  0.00  0.00    +0.000 C 
ATOM     13  C   UNL     1      -3.380 -36.483  -4.274  0.00  0.00    +0.000 C 
ATOM     14  C   UNL     1      -4.770 -34.113  -5.225  0.00  0.00    +0.000 C 
ATOM     15  C   UNL     1      -7.321 -32.562  -3.843  0.00  0.00    +0.000 A 
ATOM     16  C   UNL     1      -1.651 -38.666  -6.029  0.00  0.00    +0.000 A 
ATOM     17  C   UNL     1      -7.807 -33.790  -1.337  0.00  0.00    +0.000 A 
ATOM     18  C   UNL     1      -1.498 -37.693  -8.684  0.00  0.00    +0.000 A 
ATOM     19  C   UNL     1      -8.366 -32.130  -3.023  0.00  0.00    +0.000 A 
ATOM     20  C   UNL     1      -0.991 -39.392  -7.022  0.00  0.00    +0.000 A 
ATOM     21  C   UNL     1      -8.602 -32.735  -1.793  0.00  0.00    +0.000 A 
ATOM     22  C   UNL     1      -0.916 -38.910  -8.324  0.00  0.00    +0.000 A 
ATOM     23  H   UNL     1      -5.855 -35.827  -1.175  0.00  0.00    +0.000 HD
ATOM     24  H   UNL     1      -2.933 -35.259  -8.615  0.00  0.00    +0.000 HD
ENDROOT
BRANCH  11  26
ATOM     25  O   UNL     1      -3.836 -37.012  -0.834  0.00  0.00    +0.000 OA
ATOM     26  C   UNL     1      -3.281 -36.914  -1.922  0.00  0.00    +0.000 C 
BRANCH  26  27
ATOM     27  O   UNL     1      -2.052 -37.384  -2.283  0.00  0.00    +0.000 OA
ATOM     28  C   UNL     1      -1.297 -38.077  -1.324  0.00  0.00    +0.000 C 
ENDBRANCH  26  27
ENDBRANCH  11  26
BRANCH  12  30
ATOM     29  O   UNL     1      -4.827 -32.126  -7.226  0.00  0.00    +0.000 OA
ATOM     30  C   UNL     1      -3.942 -32.970  -7.160  0.00  0.00    +0.000 C 
BRANCH  30  31
ATOM     31  O   UNL     1      -2.732 -32.971  -7.793  0.00  0.00    +0.000 OA
ATOM     32  C   UNL     1      -2.554 -32.106  -8.883  0.00  0.00    +0.000 C 
ENDBRANCH  30  31
ENDBRANCH  12  30
TORSDOF 4
ENDMDL
MODEL 2
REMARK VINA RESULT:      -6.3      0.909      7.807
REMARK  Name = 5326018_Caulerpin.pdbqt.pdb
REMARK  4 active torsions:
REMARK  status: ('A' for Active; 'I' for Inactive)
REMARK    1  A    between atoms: C_11  and  C_26
REMARK    2  A    between atoms: C_12  and  C_30
REMARK    3  A    between atoms: C_26  and  O_27
REMARK    4  A    between atoms: C_30  and  O_31
REMARK                            x       y       z     vdW  Elec       q    Type
REMARK                         _______ _______ _______ _____ _____    ______ ____
ROOT
ATOM      1  N   UNL     1      -3.344 -35.551  -7.668  0.00  0.00    +0.000 N 
ATOM      2  N   UNL     1      -6.088 -35.132  -1.754  0.00  0.00    +0.000 N 
ATOM      3  C   UNL     1      -3.340 -36.218  -5.554  0.00  0.00    +0.000 C 
ATOM      4  C   UNL     1      -5.802 -34.215  -3.751  0.00  0.00    +0.000 C 
ATOM      5  C   UNL     1      -3.778 -35.206  -6.405  0.00  0.00    +0.000 C 
ATOM      6  C   UNL     1      -5.263 -35.139  -2.860  0.00  0.00    +0.000 C 
ATOM      7  C   UNL     1      -2.578 -37.150  -6.300  0.00  0.00    +0.000 A 
ATOM      8  C   UNL     1      -6.925 -33.596  -3.152  0.00  0.00    +0.000 A 
ATOM      9  C   UNL     1      -2.592 -36.706  -7.621  0.00  0.00    +0.000 A 
ATOM     10  C   UNL     1      -7.080 -34.185  -1.898  0.00  0.00    +0.000 A 
ATOM     11  C   UNL     1      -4.589 -34.039  -6.178  0.00  0.00    +0.000 C 
ATOM     12  C   UNL     1      -4.147 -36.042  -2.965  0.00  0.00    +0.000 C 
ATOM     13  C   UNL     1      -5.265 -33.996  -5.058  0.00  0.00    +0.000 C 
ATOM     14  C   UNL     1      -3.668 -36.256  -4.163  0.00  0.00    +0.000 C 
ATOM     15  C   UNL     1      -1.892 -38.338  -5.988  0.00  0.00    +0.000 A 
ATOM     16  C   UNL     1      -7.839 -32.604  -3.554  0.00  0.00    +0.000 A 
ATOM     17  C   UNL     1      -1.946 -37.391  -8.657  0.00  0.00    +0.000 A 
ATOM     18  C   UNL     1      -8.107 -33.831  -1.016  0.00  0.00    +0.000 A 
ATOM     19  C   UNL     1      -1.236 -39.031  -7.009  0.00  0.00    +0.000 A 
ATOM     20  C   UNL     1      -8.866 -32.234  -2.683  0.00  0.00    +0.000 A 
ATOM     21  C   UNL     1      -1.264 -38.562  -8.318  0.00  0.00    +0.000 A 
ATOM     22  C   UNL     1      -8.993 -32.838  -1.437  0.00  0.00    +0.000 A 
ATOM     23  H   UNL     1      -3.538 -35.059  -8.531  0.00  0.00    +0.000 HD
ATOM     24  H   UNL     1      -6.014 -35.729  -0.939  0.00  0.00    +0.000 HD
ENDROOT
BRANCH  11  26
ATOM     25  O   UNL     1      -4.090 -31.766  -6.736  0.00  0.00    +0.000 OA
ATOM     26  C   UNL     1      -4.621 -32.826  -7.045  0.00  0.00    +0.000 C 
BRANCH  26  27
ATOM     27  O   UNL     1      -5.298 -33.123  -8.193  0.00  0.00    +0.000 OA
ATOM     28  C   UNL     1      -4.674 -32.853  -9.420  0.00  0.00    +0.000 C 
ENDBRANCH  26  27
ENDBRANCH  11  26
BRANCH  12  30
ATOM     29  O   UNL     1      -2.210 -36.508  -1.638  0.00  0.00    +0.000 OA
ATOM     30  C   UNL     1      -3.415 -36.649  -1.815  0.00  0.00    +0.000 C 
BRANCH  30  31
ATOM     31  O   UNL     1      -4.305 -37.328  -1.035  0.00  0.00    +0.000 OA
ATOM     32  C   UNL     1      -4.702 -38.610  -1.445  0.00  0.00    +0.000 C 
ENDBRANCH  30  31
ENDBRANCH  12  30
TORSDOF 4
ENDMDL
MODEL 3
REMARK VINA RESULT:      -6.3     17.606     20.032
REMARK  Name = 5326018_Caulerpin.pdbqt.pdb
REMARK  4 active torsions:
REMARK  status: ('A' for Active; 'I' for Inactive)
REMARK    1  A    between atoms: C_11  and  C_26
REMARK    2  A    between atoms: C_12  and  C_30
REMARK    3  A    between atoms: C_26  and  O_27
REMARK    4  A    between atoms: C_30  and  O_31
REMARK                            x       y       z     vdW  Elec       q    Type
REMARK                         _______ _______ _______ _____ _____    ______ ____
ROOT
ATOM      1  N   UNL     1      -4.258 -13.853  -1.884  0.00  0.00    +0.000 N 
ATOM      2  N   UNL     1      -0.547 -18.784   0.261  0.00  0.00    +0.000 N 
ATOM      3  C   UNL     1      -4.041 -15.557  -0.484  0.00  0.00    +0.000 C 
ATOM      4  C   UNL     1      -0.976 -17.336  -1.362  0.00  0.00    +0.000 C 
ATOM      5  C   UNL     1      -3.563 -15.027  -1.680  0.00  0.00    +0.000 C 
ATOM      6  C   UNL     1      -1.528 -17.955  -0.244  0.00  0.00    +0.000 C 
ATOM      7  C   UNL     1      -5.080 -14.730   0.005  0.00  0.00    +0.000 A 
ATOM      8  C   UNL     1       0.329 -17.843  -1.574  0.00  0.00    +0.000 A 
ATOM      9  C   UNL     1      -5.200 -13.671  -0.894  0.00  0.00    +0.000 A 
ATOM     10  C   UNL     1       0.572 -18.752  -0.546  0.00  0.00    +0.000 A 
ATOM     11  C   UNL     1      -2.516 -15.451  -2.572  0.00  0.00    +0.000 C 
ATOM     12  C   UNL     1      -2.799 -17.802   0.415  0.00  0.00    +0.000 C 
ATOM     13  C   UNL     1      -1.670 -16.336  -2.114  0.00  0.00    +0.000 C 
ATOM     14  C   UNL     1      -3.501 -16.742   0.108  0.00  0.00    +0.000 C 
ATOM     15  C   UNL     1      -5.921 -14.763   1.133  0.00  0.00    +0.000 A 
ATOM     16  C   UNL     1       1.337 -17.609  -2.527  0.00  0.00    +0.000 A 
ATOM     17  C   UNL     1      -6.127 -12.636  -0.727  0.00  0.00    +0.000 A 
ATOM     18  C   UNL     1       1.779 -19.450  -0.421  0.00  0.00    +0.000 A 
ATOM     19  C   UNL     1      -6.857 -13.742   1.312  0.00  0.00    +0.000 A 
ATOM     20  C   UNL     1       2.545 -18.300  -2.421  0.00  0.00    +0.000 A 
ATOM     21  C   UNL     1      -6.956 -12.699   0.396  0.00  0.00    +0.000 A 
ATOM     22  C   UNL     1       2.758 -19.205  -1.386  0.00  0.00    +0.000 A 
ATOM     23  H   UNL     1      -4.117 -13.189  -2.635  0.00  0.00    +0.000 HD
ATOM     24  H   UNL     1      -0.598 -19.341   1.105  0.00  0.00    +0.000 HD
ENDROOT
BRANCH  11  26
ATOM     25  O   UNL     1      -3.232 -15.356  -4.853  0.00  0.00    +0.000 OA
ATOM     26  C   UNL     1      -2.395 -15.064  -4.008  0.00  0.00    +0.000 C 
BRANCH  26  27
ATOM     27  O   UNL     1      -1.248 -14.343  -4.174  0.00  0.00    +0.000 OA
ATOM     28  C   UNL     1      -0.764 -14.157  -5.478  0.00  0.00    +0.000 C 
ENDBRANCH  26  27
ENDBRANCH  11  26
BRANCH  12  30
ATOM     29  O   UNL     1      -3.165 -20.004   1.279  0.00  0.00    +0.000 OA
ATOM     30  C   UNL     1      -3.434 -18.809   1.314  0.00  0.00    +0.000 C 
BRANCH  30  31
ATOM     31  O   UNL     1      -4.304 -18.168   2.148  0.00  0.00    +0.000 OA
ATOM     32  C   UNL     1      -4.442 -18.649   3.459  0.00  0.00    +0.000 C 
ENDBRANCH  30  31
ENDBRANCH  12  30
TORSDOF 4
ENDMDL
MODEL 4
REMARK VINA RESULT:      -6.2     17.828     20.884
REMARK  Name = 5326018_Caulerpin.pdbqt.pdb
REMARK  4 active torsions:
REMARK  status: ('A' for Active; 'I' for Inactive)
REMARK    1  A    between atoms: C_11  and  C_26
REMARK    2  A    between atoms: C_12  and  C_30
REMARK    3  A    between atoms: C_26  and  O_27
REMARK    4  A    between atoms: C_30  and  O_31
REMARK                            x       y       z     vdW  Elec       q    Type
REMARK                         _______ _______ _______ _____ _____    ______ ____
ROOT
ATOM      1  N   UNL     1     -13.892 -16.114   0.269  0.00  0.00    +0.000 N 
ATOM      2  N   UNL     1     -14.701 -22.565   0.916  0.00  0.00    +0.000 N 
ATOM      3  C   UNL     1     -13.143 -18.015   1.128  0.00  0.00    +0.000 C 
ATOM      4  C   UNL     1     -15.613 -20.607   0.417  0.00  0.00    +0.000 C 
ATOM      5  C   UNL     1     -14.274 -17.398   0.597  0.00  0.00    +0.000 C 
ATOM      6  C   UNL     1     -14.540 -21.204   1.074  0.00  0.00    +0.000 C 
ATOM      7  C   UNL     1     -12.087 -17.074   1.182  0.00  0.00    +0.000 A 
ATOM      8  C   UNL     1     -16.466 -21.618  -0.088  0.00  0.00    +0.000 A 
ATOM      9  C   UNL     1     -12.584 -15.889   0.642  0.00  0.00    +0.000 A 
ATOM     10  C   UNL     1     -15.874 -22.837   0.242  0.00  0.00    +0.000 A 
ATOM     11  C   UNL     1     -15.595 -17.891   0.309  0.00  0.00    +0.000 C 
ATOM     12  C   UNL     1     -13.390 -20.651   1.742  0.00  0.00    +0.000 C 
ATOM     13  C   UNL     1     -15.752 -19.189   0.291  0.00  0.00    +0.000 C 
ATOM     14  C   UNL     1     -13.122 -19.392   1.514  0.00  0.00    +0.000 C 
ATOM     15  C   UNL     1     -10.750 -17.114   1.620  0.00  0.00    +0.000 A 
ATOM     16  C   UNL     1     -17.674 -21.624  -0.809  0.00  0.00    +0.000 A 
ATOM     17  C   UNL     1     -11.809 -14.730   0.519  0.00  0.00    +0.000 A 
ATOM     18  C   UNL     1     -16.433 -24.070  -0.109  0.00  0.00    +0.000 A 
ATOM     19  C   UNL     1      -9.965 -15.964   1.510  0.00  0.00    +0.000 A 
ATOM     20  C   UNL     1     -18.249 -22.846  -1.162  0.00  0.00    +0.000 A 
ATOM     21  C   UNL     1     -10.489 -14.795   0.969  0.00  0.00    +0.000 A 
ATOM     22  C   UNL     1     -17.637 -24.046  -0.816  0.00  0.00    +0.000 A 
ATOM     23  H   UNL     1     -14.459 -15.413  -0.191  0.00  0.00    +0.000 HD
ATOM     24  H   UNL     1     -14.066 -23.290   1.225  0.00  0.00    +0.000 HD
ENDROOT
BRANCH  11  26
ATOM     25  O   UNL     1     -17.809 -17.177   0.868  0.00  0.00    +0.000 OA
ATOM     26  C   UNL     1     -16.818 -17.049   0.160  0.00  0.00    +0.000 C 
BRANCH  26  27
ATOM     27  O   UNL     1     -16.612 -16.148  -0.844  0.00  0.00    +0.000 OA
ATOM     28  C   UNL     1     -16.860 -16.556  -2.163  0.00  0.00    +0.000 C 
ENDBRANCH  26  27
ENDBRANCH  11  26
BRANCH  12  30
ATOM     29  O   UNL     1     -12.518 -22.576   2.865  0.00  0.00    +0.000 OA
ATOM     30  C   UNL     1     -12.563 -21.356   2.765  0.00  0.00    +0.000 C 
BRANCH  30  31
ATOM     31  O   UNL     1     -11.891 -20.425   3.503  0.00  0.00    +0.000 OA
ATOM     32  C   UNL     1     -11.848 -20.588   4.896  0.00  0.00    +0.000 C 
ENDBRANCH  30  31
ENDBRANCH  12  30
TORSDOF 4
ENDMDL
MODEL 5
REMARK VINA RESULT:      -6.2     21.318     24.303
REMARK  Name = 5326018_Caulerpin.pdbqt.pdb
REMARK  4 active torsions:
REMARK  status: ('A' for Active; 'I' for Inactive)
REMARK    1  A    between atoms: C_11  and  C_26
REMARK    2  A    between atoms: C_12  and  C_30
REMARK    3  A    between atoms: C_26  and  O_27
REMARK    4  A    between atoms: C_30  and  O_31
REMARK                            x       y       z     vdW  Elec       q    Type
REMARK                         _______ _______ _______ _____ _____    ______ ____
ROOT
ATOM      1  N   UNL     1      -5.791 -16.903 -16.545  0.00  0.00    +0.000 N 
ATOM      2  N   UNL     1      -7.167 -11.240 -13.593  0.00  0.00    +0.000 N 
ATOM      3  C   UNL     1      -7.348 -15.479 -15.867  0.00  0.00    +0.000 C 
ATOM      4  C   UNL     1      -5.694 -12.861 -13.933  0.00  0.00    +0.000 C 
ATOM      5  C   UNL     1      -6.021 -15.858 -15.675  0.00  0.00    +0.000 C 
ATOM      6  C   UNL     1      -7.050 -12.550 -14.007  0.00  0.00    +0.000 C 
ATOM      7  C   UNL     1      -7.943 -16.346 -16.815  0.00  0.00    +0.000 A 
ATOM      8  C   UNL     1      -4.994 -11.748 -13.408  0.00  0.00    +0.000 A 
ATOM      9  C   UNL     1      -6.946 -17.233 -17.221  0.00  0.00    +0.000 A 
ATOM     10  C   UNL     1      -5.941 -10.747 -13.198  0.00  0.00    +0.000 A 
ATOM     11  C   UNL     1      -4.973 -15.316 -14.850  0.00  0.00    +0.000 C 
ATOM     12  C   UNL     1      -8.186 -13.299 -14.476  0.00  0.00    +0.000 C 
ATOM     13  C   UNL     1      -5.164 -14.118 -14.361  0.00  0.00    +0.000 C 
ATOM     14  C   UNL     1      -7.939 -14.364 -15.195  0.00  0.00    +0.000 C 
ATOM     15  C   UNL     1      -9.225 -16.456 -17.384  0.00  0.00    +0.000 A 
ATOM     16  C   UNL     1      -3.646 -11.483 -13.103  0.00  0.00    +0.000 A 
ATOM     17  C   UNL     1      -7.167 -18.236 -18.171  0.00  0.00    +0.000 A 
ATOM     18  C   UNL     1      -5.610  -9.485 -12.693  0.00  0.00    +0.000 A 
ATOM     19  C   UNL     1      -9.464 -17.456 -18.329  0.00  0.00    +0.000 A 
ATOM     20  C   UNL     1      -3.299 -10.231 -12.593  0.00  0.00    +0.000 A 
ATOM     21  C   UNL     1      -8.451 -18.329 -18.712  0.00  0.00    +0.000 A 
ATOM     22  C   UNL     1      -4.266  -9.252 -12.391  0.00  0.00    +0.000 A 
ATOM     23  H   UNL     1      -4.911 -17.378 -16.701  0.00  0.00    +0.000 HD
ATOM     24  H   UNL     1      -8.012 -10.682 -13.577  0.00  0.00    +0.000 HD
ENDROOT
BRANCH  11  26
ATOM     25  O   UNL     1      -3.565 -16.390 -13.241  0.00  0.00    +0.000 OA
ATOM     26  C   UNL     1      -3.756 -16.054 -14.403  0.00  0.00    +0.000 C 
BRANCH  26  27
ATOM     27  O   UNL     1      -2.960 -16.287 -15.487  0.00  0.00    +0.000 OA
ATOM     28  C   UNL     1      -2.332 -17.537 -15.593  0.00  0.00    +0.000 C 
ENDBRANCH  26  27
ENDBRANCH  11  26
BRANCH  12  30
ATOM     29  O   UNL     1      -9.953 -12.688 -12.981  0.00  0.00    +0.000 OA
ATOM     30  C   UNL     1      -9.608 -13.038 -14.104  0.00  0.00    +0.000 C 
BRANCH  30  31
ATOM     31  O   UNL     1     -10.392 -13.231 -15.203  0.00  0.00    +0.000 OA
ATOM     32  C   UNL     1     -11.426 -14.177 -15.123  0.00  0.00    +0.000 C 
ENDBRANCH  30  31
ENDBRANCH  12  30
TORSDOF 4
ENDMDL
MODEL 6
REMARK VINA RESULT:      -6.2     17.565     20.551
REMARK  Name = 5326018_Caulerpin.pdbqt.pdb
REMARK  4 active torsions:
REMARK  status: ('A' for Active; 'I' for Inactive)
REMARK    1  A    between atoms: C_11  and  C_26
REMARK    2  A    between atoms: C_12  and  C_30
REMARK    3  A    between atoms: C_26  and  O_27
REMARK    4  A    between atoms: C_30  and  O_31
REMARK                            x       y       z     vdW  Elec       q    Type
REMARK                         _______ _______ _______ _____ _____    ______ ____
ROOT
ATOM      1  N   UNL     1     -16.772 -20.867  -1.250  0.00  0.00    +0.000 N 
ATOM      2  N   UNL     1     -12.119 -18.294   2.548  0.00  0.00    +0.000 N 
ATOM      3  C   UNL     1     -15.405 -21.136   0.474  0.00  0.00    +0.000 C 
ATOM      4  C   UNL     1     -13.208 -18.225   0.618  0.00  0.00    +0.000 C 
ATOM      5  C   UNL     1     -15.614 -20.382  -0.678  0.00  0.00    +0.000 C 
ATOM      6  C   UNL     1     -12.902 -19.049   1.698  0.00  0.00    +0.000 C 
ATOM      7  C   UNL     1     -16.411 -22.129   0.564  0.00  0.00    +0.000 A 
ATOM      8  C   UNL     1     -12.551 -16.982   0.784  0.00  0.00    +0.000 A 
ATOM      9  C   UNL     1     -17.252 -21.941  -0.531  0.00  0.00    +0.000 A 
ATOM     10  C   UNL     1     -11.871 -17.053   2.000  0.00  0.00    +0.000 A 
ATOM     11  C   UNL     1     -14.912 -19.255  -1.233  0.00  0.00    +0.000 C 
ATOM     12  C   UNL     1     -13.311 -20.387   2.036  0.00  0.00    +0.000 C 
ATOM     13  C   UNL     1     -14.076 -18.631  -0.444  0.00  0.00    +0.000 C 
ATOM     14  C   UNL     1     -14.336 -20.875   1.387  0.00  0.00    +0.000 C 
ATOM     15  C   UNL     1     -16.702 -23.159   1.477  0.00  0.00    +0.000 A 
ATOM     16  C   UNL     1     -12.477 -15.794   0.034  0.00  0.00    +0.000 A 
ATOM     17  C   UNL     1     -18.377 -22.739  -0.767  0.00  0.00    +0.000 A 
ATOM     18  C   UNL     1     -11.113 -15.992   2.507  0.00  0.00    +0.000 A 
ATOM     19  C   UNL     1     -17.818 -23.969   1.253  0.00  0.00    +0.000 A 
ATOM     20  C   UNL     1     -11.720 -14.728   0.522  0.00  0.00    +0.000 A 
ATOM     21  C   UNL     1     -18.638 -23.760   0.149  0.00  0.00    +0.000 A 
ATOM     22  C   UNL     1     -11.050 -14.829   1.736  0.00  0.00    +0.000 A 
ATOM     23  H   UNL     1     -17.239 -20.505  -2.072  0.00  0.00    +0.000 HD
ATOM     24  H   UNL     1     -11.768 -18.572   3.456  0.00  0.00    +0.000 HD
ENDROOT
BRANCH  11  26
ATOM     25  O   UNL     1     -15.048 -19.609  -3.595  0.00  0.00    +0.000 OA
ATOM     26  C   UNL     1     -14.960 -18.823  -2.660  0.00  0.00    +0.000 C 
BRANCH  26  27
ATOM     27  O   UNL     1     -14.917 -17.460  -2.709  0.00  0.00    +0.000 OA
ATOM     28  C   UNL     1     -15.923 -16.788  -3.420  0.00  0.00    +0.000 C 
ENDBRANCH  26  27
ENDBRANCH  11  26
BRANCH  12  30
ATOM     29  O   UNL     1     -12.082 -20.930   4.017  0.00  0.00    +0.000 OA
ATOM     30  C   UNL     1     -12.587 -21.304   2.965  0.00  0.00    +0.000 C 
BRANCH  30  31
ATOM     31  O   UNL     1     -12.622 -22.567   2.451  0.00  0.00    +0.000 OA
ATOM     32  C   UNL     1     -13.060 -23.610   3.281  0.00  0.00    +0.000 C 
ENDBRANCH  30  31
ENDBRANCH  12  30
TORSDOF 4
ENDMDL
MODEL 7
REMARK VINA RESULT:      -6.1     17.538     20.429
REMARK  Name = 5326018_Caulerpin.pdbqt.pdb
REMARK  4 active torsions:
REMARK  status: ('A' for Active; 'I' for Inactive)
REMARK    1  A    between atoms: C_11  and  C_26
REMARK    2  A    between atoms: C_12  and  C_30
REMARK    3  A    between atoms: C_26  and  O_27
REMARK    4  A    between atoms: C_30  and  O_31
REMARK                            x       y       z     vdW  Elec       q    Type
REMARK                         _______ _______ _______ _____ _____    ______ ____
ROOT
ATOM      1  N   UNL     1      -1.708 -14.618  -5.026  0.00  0.00    +0.000 N 
ATOM      2  N   UNL     1       1.294 -18.636  -0.838  0.00  0.00    +0.000 N 
ATOM      3  C   UNL     1       0.209 -15.393  -4.226  0.00  0.00    +0.000 C 
ATOM      4  C   UNL     1      -0.562 -17.555  -1.388  0.00  0.00    +0.000 C 
ATOM      5  C   UNL     1      -1.149 -15.262  -3.942  0.00  0.00    +0.000 C 
ATOM      6  C   UNL     1       0.816 -17.578  -1.585  0.00  0.00    +0.000 C 
ATOM      7  C   UNL     1       0.484 -14.764  -5.464  0.00  0.00    +0.000 A 
ATOM      8  C   UNL     1      -0.914 -18.567  -0.462  0.00  0.00    +0.000 A 
ATOM      9  C   UNL     1      -0.734 -14.282  -5.943  0.00  0.00    +0.000 A 
ATOM     10  C   UNL     1       0.269 -19.227  -0.129  0.00  0.00    +0.000 A 
ATOM     11  C   UNL     1      -1.951 -15.725  -2.841  0.00  0.00    +0.000 C 
ATOM     12  C   UNL     1       1.684 -16.793  -2.423  0.00  0.00    +0.000 C 
ATOM     13  C   UNL     1      -1.425 -16.639  -2.067  0.00  0.00    +0.000 C 
ATOM     14  C   UNL     1       1.116 -16.087  -3.367  0.00  0.00    +0.000 C 
ATOM     15  C   UNL     1       1.643 -14.570  -6.238  0.00  0.00    +0.000 A 
ATOM     16  C   UNL     1      -2.121 -19.002   0.116  0.00  0.00    +0.000 A 
ATOM     17  C   UNL     1      -0.855 -13.606  -7.162  0.00  0.00    +0.000 A 
ATOM     18  C   UNL     1       0.309 -20.305   0.762  0.00  0.00    +0.000 A 
ATOM     19  C   UNL     1       1.541 -13.892  -7.455  0.00  0.00    +0.000 A 
ATOM     20  C   UNL     1      -2.098 -20.072   1.011  0.00  0.00    +0.000 A 
ATOM     21  C   UNL     1       0.313 -13.420  -7.905  0.00  0.00    +0.000 A 
ATOM     22  C   UNL     1      -0.902 -20.710   1.327  0.00  0.00    +0.000 A 
ATOM     23  H   UNL     1      -2.689 -14.415  -5.169  0.00  0.00    +0.000 HD
ATOM     24  H   UNL     1       2.249 -18.968  -0.799  0.00  0.00    +0.000 HD
ENDROOT
BRANCH  11  26
ATOM     25  O   UNL     1      -4.279 -15.251  -3.125  0.00  0.00    +0.000 OA
ATOM     26  C   UNL     1      -3.271 -15.159  -2.435  0.00  0.00    +0.000 C 
BRANCH  26  27
ATOM     27  O   UNL     1      -3.142 -14.578  -1.207  0.00  0.00    +0.000 OA
ATOM     28  C   UNL     1      -2.982 -13.186  -1.146  0.00  0.00    +0.000 C 
ENDBRANCH  26  27
ENDBRANCH  11  26
BRANCH  12  30
ATOM     29  O   UNL     1       3.938 -16.435  -3.146  0.00  0.00    +0.000 OA
ATOM     30  C   UNL     1       3.152 -16.617  -2.223  0.00  0.00    +0.000 C 
BRANCH  30  31
ATOM     31  O   UNL     1       3.423 -16.671  -0.886  0.00  0.00    +0.000 OA
ATOM     32  C   UNL     1       4.670 -17.173  -0.482  0.00  0.00    +0.000 C 
ENDBRANCH  30  31
ENDBRANCH  12  30
TORSDOF 4
ENDMDL
MODEL 8
REMARK VINA RESULT:      -5.9      2.317      5.919
REMARK  Name = 5326018_Caulerpin.pdbqt.pdb
REMARK  4 active torsions:
REMARK  status: ('A' for Active; 'I' for Inactive)
REMARK    1  A    between atoms: C_11  and  C_26
REMARK    2  A    between atoms: C_12  and  C_30
REMARK    3  A    between atoms: C_26  and  O_27
REMARK    4  A    between atoms: C_30  and  O_31
REMARK                            x       y       z     vdW  Elec       q    Type
REMARK                         _______ _______ _______ _____ _____    ______ ____
ROOT
ATOM      1  N   UNL     1      -2.437 -35.858  -7.722  0.00  0.00    +0.000 N 
ATOM      2  N   UNL     1      -3.528 -36.295  -1.295  0.00  0.00    +0.000 N 
ATOM      3  C   UNL     1      -3.634 -35.192  -5.979  0.00  0.00    +0.000 C 
ATOM      4  C   UNL     1      -2.636 -37.210  -3.106  0.00  0.00    +0.000 C 
ATOM      5  C   UNL     1      -2.796 -36.207  -6.436  0.00  0.00    +0.000 C 
ATOM      6  C   UNL     1      -3.581 -36.284  -2.673  0.00  0.00    +0.000 C 
ATOM      7  C   UNL     1      -3.836 -34.256  -7.022  0.00  0.00    +0.000 A 
ATOM      8  C   UNL     1      -2.052 -37.836  -1.978  0.00  0.00    +0.000 A 
ATOM      9  C   UNL     1      -3.078 -34.699  -8.105  0.00  0.00    +0.000 A 
ATOM     10  C   UNL     1      -2.633 -37.248  -0.855  0.00  0.00    +0.000 A 
ATOM     11  C   UNL     1      -2.261 -37.378  -5.793  0.00  0.00    +0.000 C 
ATOM     12  C   UNL     1      -4.437 -35.374  -3.389  0.00  0.00    +0.000 C 
ATOM     13  C   UNL     1      -2.339 -37.425  -4.488  0.00  0.00    +0.000 C 
ATOM     14  C   UNL     1      -4.152 -35.157  -4.647  0.00  0.00    +0.000 C 
ATOM     15  C   UNL     1      -4.573 -33.064  -7.150  0.00  0.00    +0.000 A 
ATOM     16  C   UNL     1      -1.076 -38.833  -1.795  0.00  0.00    +0.000 A 
ATOM     17  C   UNL     1      -3.021 -34.010  -9.321  0.00  0.00    +0.000 A 
ATOM     18  C   UNL     1      -2.288 -37.609   0.453  0.00  0.00    +0.000 A 
ATOM     19  C   UNL     1      -4.532 -32.367  -8.359  0.00  0.00    +0.000 A 
ATOM     20  C   UNL     1      -0.725 -39.209  -0.497  0.00  0.00    +0.000 A 
ATOM     21  C   UNL     1      -3.769 -32.835  -9.424  0.00  0.00    +0.000 A 
ATOM     22  C   UNL     1      -1.323 -38.607   0.604  0.00  0.00    +0.000 A 
ATOM     23  H   UNL     1      -1.790 -36.351  -8.324  0.00  0.00    +0.000 HD
ATOM     24  H   UNL     1      -4.048 -35.699  -0.663  0.00  0.00    +0.000 HD
ENDROOT
BRANCH  11  26
ATOM     25  O   UNL     1      -1.622 -38.658  -7.711  0.00  0.00    +0.000 OA
ATOM     26  C   UNL     1      -1.749 -38.591  -6.494  0.00  0.00    +0.000 C 
BRANCH  26  27
ATOM     27  O   UNL     1      -1.445 -39.541  -5.564  0.00  0.00    +0.000 OA
ATOM     28  C   UNL     1      -0.154 -40.091  -5.573  0.00  0.00    +0.000 C 
ENDBRANCH  26  27
ENDBRANCH  11  26
BRANCH  12  30
ATOM     29  O   UNL     1      -6.059 -33.631  -3.139  0.00  0.00    +0.000 OA
ATOM     30  C   UNL     1      -5.690 -34.764  -2.854  0.00  0.00    +0.000 C 
BRANCH  30  31
ATOM     31  O   UNL     1      -6.315 -35.675  -2.053  0.00  0.00    +0.000 OA
ATOM     32  C   UNL     1      -7.321 -36.475  -2.618  0.00  0.00    +0.000 C 
ENDBRANCH  30  31
ENDBRANCH  12  30
TORSDOF 4
ENDMDL
MODEL 9
REMARK VINA RESULT:      -5.9      5.081      9.249
REMARK  Name = 5326018_Caulerpin.pdbqt.pdb
REMARK  4 active torsions:
REMARK  status: ('A' for Active; 'I' for Inactive)
REMARK    1  A    between atoms: C_11  and  C_26
REMARK    2  A    between atoms: C_12  and  C_30
REMARK    3  A    between atoms: C_26  and  O_27
REMARK    4  A    between atoms: C_30  and  O_31
REMARK                            x       y       z     vdW  Elec       q    Type
REMARK                         _______ _______ _______ _____ _____    ______ ____
ROOT
ATOM      1  N   UNL     1       2.091 -37.640  -9.850  0.00  0.00    +0.000 N 
ATOM      2  N   UNL     1      -1.657 -32.294  -9.624  0.00  0.00    +0.000 N 
ATOM      3  C   UNL     1       1.846 -35.505 -10.391  0.00  0.00    +0.000 C 
ATOM      4  C   UNL     1      -1.537 -34.501  -9.456  0.00  0.00    +0.000 C 
ATOM      5  C   UNL     1       1.146 -36.649 -10.014  0.00  0.00    +0.000 C 
ATOM      6  C   UNL     1      -0.881 -33.383  -9.964  0.00  0.00    +0.000 C 
ATOM      7  C   UNL     1       3.219 -35.825 -10.520  0.00  0.00    +0.000 A 
ATOM      8  C   UNL     1      -2.754 -34.091  -8.860  0.00  0.00    +0.000 A 
ATOM      9  C   UNL     1       3.345 -37.172 -10.179  0.00  0.00    +0.000 A 
ATOM     10  C   UNL     1      -2.808 -32.704  -8.984  0.00  0.00    +0.000 A 
ATOM     11  C   UNL     1      -0.247 -36.878  -9.731  0.00  0.00    +0.000 C 
ATOM     12  C   UNL     1       0.381 -33.229 -10.639  0.00  0.00    +0.000 C 
ATOM     13  C   UNL     1      -0.993 -35.821  -9.539  0.00  0.00    +0.000 C 
ATOM     14  C   UNL     1       1.213 -34.237 -10.578  0.00  0.00    +0.000 C 
ATOM     15  C   UNL     1       4.373 -35.103 -10.875  0.00  0.00    +0.000 A 
ATOM     16  C   UNL     1      -3.811 -34.757  -8.213  0.00  0.00    +0.000 A 
ATOM     17  C   UNL     1       4.574 -37.841 -10.179  0.00  0.00    +0.000 A 
ATOM     18  C   UNL     1      -3.873 -31.940  -8.493  0.00  0.00    +0.000 A 
ATOM     19  C   UNL     1       5.607 -35.756 -10.885  0.00  0.00    +0.000 A 
ATOM     20  C   UNL     1      -4.885 -34.012  -7.722  0.00  0.00    +0.000 A 
ATOM     21  C   UNL     1       5.702 -37.102 -10.544  0.00  0.00    +0.000 A 
ATOM     22  C   UNL     1      -4.912 -32.628  -7.863  0.00  0.00    +0.000 A 
ATOM     23  H   UNL     1       1.927 -38.585  -9.525  0.00  0.00    +0.000 HD
ATOM     24  H   UNL     1      -1.442 -31.319  -9.793  0.00  0.00    +0.000 HD
ENDROOT
BRANCH  11  26
ATOM     25  O   UNL     1      -0.442 -39.193 -10.301  0.00  0.00    +0.000 OA
ATOM     26  C   UNL     1      -0.930 -38.203  -9.769  0.00  0.00    +0.000 C 
BRANCH  26  27
ATOM     27  O   UNL     1      -2.121 -38.103  -9.110  0.00  0.00    +0.000 OA
ATOM     28  C   UNL     1      -3.247 -38.718  -9.677  0.00  0.00    +0.000 C 
ENDBRANCH  26  27
ENDBRANCH  11  26
BRANCH  12  30
ATOM     29  O   UNL     1      -0.057 -31.362 -12.072  0.00  0.00    +0.000 OA
ATOM     30  C   UNL     1       0.763 -32.076 -11.507  0.00  0.00    +0.000 C 
BRANCH  30  31
ATOM     31  O   UNL     1       2.123 -31.969 -11.521  0.00  0.00    +0.000 OA
ATOM     32  C   UNL     1       2.687 -30.691 -11.655  0.00  0.00    +0.000 C 
ENDBRANCH  30  31
ENDBRANCH  12  30
TORSDOF 4
ENDMDL
