MODEL 1
REMARK VINA RESULT:      -3.2      0.000      0.000
REMARK  Name = 5350_Sulforaphane.pdbqt.pdb
REMARK  3 active torsions:
REMARK  status: ('A' for Active; 'I' for Inactive)
REMARK    1  A    between atoms: C_1  and  C_2
REMARK    2  A    between atoms: C_3  and  N_5
REMARK    3  A    between atoms: C_7  and  S_8
REMARK                            x       y       z     vdW  Elec       q    Type
REMARK                         _______ _______ _______ _____ _____    ______ ____
ROOT
ATOM      1  C   UNL     1      -5.719 -33.942  -3.398  0.00  0.00    +0.000 C 
ATOM      2  C   UNL     1      -4.381 -34.522  -3.872  0.00  0.00    +0.000 C 
ENDROOT
BRANCH   2   3
ATOM      3  S   UNL     1      -2.843 -35.184  -4.420  0.00  0.00    +0.000 S 
ATOM      4  O   UNL     1      -2.120 -33.907  -4.110  0.00  0.00    +0.000 OA
ATOM      5  C   UNL     1      -3.113 -34.702  -6.092  0.00  0.00    +0.000 C 
ENDBRANCH   2   3
BRANCH   1   6
ATOM      6  C   UNL     1      -7.056 -33.365  -2.927  0.00  0.00    +0.000 C 
ATOM      7  C   UNL     1      -8.396 -32.788  -2.455  0.00  0.00    +0.000 C 
BRANCH   7   9
ATOM      8  S   UNL     1      -9.333 -31.094   0.452  0.00  0.00    +0.000 S 
ATOM      9  N   UNL     1      -9.562 -32.271  -2.042  0.00  0.00    +0.000 NA
ATOM     10  C   UNL     1      -9.444 -31.777  -0.984  0.00  0.00    +0.000 C 
ENDBRANCH   7   9
ENDBRANCH   1   6
TORSDOF 3
ENDMDL
MODEL 2
REMARK VINA RESULT:      -3.1      6.313      8.259
REMARK  Name = 5350_Sulforaphane.pdbqt.pdb
REMARK  3 active torsions:
REMARK  status: ('A' for Active; 'I' for Inactive)
REMARK    1  A    between atoms: C_1  and  C_2
REMARK    2  A    between atoms: C_3  and  N_5
REMARK    3  A    between atoms: C_7  and  S_8
REMARK                            x       y       z     vdW  Elec       q    Type
REMARK                         _______ _______ _______ _____ _____    ______ ____
ROOT
ATOM      1  C   UNL     1      -1.336 -32.220 -10.197  0.00  0.00    +0.000 C 
ATOM      2  C   UNL     1      -0.272 -32.302 -11.298  0.00  0.00    +0.000 C 
ENDROOT
BRANCH   2   3
ATOM      3  S   UNL     1       0.953 -32.395 -12.560  0.00  0.00    +0.000 S 
ATOM      4  O   UNL     1       2.045 -32.017 -11.605  0.00  0.00    +0.000 OA
ATOM      5  C   UNL     1       0.717 -30.722 -13.055  0.00  0.00    +0.000 C 
ENDBRANCH   2   3
BRANCH   1   6
ATOM      6  C   UNL     1      -2.400 -32.135  -9.099  0.00  0.00    +0.000 C 
ATOM      7  C   UNL     1      -3.465 -32.050  -7.999  0.00  0.00    +0.000 C 
BRANCH   7   9
ATOM      8  S   UNL     1      -4.086 -34.002  -5.170  0.00  0.00    +0.000 S 
ATOM      9  N   UNL     1      -4.401 -31.988  -7.042  0.00  0.00    +0.000 NA
ATOM     10  C   UNL     1      -4.250 -32.849  -6.259  0.00  0.00    +0.000 C 
ENDBRANCH   7   9
ENDBRANCH   1   6
TORSDOF 3
ENDMDL
MODEL 3
REMARK VINA RESULT:      -3.0      2.519      2.524
REMARK  Name = 5350_Sulforaphane.pdbqt.pdb
REMARK  3 active torsions:
REMARK  status: ('A' for Active; 'I' for Inactive)
REMARK    1  A    between atoms: C_1  and  C_2
REMARK    2  A    between atoms: C_3  and  N_5
REMARK    3  A    between atoms: C_7  and  S_8
REMARK                            x       y       z     vdW  Elec       q    Type
REMARK                         _______ _______ _______ _____ _____    ______ ____
ROOT
ATOM      1  C   UNL     1      -6.532 -33.025  -4.761  0.00  0.00    +0.000 C 
ATOM      2  C   UNL     1      -5.428 -33.090  -5.822  0.00  0.00    +0.000 C 
ENDROOT
BRANCH   2   3
ATOM      3  S   UNL     1      -4.156 -33.165  -7.039  0.00  0.00    +0.000 S 
ATOM      4  O   UNL     1      -4.236 -31.688  -7.292  0.00  0.00    +0.000 OA
ATOM      5  C   UNL     1      -5.284 -33.515  -8.346  0.00  0.00    +0.000 C 
ENDBRANCH   2   3
BRANCH   1   6
ATOM      6  C   UNL     1      -7.636 -32.957  -3.702  0.00  0.00    +0.000 C 
ATOM      7  C   UNL     1      -8.740 -32.889  -2.641  0.00  0.00    +0.000 C 
BRANCH   7   9
ATOM      8  S   UNL     1      -8.762 -33.527   0.793  0.00  0.00    +0.000 S 
ATOM      9  N   UNL     1      -9.703 -32.817  -1.711  0.00  0.00    +0.000 NA
ATOM     10  C   UNL     1      -9.284 -33.121  -0.658  0.00  0.00    +0.000 C 
ENDBRANCH   7   9
ENDBRANCH   1   6
TORSDOF 3
ENDMDL
MODEL 4
REMARK VINA RESULT:      -3.0      7.463     10.557
REMARK  Name = 5350_Sulforaphane.pdbqt.pdb
REMARK  3 active torsions:
REMARK  status: ('A' for Active; 'I' for Inactive)
REMARK    1  A    between atoms: C_1  and  C_2
REMARK    2  A    between atoms: C_3  and  N_5
REMARK    3  A    between atoms: C_7  and  S_8
REMARK                            x       y       z     vdW  Elec       q    Type
REMARK                         _______ _______ _______ _____ _____    ______ ____
ROOT
ATOM      1  C   UNL     1      -2.157 -32.641  -9.489  0.00  0.00    +0.000 C 
ATOM      2  C   UNL     1      -3.195 -32.967  -8.410  0.00  0.00    +0.000 C 
ENDROOT
BRANCH   2   3
ATOM      3  S   UNL     1      -4.389 -33.338  -7.168  0.00  0.00    +0.000 S 
ATOM      4  O   UNL     1      -4.335 -31.942  -6.623  0.00  0.00    +0.000 OA
ATOM      5  C   UNL     1      -3.175 -33.901  -6.024  0.00  0.00    +0.000 C 
ENDBRANCH   2   3
BRANCH   1   6
ATOM      6  C   UNL     1      -1.118 -32.316 -10.566  0.00  0.00    +0.000 C 
ATOM      7  C   UNL     1      -0.077 -31.991 -11.644  0.00  0.00    +0.000 C 
BRANCH   7   9
ATOM      8  S   UNL     1       0.948 -28.987 -13.101  0.00  0.00    +0.000 S 
ATOM      9  N   UNL     1       0.823 -31.705 -12.594  0.00  0.00    +0.000 NA
ATOM     10  C   UNL     1       0.861 -30.549 -12.794  0.00  0.00    +0.000 C 
ENDBRANCH   7   9
ENDBRANCH   1   6
TORSDOF 3
ENDMDL
MODEL 5
REMARK VINA RESULT:      -2.9     11.460     12.915
REMARK  Name = 5350_Sulforaphane.pdbqt.pdb
REMARK  3 active torsions:
REMARK  status: ('A' for Active; 'I' for Inactive)
REMARK    1  A    between atoms: C_1  and  C_2
REMARK    2  A    between atoms: C_3  and  N_5
REMARK    3  A    between atoms: C_7  and  S_8
REMARK                            x       y       z     vdW  Elec       q    Type
REMARK                         _______ _______ _______ _____ _____    ______ ____
ROOT
ATOM      1  C   UNL     1      -7.239 -30.797 -13.858  0.00  0.00    +0.000 C 
ATOM      2  C   UNL     1      -8.029 -32.050 -13.466  0.00  0.00    +0.000 C 
ENDROOT
BRANCH   2   3
ATOM      3  S   UNL     1      -8.941 -33.489 -13.015  0.00  0.00    +0.000 S 
ATOM      4  O   UNL     1      -7.817 -34.001 -12.164  0.00  0.00    +0.000 OA
ATOM      5  C   UNL     1      -8.386 -34.405 -14.413  0.00  0.00    +0.000 C 
ENDBRANCH   2   3
BRANCH   1   6
ATOM      6  C   UNL     1      -6.449 -29.544 -14.247  0.00  0.00    +0.000 C 
ATOM      7  C   UNL     1      -5.658 -28.290 -14.637  0.00  0.00    +0.000 C 
BRANCH   7   9
ATOM      8  S   UNL     1      -2.578 -27.802 -16.210  0.00  0.00    +0.000 S 
ATOM      9  N   UNL     1      -4.976 -27.186 -14.972  0.00  0.00    +0.000 NA
ATOM     10  C   UNL     1      -3.964 -27.468 -15.495  0.00  0.00    +0.000 C 
ENDBRANCH   7   9
ENDBRANCH   1   6
TORSDOF 3
ENDMDL
MODEL 6
REMARK VINA RESULT:      -2.9      3.814      7.087
REMARK  Name = 5350_Sulforaphane.pdbqt.pdb
REMARK  3 active torsions:
REMARK  status: ('A' for Active; 'I' for Inactive)
REMARK    1  A    between atoms: C_1  and  C_2
REMARK    2  A    between atoms: C_3  and  N_5
REMARK    3  A    between atoms: C_7  and  S_8
REMARK                            x       y       z     vdW  Elec       q    Type
REMARK                         _______ _______ _______ _____ _____    ______ ____
ROOT
ATOM      1  C   UNL     1      -8.149 -32.471  -2.190  0.00  0.00    +0.000 C 
ATOM      2  C   UNL     1      -8.931 -32.200  -0.900  0.00  0.00    +0.000 C 
ENDROOT
BRANCH   2   3
ATOM      3  S   UNL     1      -9.830 -31.884   0.581  0.00  0.00    +0.000 S 
ATOM      4  O   UNL     1     -11.078 -32.497   0.020  0.00  0.00    +0.000 OA
ATOM      5  C   UNL     1     -10.313 -30.271   0.067  0.00  0.00    +0.000 C 
ENDBRANCH   2   3
BRANCH   1   6
ATOM      6  C   UNL     1      -7.365 -32.742  -3.477  0.00  0.00    +0.000 C 
ATOM      7  C   UNL     1      -6.580 -33.014  -4.766  0.00  0.00    +0.000 C 
BRANCH   7   9
ATOM      8  S   UNL     1      -3.288 -34.001  -5.387  0.00  0.00    +0.000 S 
ATOM      9  N   UNL     1      -5.904 -33.257  -5.898  0.00  0.00    +0.000 NA
ATOM     10  C   UNL     1      -4.799 -33.571  -5.660  0.00  0.00    +0.000 C 
ENDBRANCH   7   9
ENDBRANCH   1   6
TORSDOF 3
ENDMDL
MODEL 7
REMARK VINA RESULT:      -2.8      7.665     11.212
REMARK  Name = 5350_Sulforaphane.pdbqt.pdb
REMARK  3 active torsions:
REMARK  status: ('A' for Active; 'I' for Inactive)
REMARK    1  A    between atoms: C_1  and  C_2
REMARK    2  A    between atoms: C_3  and  N_5
REMARK    3  A    between atoms: C_7  and  S_8
REMARK                            x       y       z     vdW  Elec       q    Type
REMARK                         _______ _______ _______ _____ _____    ______ ____
ROOT
ATOM      1  C   UNL     1      -1.404 -32.411  -9.929  0.00  0.00    +0.000 C 
ATOM      2  C   UNL     1      -2.757 -32.456  -9.211  0.00  0.00    +0.000 C 
ENDROOT
BRANCH   2   3
ATOM      3  S   UNL     1      -4.312 -32.505  -8.383  0.00  0.00    +0.000 S 
ATOM      4  O   UNL     1      -3.979 -31.288  -7.571  0.00  0.00    +0.000 OA
ATOM      5  C   UNL     1      -3.724 -33.586  -7.123  0.00  0.00    +0.000 C 
ENDBRANCH   2   3
BRANCH   1   6
ATOM      6  C   UNL     1      -0.051 -32.368 -10.645  0.00  0.00    +0.000 C 
ATOM      7  C   UNL     1       1.303 -32.325 -11.362  0.00  0.00    +0.000 C 
BRANCH   7   9
ATOM      8  S   UNL     1       4.568 -32.886 -10.255  0.00  0.00    +0.000 S 
ATOM      9  N   UNL     1       2.489 -32.300 -11.986  0.00  0.00    +0.000 NA
ATOM     10  C   UNL     1       3.356 -32.551 -11.236  0.00  0.00    +0.000 C 
ENDBRANCH   7   9
ENDBRANCH   1   6
TORSDOF 3
ENDMDL
MODEL 8
REMARK VINA RESULT:      -2.6      5.437      6.550
REMARK  Name = 5350_Sulforaphane.pdbqt.pdb
REMARK  3 active torsions:
REMARK  status: ('A' for Active; 'I' for Inactive)
REMARK    1  A    between atoms: C_1  and  C_2
REMARK    2  A    between atoms: C_3  and  N_5
REMARK    3  A    between atoms: C_7  and  S_8
REMARK                            x       y       z     vdW  Elec       q    Type
REMARK                         _______ _______ _______ _____ _____    ______ ____
ROOT
ATOM      1  C   UNL     1      -1.790 -37.068  -3.376  0.00  0.00    +0.000 C 
ATOM      2  C   UNL     1      -1.352 -38.208  -2.451  0.00  0.00    +0.000 C 
ENDROOT
BRANCH   2   3
ATOM      3  S   UNL     1      -0.845 -39.516  -1.385  0.00  0.00    +0.000 S 
ATOM      4  O   UNL     1       0.605 -39.178  -1.571  0.00  0.00    +0.000 OA
ATOM      5  C   UNL     1      -0.803 -40.700  -2.688  0.00  0.00    +0.000 C 
ENDBRANCH   2   3
BRANCH   1   6
ATOM      6  C   UNL     1      -2.227 -35.930  -4.304  0.00  0.00    +0.000 C 
ATOM      7  C   UNL     1      -2.664 -34.791  -5.232  0.00  0.00    +0.000 C 
BRANCH   7   9
ATOM      8  S   UNL     1      -5.767 -33.367  -5.966  0.00  0.00    +0.000 S 
ATOM      9  N   UNL     1      -3.034 -33.792  -6.045  0.00  0.00    +0.000 NA
ATOM     10  C   UNL     1      -4.195 -33.627  -5.997  0.00  0.00    +0.000 C 
ENDBRANCH   7   9
ENDBRANCH   1   6
TORSDOF 3
ENDMDL
MODEL 9
REMARK VINA RESULT:      -2.6     18.368     18.561
REMARK  Name = 5350_Sulforaphane.pdbqt.pdb
REMARK  3 active torsions:
REMARK  status: ('A' for Active; 'I' for Inactive)
REMARK    1  A    between atoms: C_1  and  C_2
REMARK    2  A    between atoms: C_3  and  N_5
REMARK    3  A    between atoms: C_7  and  S_8
REMARK                            x       y       z     vdW  Elec       q    Type
REMARK                         _______ _______ _______ _____ _____    ______ ____
ROOT
ATOM      1  C   UNL     1       1.091 -16.325  -3.647  0.00  0.00    +0.000 C 
ATOM      2  C   UNL     1       0.747 -15.255  -4.689  0.00  0.00    +0.000 C 
ENDROOT
BRANCH   2   3
ATOM      3  S   UNL     1       0.347 -14.027  -5.887  0.00  0.00    +0.000 S 
ATOM      4  O   UNL     1      -0.225 -13.116  -4.843  0.00  0.00    +0.000 OA
ATOM      5  C   UNL     1      -1.230 -14.729  -6.232  0.00  0.00    +0.000 C 
ENDBRANCH   2   3
BRANCH   1   6
ATOM      6  C   UNL     1       1.438 -17.396  -2.608  0.00  0.00    +0.000 C 
ATOM      7  C   UNL     1       1.784 -18.468  -1.568  0.00  0.00    +0.000 C 
BRANCH   7   9
ATOM      8  S   UNL     1      -0.210 -20.420   0.531  0.00  0.00    +0.000 S 
ATOM      9  N   UNL     1       2.075 -19.404  -0.654  0.00  0.00    +0.000 NA
ATOM     10  C   UNL     1       1.094 -19.822  -0.164  0.00  0.00    +0.000 C 
ENDBRANCH   7   9
ENDBRANCH   1   6
TORSDOF 3
ENDMDL
