MODEL 1
REMARK VINA RESULT:      -4.1      0.000      0.000
REMARK  Name = 5357283_Methylferulate.pdbqt.pdb
REMARK  5 active torsions:
REMARK  status: ('A' for Active; 'I' for Inactive)
REMARK    1  A    between atoms: C_1  and  C_11
REMARK    2  A    between atoms: C_2  and  O_7
REMARK    3  A    between atoms: C_5  and  O_9
REMARK    4  A    between atoms: C_12  and  C_14
REMARK    5  A    between atoms: C_14  and  O_15
REMARK                            x       y       z     vdW  Elec       q    Type
REMARK                         _______ _______ _______ _____ _____    ______ ____
ROOT
ATOM      1  C   UNL     1      -7.673 -29.985 -14.532  0.00  0.00    +0.000 A 
ATOM      2  C   UNL     1      -8.406 -28.128 -15.908  0.00  0.00    +0.000 A 
ATOM      3  C   UNL     1      -8.634 -29.387 -15.346  0.00  0.00    +0.000 A 
ATOM      4  C   UNL     1      -6.472 -29.329 -14.272  0.00  0.00    +0.000 A 
ATOM      5  C   UNL     1      -7.197 -27.482 -15.639  0.00  0.00    +0.000 A 
ATOM      6  C   UNL     1      -6.232 -28.076 -14.826  0.00  0.00    +0.000 A 
ENDROOT
BRANCH   2   7
ATOM      7  O   UNL     1      -9.299 -27.469 -16.719  0.00  0.00    +0.000 OA
ATOM      8  C   UNL     1      -9.889 -28.251 -17.724  0.00  0.00    +0.000 C 
ENDBRANCH   2   7
BRANCH   5   9
ATOM      9  O   UNL     1      -6.955 -26.248 -16.179  0.00  0.00    +0.000 OA
ATOM     10  H   UNL     1      -7.188 -25.567 -15.521  0.00  0.00    +0.000 HD
ENDBRANCH   5   9
BRANCH   1  11
ATOM     11  C   UNL     1      -7.921 -31.271 -13.968  0.00  0.00    +0.000 C 
ATOM     12  C   UNL     1      -8.132 -32.355 -13.494  0.00  0.00    +0.000 C 
BRANCH  12  14
ATOM     13  O   UNL     1      -7.654 -34.095 -12.050  0.00  0.00    +0.000 OA
ATOM     14  C   UNL     1      -8.389 -33.658 -12.925  0.00  0.00    +0.000 C 
BRANCH  14  15
ATOM     15  O   UNL     1      -9.487 -34.237 -13.494  0.00  0.00    +0.000 OA
ATOM     16  C   UNL     1      -9.335 -34.837 -14.756  0.00  0.00    +0.000 C 
ENDBRANCH  14  15
ENDBRANCH  12  14
ENDBRANCH   1  11
TORSDOF 5
ENDMDL
MODEL 2
REMARK VINA RESULT:      -4.0     20.820     22.892
REMARK  Name = 5357283_Methylferulate.pdbqt.pdb
REMARK  5 active torsions:
REMARK  status: ('A' for Active; 'I' for Inactive)
REMARK    1  A    between atoms: C_1  and  C_11
REMARK    2  A    between atoms: C_2  and  O_7
REMARK    3  A    between atoms: C_5  and  O_9
REMARK    4  A    between atoms: C_12  and  C_14
REMARK    5  A    between atoms: C_14  and  O_15
REMARK                            x       y       z     vdW  Elec       q    Type
REMARK                         _______ _______ _______ _____ _____    ______ ____
ROOT
ATOM      1  C   UNL     1      -5.354 -12.563  -1.167  0.00  0.00    +0.000 A 
ATOM      2  C   UNL     1      -5.060 -10.520   0.106  0.00  0.00    +0.000 A 
ATOM      3  C   UNL     1      -4.521 -11.624  -0.560  0.00  0.00    +0.000 A 
ATOM      4  C   UNL     1      -6.737 -12.407  -1.114  0.00  0.00    +0.000 A 
ATOM      5  C   UNL     1      -6.449 -10.376   0.150  0.00  0.00    +0.000 A 
ATOM      6  C   UNL     1      -7.287 -11.312  -0.455  0.00  0.00    +0.000 A 
ENDROOT
BRANCH   2   7
ATOM      7  O   UNL     1      -4.311  -9.550   0.729  0.00  0.00    +0.000 OA
ATOM      8  C   UNL     1      -2.930  -9.606   0.483  0.00  0.00    +0.000 C 
ENDBRANCH   2   7
BRANCH   5   9
ATOM      9  O   UNL     1      -6.996  -9.301   0.797  0.00  0.00    +0.000 OA
ATOM     10  H   UNL     1      -7.875  -9.121   0.415  0.00  0.00    +0.000 HD
ENDBRANCH   5   9
BRANCH   1  11
ATOM     11  C   UNL     1      -4.787 -13.684  -1.840  0.00  0.00    +0.000 C 
ATOM     12  C   UNL     1      -4.307 -14.629  -2.409  0.00  0.00    +0.000 C 
BRANCH  12  14
ATOM     13  O   UNL     1      -3.691 -16.852  -2.542  0.00  0.00    +0.000 OA
ATOM     14  C   UNL     1      -3.730 -15.761  -3.095  0.00  0.00    +0.000 C 
BRANCH  14  15
ATOM     15  O   UNL     1      -3.287 -15.411  -4.339  0.00  0.00    +0.000 OA
ATOM     16  C   UNL     1      -2.055 -14.741  -4.434  0.00  0.00    +0.000 C 
ENDBRANCH  14  15
ENDBRANCH  12  14
ENDBRANCH   1  11
TORSDOF 5
ENDMDL
MODEL 3
REMARK VINA RESULT:      -4.0     17.170     19.011
REMARK  Name = 5357283_Methylferulate.pdbqt.pdb
REMARK  5 active torsions:
REMARK  status: ('A' for Active; 'I' for Inactive)
REMARK    1  A    between atoms: C_1  and  C_11
REMARK    2  A    between atoms: C_2  and  O_7
REMARK    3  A    between atoms: C_5  and  O_9
REMARK    4  A    between atoms: C_12  and  C_14
REMARK    5  A    between atoms: C_14  and  O_15
REMARK                            x       y       z     vdW  Elec       q    Type
REMARK                         _______ _______ _______ _____ _____    ______ ____
ROOT
ATOM      1  C   UNL     1       4.613 -27.583  -2.975  0.00  0.00    +0.000 A 
ATOM      2  C   UNL     1       4.578 -29.127  -1.105  0.00  0.00    +0.000 A 
ATOM      3  C   UNL     1       4.588 -27.820  -1.602  0.00  0.00    +0.000 A 
ATOM      4  C   UNL     1       4.628 -28.652  -3.868  0.00  0.00    +0.000 A 
ATOM      5  C   UNL     1       4.594 -30.189  -2.013  0.00  0.00    +0.000 A 
ATOM      6  C   UNL     1       4.618 -29.958  -3.388  0.00  0.00    +0.000 A 
ENDROOT
BRANCH   2   7
ATOM      7  O   UNL     1       4.554 -29.447   0.231  0.00  0.00    +0.000 OA
ATOM      8  C   UNL     1       5.773 -29.293   0.909  0.00  0.00    +0.000 C 
ENDBRANCH   2   7
BRANCH   5   9
ATOM      9  O   UNL     1       4.583 -31.476  -1.547  0.00  0.00    +0.000 OA
ATOM     10  H   UNL     1       5.489 -31.721  -1.284  0.00  0.00    +0.000 HD
ENDBRANCH   5   9
BRANCH   1  11
ATOM     11  C   UNL     1       4.624 -26.244  -3.464  0.00  0.00    +0.000 C 
ATOM     12  C   UNL     1       4.632 -25.114  -3.875  0.00  0.00    +0.000 C 
BRANCH  12  14
ATOM     13  O   UNL     1       3.636 -23.062  -4.250  0.00  0.00    +0.000 OA
ATOM     14  C   UNL     1       4.637 -23.757  -4.369  0.00  0.00    +0.000 C 
BRANCH  14  15
ATOM     15  O   UNL     1       5.841 -23.440  -4.931  0.00  0.00    +0.000 OA
ATOM     16  C   UNL     1       6.241 -24.153  -6.075  0.00  0.00    +0.000 C 
ENDBRANCH  14  15
ENDBRANCH  12  14
ENDBRANCH   1  11
TORSDOF 5
ENDMDL
MODEL 4
REMARK VINA RESULT:      -4.0     17.535     17.927
REMARK  Name = 5357283_Methylferulate.pdbqt.pdb
REMARK  5 active torsions:
REMARK  status: ('A' for Active; 'I' for Inactive)
REMARK    1  A    between atoms: C_1  and  C_11
REMARK    2  A    between atoms: C_2  and  O_7
REMARK    3  A    between atoms: C_5  and  O_9
REMARK    4  A    between atoms: C_12  and  C_14
REMARK    5  A    between atoms: C_14  and  O_15
REMARK                            x       y       z     vdW  Elec       q    Type
REMARK                         _______ _______ _______ _____ _____    ______ ____
ROOT
ATOM      1  C   UNL     1       4.667 -25.934  -2.874  0.00  0.00    +0.000 A 
ATOM      2  C   UNL     1       4.989 -24.157  -4.493  0.00  0.00    +0.000 A 
ATOM      3  C   UNL     1       4.959 -25.518  -4.172  0.00  0.00    +0.000 A 
ATOM      4  C   UNL     1       4.400 -24.993  -1.882  0.00  0.00    +0.000 A 
ATOM      5  C   UNL     1       4.719 -23.225  -3.488  0.00  0.00    +0.000 A 
ATOM      6  C   UNL     1       4.426 -23.636  -2.188  0.00  0.00    +0.000 A 
ENDROOT
BRANCH   2   7
ATOM      7  O   UNL     1       5.268 -23.663  -5.745  0.00  0.00    +0.000 OA
ATOM      8  C   UNL     1       6.383 -24.230  -6.381  0.00  0.00    +0.000 C 
ENDBRANCH   2   7
BRANCH   5   9
ATOM      9  O   UNL     1       4.742 -21.889  -3.782  0.00  0.00    +0.000 OA
ATOM     10  H   UNL     1       4.850 -21.783  -4.745  0.00  0.00    +0.000 HD
ENDBRANCH   5   9
BRANCH   1  11
ATOM     11  C   UNL     1       4.642 -27.326  -2.565  0.00  0.00    +0.000 C 
ATOM     12  C   UNL     1       4.620 -28.499  -2.305  0.00  0.00    +0.000 C 
BRANCH  12  14
ATOM     13  O   UNL     1       5.385 -30.669  -2.530  0.00  0.00    +0.000 OA
ATOM     14  C   UNL     1       4.589 -29.909  -1.992  0.00  0.00    +0.000 C 
BRANCH  14  15
ATOM     15  O   UNL     1       3.610 -30.192  -1.083  0.00  0.00    +0.000 OA
ATOM     16  C   UNL     1       3.662 -31.432  -0.424  0.00  0.00    +0.000 C 
ENDBRANCH  14  15
ENDBRANCH  12  14
ENDBRANCH   1  11
TORSDOF 5
ENDMDL
MODEL 5
REMARK VINA RESULT:      -3.8     11.566     14.427
REMARK  Name = 5357283_Methylferulate.pdbqt.pdb
REMARK  5 active torsions:
REMARK  status: ('A' for Active; 'I' for Inactive)
REMARK    1  A    between atoms: C_1  and  C_11
REMARK    2  A    between atoms: C_2  and  O_7
REMARK    3  A    between atoms: C_5  and  O_9
REMARK    4  A    between atoms: C_12  and  C_14
REMARK    5  A    between atoms: C_14  and  O_15
REMARK                            x       y       z     vdW  Elec       q    Type
REMARK                         _______ _______ _______ _____ _____    ______ ____
ROOT
ATOM      1  C   UNL     1      -3.606 -16.877 -14.622  0.00  0.00    +0.000 A 
ATOM      2  C   UNL     1      -5.449 -17.775 -15.917  0.00  0.00    +0.000 A 
ATOM      3  C   UNL     1      -4.188 -17.925 -15.333  0.00  0.00    +0.000 A 
ATOM      4  C   UNL     1      -4.279 -15.665 -14.487  0.00  0.00    +0.000 A 
ATOM      5  C   UNL     1      -6.113 -16.553 -15.773  0.00  0.00    +0.000 A 
ATOM      6  C   UNL     1      -5.535 -15.502 -15.063  0.00  0.00    +0.000 A 
ENDROOT
BRANCH   2   7
ATOM      7  O   UNL     1      -6.093 -18.755 -16.633  0.00  0.00    +0.000 OA
ATOM      8  C   UNL     1      -5.498 -20.025 -16.584  0.00  0.00    +0.000 C 
ENDBRANCH   2   7
BRANCH   5   9
ATOM      9  O   UNL     1      -7.349 -16.386 -16.337  0.00  0.00    +0.000 OA
ATOM     10  H   UNL     1      -7.800 -17.250 -16.363  0.00  0.00    +0.000 HD
ENDBRANCH   5   9
BRANCH   1  11
ATOM     11  C   UNL     1      -2.318 -17.049 -14.034  0.00  0.00    +0.000 C 
ATOM     12  C   UNL     1      -1.232 -17.192 -13.540  0.00  0.00    +0.000 C 
BRANCH  12  14
ATOM     13  O   UNL     1       0.586 -16.450 -12.321  0.00  0.00    +0.000 OA
ATOM     14  C   UNL     1       0.075 -17.368 -12.949  0.00  0.00    +0.000 C 
BRANCH  14  15
ATOM     15  O   UNL     1       0.568 -18.616 -13.202  0.00  0.00    +0.000 OA
ATOM     16  C   UNL     1       0.956 -19.405 -12.106  0.00  0.00    +0.000 C 
ENDBRANCH  14  15
ENDBRANCH  12  14
ENDBRANCH   1  11
TORSDOF 5
ENDMDL
MODEL 6
REMARK VINA RESULT:      -3.8     20.851     22.873
REMARK  Name = 5357283_Methylferulate.pdbqt.pdb
REMARK  5 active torsions:
REMARK  status: ('A' for Active; 'I' for Inactive)
REMARK    1  A    between atoms: C_1  and  C_11
REMARK    2  A    between atoms: C_2  and  O_7
REMARK    3  A    between atoms: C_5  and  O_9
REMARK    4  A    between atoms: C_12  and  C_14
REMARK    5  A    between atoms: C_14  and  O_15
REMARK                            x       y       z     vdW  Elec       q    Type
REMARK                         _______ _______ _______ _____ _____    ______ ____
ROOT
ATOM      1  C   UNL     1      -6.257 -32.074   6.935  0.00  0.00    +0.000 A 
ATOM      2  C   UNL     1      -4.271 -32.579   8.231  0.00  0.00    +0.000 A 
ATOM      3  C   UNL     1      -5.295 -31.698   7.872  0.00  0.00    +0.000 A 
ATOM      4  C   UNL     1      -6.205 -33.336   6.348  0.00  0.00    +0.000 A 
ATOM      5  C   UNL     1      -4.232 -33.842   7.634  0.00  0.00    +0.000 A 
ATOM      6  C   UNL     1      -5.191 -34.222   6.697  0.00  0.00    +0.000 A 
ENDROOT
BRANCH   2   7
ATOM      7  O   UNL     1      -3.285 -32.289   9.144  0.00  0.00    +0.000 OA
ATOM      8  C   UNL     1      -2.600 -31.083   8.927  0.00  0.00    +0.000 C 
ENDBRANCH   2   7
BRANCH   5   9
ATOM      9  O   UNL     1      -3.238 -34.719   7.974  0.00  0.00    +0.000 OA
ATOM     10  H   UNL     1      -2.884 -34.468   8.847  0.00  0.00    +0.000 HD
ENDBRANCH   5   9
BRANCH   1  11
ATOM     11  C   UNL     1      -7.293 -31.162   6.579  0.00  0.00    +0.000 C 
ATOM     12  C   UNL     1      -8.167 -30.392   6.277  0.00  0.00    +0.000 C 
BRANCH  12  14
ATOM     13  O   UNL     1     -10.157 -29.847   5.238  0.00  0.00    +0.000 OA
ATOM     14  C   UNL     1      -9.213 -29.464   5.916  0.00  0.00    +0.000 C 
BRANCH  14  15
ATOM     15  O   UNL     1      -8.966 -28.220   6.422  0.00  0.00    +0.000 OA
ATOM     16  C   UNL     1      -9.071 -28.042   7.812  0.00  0.00    +0.000 C 
ENDBRANCH  14  15
ENDBRANCH  12  14
ENDBRANCH   1  11
TORSDOF 5
ENDMDL
MODEL 7
REMARK VINA RESULT:      -3.8      8.696     10.532
REMARK  Name = 5357283_Methylferulate.pdbqt.pdb
REMARK  5 active torsions:
REMARK  status: ('A' for Active; 'I' for Inactive)
REMARK    1  A    between atoms: C_1  and  C_11
REMARK    2  A    between atoms: C_2  and  O_7
REMARK    3  A    between atoms: C_5  and  O_9
REMARK    4  A    between atoms: C_12  and  C_14
REMARK    5  A    between atoms: C_14  and  O_15
REMARK                            x       y       z     vdW  Elec       q    Type
REMARK                         _______ _______ _______ _____ _____    ______ ____
ROOT
ATOM      1  C   UNL     1      -2.489 -32.681  -8.925  0.00  0.00    +0.000 A 
ATOM      2  C   UNL     1      -3.684 -34.250  -7.513  0.00  0.00    +0.000 A 
ATOM      3  C   UNL     1      -2.709 -33.984  -8.479  0.00  0.00    +0.000 A 
ATOM      4  C   UNL     1      -3.242 -31.629  -8.408  0.00  0.00    +0.000 A 
ATOM      5  C   UNL     1      -4.432 -33.184  -7.004  0.00  0.00    +0.000 A 
ATOM      6  C   UNL     1      -4.215 -31.880  -7.446  0.00  0.00    +0.000 A 
ENDROOT
BRANCH   2   7
ATOM      7  O   UNL     1      -3.964 -35.501  -7.020  0.00  0.00    +0.000 OA
ATOM      8  C   UNL     1      -3.052 -36.507  -7.376  0.00  0.00    +0.000 C 
ENDBRANCH   2   7
BRANCH   5   9
ATOM      9  O   UNL     1      -5.390 -33.424  -6.057  0.00  0.00    +0.000 OA
ATOM     10  H   UNL     1      -6.023 -34.076  -6.410  0.00  0.00    +0.000 HD
ENDBRANCH   5   9
BRANCH   1  11
ATOM     11  C   UNL     1      -1.491 -32.429  -9.911  0.00  0.00    +0.000 C 
ATOM     12  C   UNL     1      -0.651 -32.216 -10.745  0.00  0.00    +0.000 C 
BRANCH  12  14
ATOM     13  O   UNL     1       0.078 -31.293 -12.734  0.00  0.00    +0.000 OA
ATOM     14  C   UNL     1       0.357 -31.963 -11.749  0.00  0.00    +0.000 C 
BRANCH  14  15
ATOM     15  O   UNL     1       1.543 -32.554 -11.417  0.00  0.00    +0.000 OA
ATOM     16  C   UNL     1       2.212 -32.088 -10.272  0.00  0.00    +0.000 C 
ENDBRANCH  14  15
ENDBRANCH  12  14
ENDBRANCH   1  11
TORSDOF 5
ENDMDL
MODEL 8
REMARK VINA RESULT:      -3.8     10.756     14.381
REMARK  Name = 5357283_Methylferulate.pdbqt.pdb
REMARK  5 active torsions:
REMARK  status: ('A' for Active; 'I' for Inactive)
REMARK    1  A    between atoms: C_1  and  C_11
REMARK    2  A    between atoms: C_2  and  O_7
REMARK    3  A    between atoms: C_5  and  O_9
REMARK    4  A    between atoms: C_12  and  C_14
REMARK    5  A    between atoms: C_14  and  O_15
REMARK                            x       y       z     vdW  Elec       q    Type
REMARK                         _______ _______ _______ _____ _____    ______ ____
ROOT
ATOM      1  C   UNL     1      -2.474 -35.940  -4.065  0.00  0.00    +0.000 A 
ATOM      2  C   UNL     1      -1.257 -37.978  -3.570  0.00  0.00    +0.000 A 
ATOM      3  C   UNL     1      -1.648 -36.986  -4.474  0.00  0.00    +0.000 A 
ATOM      4  C   UNL     1      -2.918 -35.874  -2.746  0.00  0.00    +0.000 A 
ATOM      5  C   UNL     1      -1.710 -37.899  -2.250  0.00  0.00    +0.000 A 
ATOM      6  C   UNL     1      -2.536 -36.855  -1.836  0.00  0.00    +0.000 A 
ENDROOT
BRANCH   2   7
ATOM      7  O   UNL     1      -0.447 -39.041  -3.890  0.00  0.00    +0.000 OA
ATOM      8  C   UNL     1      -0.789 -39.725  -5.067  0.00  0.00    +0.000 C 
ENDBRANCH   2   7
BRANCH   5   9
ATOM      9  O   UNL     1      -1.337 -38.860  -1.350  0.00  0.00    +0.000 OA
ATOM     10  H   UNL     1      -1.373 -39.730  -1.788  0.00  0.00    +0.000 HD
ENDBRANCH   5   9
BRANCH   1  11
ATOM     11  C   UNL     1      -2.864 -34.937  -5.001  0.00  0.00    +0.000 C 
ATOM     12  C   UNL     1      -3.194 -34.093  -5.791  0.00  0.00    +0.000 C 
BRANCH  12  14
ATOM     13  O   UNL     1      -4.467 -32.280  -6.449  0.00  0.00    +0.000 OA
ATOM     14  C   UNL     1      -3.590 -33.082  -6.743  0.00  0.00    +0.000 C 
BRANCH  14  15
ATOM     15  O   UNL     1      -2.874 -33.187  -7.901  0.00  0.00    +0.000 OA
ATOM     16  C   UNL     1      -2.721 -32.032  -8.687  0.00  0.00    +0.000 C 
ENDBRANCH  14  15
ENDBRANCH  12  14
ENDBRANCH   1  11
TORSDOF 5
ENDMDL
MODEL 9
REMARK VINA RESULT:      -3.7     19.476     20.776
REMARK  Name = 5357283_Methylferulate.pdbqt.pdb
REMARK  5 active torsions:
REMARK  status: ('A' for Active; 'I' for Inactive)
REMARK    1  A    between atoms: C_1  and  C_11
REMARK    2  A    between atoms: C_2  and  O_7
REMARK    3  A    between atoms: C_5  and  O_9
REMARK    4  A    between atoms: C_12  and  C_14
REMARK    5  A    between atoms: C_14  and  O_15
REMARK                            x       y       z     vdW  Elec       q    Type
REMARK                         _______ _______ _______ _____ _____    ______ ____
ROOT
ATOM      1  C   UNL     1      -1.163 -18.667  -0.406  0.00  0.00    +0.000 A 
ATOM      2  C   UNL     1       0.402 -20.201   0.633  0.00  0.00    +0.000 A 
ATOM      3  C   UNL     1       0.147 -19.071  -0.150  0.00  0.00    +0.000 A 
ATOM      4  C   UNL     1      -2.232 -19.389   0.119  0.00  0.00    +0.000 A 
ATOM      5  C   UNL     1      -0.680 -20.915   1.153  0.00  0.00    +0.000 A 
ATOM      6  C   UNL     1      -1.992 -20.515   0.900  0.00  0.00    +0.000 A 
ENDROOT
BRANCH   2   7
ATOM      7  O   UNL     1       1.660 -20.666   0.932  0.00  0.00    +0.000 OA
ATOM      8  C   UNL     1       2.488 -20.917  -0.173  0.00  0.00    +0.000 C 
ENDBRANCH   2   7
BRANCH   5   9
ATOM      9  O   UNL     1      -0.451 -22.023   1.922  0.00  0.00    +0.000 OA
ATOM     10  H   UNL     1      -0.088 -22.728   1.355  0.00  0.00    +0.000 HD
ENDBRANCH   5   9
BRANCH   1  11
ATOM     11  C   UNL     1      -1.405 -17.513  -1.207  0.00  0.00    +0.000 C 
ATOM     12  C   UNL     1      -1.607 -16.539  -1.883  0.00  0.00    +0.000 C 
BRANCH  12  14
ATOM     13  O   UNL     1      -1.022 -14.463  -2.714  0.00  0.00    +0.000 OA
ATOM     14  C   UNL     1      -1.848 -15.367  -2.693  0.00  0.00    +0.000 C 
BRANCH  14  15
ATOM     15  O   UNL     1      -3.040 -15.458  -3.352  0.00  0.00    +0.000 OA
ATOM     16  C   UNL     1      -4.201 -15.052  -2.671  0.00  0.00    +0.000 C 
ENDBRANCH  14  15
ENDBRANCH  12  14
ENDBRANCH   1  11
TORSDOF 5
ENDMDL
