MODEL 1
REMARK VINA RESULT:      -6.4      0.000      0.000
REMARK  Name = 5358691_Yuanhuacine.pdbqt.pdb
REMARK  12 active torsions:
REMARK  status: ('A' for Active; 'I' for Inactive)
REMARK    1  A    between atoms: C_9  and  C_48
REMARK    2  A    between atoms: C_13  and  C_23
REMARK    3  A    between atoms: C_14  and  O_26
REMARK    4  A    between atoms: C_15  and  O_28
REMARK    5  A    between atoms: C_16  and  O_39
REMARK    6  A    between atoms: C_17  and  C_30
REMARK    7  A    between atoms: C_31  and  C_32
REMARK    8  A    between atoms: C_33  and  C_34
REMARK    9  A    between atoms: C_35  and  C_36
REMARK   10  A    between atoms: O_39  and  C_41
REMARK   11  A    between atoms: C_41  and  C_42
REMARK   12  A    between atoms: C_48  and  O_49
REMARK                            x       y       z     vdW  Elec       q    Type
REMARK                         _______ _______ _______ _____ _____    ______ ____
ROOT
ATOM      1  O   UNL     1      -5.848 -33.289  -7.122  0.00  0.00    +0.000 OA
ATOM      2  O   UNL     1      -7.408 -36.027  -5.595  0.00  0.00    +0.000 OA
ATOM      3  O   UNL     1      -7.845 -33.966  -4.501  0.00  0.00    +0.000 OA
ATOM      4  O   UNL     1      -7.905 -35.905  -3.278  0.00  0.00    +0.000 OA
ATOM      5  O   UNL     1      -2.639 -36.977  -8.916  0.00  0.00    +0.000 OA
ATOM      6  C   UNL     1      -5.683 -34.400  -5.062  0.00  0.00    +0.000 C 
ATOM      7  C   UNL     1      -5.963 -35.850  -5.484  0.00  0.00    +0.000 C 
ATOM      8  C   UNL     1      -5.206 -33.345  -5.911  0.00  0.00    +0.000 C 
ATOM      9  C   UNL     1      -4.414 -33.269  -7.140  0.00  0.00    +0.000 C 
ATOM     10  C   UNL     1      -6.581 -34.123  -3.935  0.00  0.00    +0.000 C 
ATOM     11  C   UNL     1      -5.374 -36.173  -6.823  0.00  0.00    +0.000 C 
ATOM     12  C   UNL     1      -5.432 -36.802  -4.370  0.00  0.00    +0.000 C 
ATOM     13  C   UNL     1      -6.691 -35.224  -2.851  0.00  0.00    +0.000 C 
ATOM     14  C   UNL     1      -3.929 -35.860  -7.142  0.00  0.00    +0.000 C 
ATOM     15  C   UNL     1      -3.647 -34.459  -7.598  0.00  0.00    +0.000 C 
ATOM     16  C   UNL     1      -5.620 -36.287  -3.024  0.00  0.00    +0.000 C 
ATOM     17  C   UNL     1      -8.178 -35.358  -4.566  0.00  0.00    +0.000 C 
ATOM     18  C   UNL     1      -5.838 -37.147  -7.744  0.00  0.00    +0.000 C 
ATOM     19  C   UNL     1      -4.980 -38.250  -4.561  0.00  0.00    +0.000 C 
ATOM     20  C   UNL     1      -3.707 -36.865  -8.320  0.00  0.00    +0.000 C 
ATOM     21  C   UNL     1      -4.979 -37.612  -8.588  0.00  0.00    +0.000 C 
ATOM     22  C   UNL     1      -5.352 -38.289  -9.866  0.00  0.00    +0.000 C 
ENDROOT
BRANCH  13  23
ATOM     23  C   UNL     1      -6.820 -34.575  -1.453  0.00  0.00    +0.000 C 
ATOM     24  C   UNL     1      -7.205 -35.338  -0.187  0.00  0.00    +0.000 C 
ATOM     25  C   UNL     1      -6.889 -33.243  -1.254  0.00  0.00    +0.000 C 
ENDBRANCH  13  23
BRANCH  14  26
ATOM     26  O   UNL     1      -3.093 -36.135  -6.039  0.00  0.00    +0.000 OA
ATOM     27  H   UNL     1      -3.114 -37.102  -5.892  0.00  0.00    +0.000 HD
ENDBRANCH  14  26
BRANCH  15  28
ATOM     28  O   UNL     1      -2.485 -34.262  -8.349  0.00  0.00    +0.000 OA
ATOM     29  H   UNL     1      -1.647 -34.421  -7.864  0.00  0.00    +0.000 HD
ENDBRANCH  15  28
BRANCH  17  30
ATOM     30  C   UNL     1      -9.598 -35.511  -4.866  0.00  0.00    +0.000 C 
ATOM     31  C   UNL     1     -10.765 -35.636  -5.115  0.00  0.00    +0.000 C 
BRANCH  31  32
ATOM     32  C   UNL     1     -12.254 -35.797  -5.434  0.00  0.00    +0.000 C 
ATOM     33  C   UNL     1     -13.421 -35.924  -5.684  0.00  0.00    +0.000 C 
BRANCH  33  34
ATOM     34  C   UNL     1     -14.910 -36.088  -6.004  0.00  0.00    +0.000 C 
ATOM     35  C   UNL     1     -16.398 -36.252  -6.325  0.00  0.00    +0.000 C 
BRANCH  35  36
ATOM     36  C   UNL     1     -17.887 -36.417  -6.647  0.00  0.00    +0.000 C 
ATOM     37  C   UNL     1     -19.375 -36.582  -6.970  0.00  0.00    +0.000 C 
ATOM     38  C   UNL     1     -20.864 -36.747  -7.294  0.00  0.00    +0.000 C 
ENDBRANCH  35  36
ENDBRANCH  33  34
ENDBRANCH  31  32
ENDBRANCH  17  30
BRANCH  16  39
ATOM     39  O   UNL     1      -4.841 -36.835  -1.991  0.00  0.00    +0.000 OA
BRANCH  39  41
ATOM     40  O   UNL     1      -3.023 -35.713  -2.837  0.00  0.00    +0.000 OA
ATOM     41  C   UNL     1      -3.521 -36.486  -2.037  0.00  0.00    +0.000 C 
BRANCH  41  42
ATOM     42  C   UNL     1      -2.763 -37.214  -1.004  0.00  0.00    +0.000 A 
ATOM     43  C   UNL     1      -3.123 -37.157   0.342  0.00  0.00    +0.000 A 
ATOM     44  C   UNL     1      -1.664 -37.974  -1.404  0.00  0.00    +0.000 A 
ATOM     45  C   UNL     1      -2.382 -37.861   1.289  0.00  0.00    +0.000 A 
ATOM     46  C   UNL     1      -0.926 -38.677  -0.456  0.00  0.00    +0.000 A 
ATOM     47  C   UNL     1      -1.285 -38.620   0.889  0.00  0.00    +0.000 A 
ENDBRANCH  41  42
ENDBRANCH  39  41
ENDBRANCH  16  39
BRANCH   9  48
ATOM     48  C   UNL     1      -3.948 -31.959  -7.573  0.00  0.00    +0.000 C 
BRANCH  48  49
ATOM     49  O   UNL     1      -3.528 -30.760  -7.968  0.00  0.00    +0.000 OA
ATOM     50  H   UNL     1      -2.556 -30.729  -7.988  0.00  0.00    +0.000 HD
ENDBRANCH  48  49
ENDBRANCH   9  48
TORSDOF 12
ENDMDL
MODEL 2
REMARK VINA RESULT:      -6.3      4.237     10.217
REMARK  Name = 5358691_Yuanhuacine.pdbqt.pdb
REMARK  12 active torsions:
REMARK  status: ('A' for Active; 'I' for Inactive)
REMARK    1  A    between atoms: C_9  and  C_48
REMARK    2  A    between atoms: C_13  and  C_23
REMARK    3  A    between atoms: C_14  and  O_26
REMARK    4  A    between atoms: C_15  and  O_28
REMARK    5  A    between atoms: C_16  and  O_39
REMARK    6  A    between atoms: C_17  and  C_30
REMARK    7  A    between atoms: C_31  and  C_32
REMARK    8  A    between atoms: C_33  and  C_34
REMARK    9  A    between atoms: C_35  and  C_36
REMARK   10  A    between atoms: O_39  and  C_41
REMARK   11  A    between atoms: C_41  and  C_42
REMARK   12  A    between atoms: C_48  and  O_49
REMARK                            x       y       z     vdW  Elec       q    Type
REMARK                         _______ _______ _______ _____ _____    ______ ____
ROOT
ATOM      1  O   UNL     1      -4.501 -38.525  -7.762  0.00  0.00    +0.000 OA
ATOM      2  O   UNL     1      -2.449 -36.693  -5.595  0.00  0.00    +0.000 OA
ATOM      3  O   UNL     1      -3.677 -38.406  -4.503  0.00  0.00    +0.000 OA
ATOM      4  O   UNL     1      -3.055 -36.553  -3.305  0.00  0.00    +0.000 OA
ATOM      5  O   UNL     1      -4.167 -34.202 -10.647  0.00  0.00    +0.000 OA
ATOM      6  C   UNL     1      -4.824 -37.073  -5.948  0.00  0.00    +0.000 C 
ATOM      7  C   UNL     1      -3.661 -36.090  -6.144  0.00  0.00    +0.000 C 
ATOM      8  C   UNL     1      -5.420 -37.897  -6.961  0.00  0.00    +0.000 C 
ATOM      9  C   UNL     1      -5.567 -37.823  -8.415  0.00  0.00    +0.000 C 
ATOM     10  C   UNL     1      -4.750 -37.518  -4.550  0.00  0.00    +0.000 C 
ATOM     11  C   UNL     1      -3.396 -35.808  -7.591  0.00  0.00    +0.000 C 
ATOM     12  C   UNL     1      -3.970 -34.788  -5.344  0.00  0.00    +0.000 C 
ATOM     13  C   UNL     1      -4.492 -36.421  -3.488  0.00  0.00    +0.000 C 
ATOM     14  C   UNL     1      -4.513 -35.410  -8.530  0.00  0.00    +0.000 C 
ATOM     15  C   UNL     1      -5.308 -36.538  -9.119  0.00  0.00    +0.000 C 
ATOM     16  C   UNL     1      -4.639 -35.028  -4.076  0.00  0.00    +0.000 C 
ATOM     17  C   UNL     1      -2.646 -37.422  -4.359  0.00  0.00    +0.000 C 
ATOM     18  C   UNL     1      -2.161 -35.422  -8.172  0.00  0.00    +0.000 C 
ATOM     19  C   UNL     1      -3.442 -33.388  -5.659  0.00  0.00    +0.000 C 
ATOM     20  C   UNL     1      -3.669 -34.707  -9.644  0.00  0.00    +0.000 C 
ATOM     21  C   UNL     1      -2.214 -34.779  -9.290  0.00  0.00    +0.000 C 
ATOM     22  C   UNL     1      -1.068 -34.672 -10.242  0.00  0.00    +0.000 C 
ENDROOT
BRANCH  13  23
ATOM     23  C   UNL     1      -5.297 -36.732  -2.205  0.00  0.00    +0.000 C 
ATOM     24  C   UNL     1      -4.665 -37.017  -0.844  0.00  0.00    +0.000 C 
ATOM     25  C   UNL     1      -6.605 -37.063  -2.208  0.00  0.00    +0.000 C 
ENDBRANCH  13  23
BRANCH  14  26
ATOM     26  O   UNL     1      -5.416 -34.524  -7.903  0.00  0.00    +0.000 OA
ATOM     27  H   UNL     1      -5.082 -33.617  -8.051  0.00  0.00    +0.000 HD
ENDBRANCH  14  26
BRANCH  15  28
ATOM     28  O   UNL     1      -5.983 -36.278 -10.314  0.00  0.00    +0.000 OA
ATOM     29  H   UNL     1      -6.486 -35.436 -10.331  0.00  0.00    +0.000 HD
ENDBRANCH  15  28
BRANCH  17  30
ATOM     30  C   UNL     1      -1.392 -38.073  -3.991  0.00  0.00    +0.000 C 
ATOM     31  C   UNL     1      -0.362 -38.610  -3.689  0.00  0.00    +0.000 C 
BRANCH  31  32
ATOM     32  C   UNL     1       0.952 -39.296  -3.306  0.00  0.00    +0.000 C 
ATOM     33  C   UNL     1       1.983 -39.832  -3.005  0.00  0.00    +0.000 C 
BRANCH  33  34
ATOM     34  C   UNL     1       3.299 -40.515  -2.621  0.00  0.00    +0.000 C 
ATOM     35  C   UNL     1       4.615 -41.197  -2.238  0.00  0.00    +0.000 C 
BRANCH  35  36
ATOM     36  C   UNL     1       5.933 -41.878  -1.853  0.00  0.00    +0.000 C 
ATOM     37  C   UNL     1       7.249 -42.559  -1.467  0.00  0.00    +0.000 C 
ATOM     38  C   UNL     1       8.565 -43.241  -1.080  0.00  0.00    +0.000 C 
ENDBRANCH  35  36
ENDBRANCH  33  34
ENDBRANCH  31  32
ENDBRANCH  17  30
BRANCH  16  39
ATOM     39  O   UNL     1      -5.322 -33.958  -3.476  0.00  0.00    +0.000 OA
BRANCH  39  41
ATOM     40  O   UNL     1      -7.201 -34.433  -4.711  0.00  0.00    +0.000 OA
ATOM     41  C   UNL     1      -6.661 -33.925  -3.742  0.00  0.00    +0.000 C 
BRANCH  41  42
ATOM     42  C   UNL     1      -7.370 -33.144  -2.712  0.00  0.00    +0.000 A 
ATOM     43  C   UNL     1      -8.662 -32.663  -2.921  0.00  0.00    +0.000 A 
ATOM     44  C   UNL     1      -6.715 -32.894  -1.507  0.00  0.00    +0.000 A 
ATOM     45  C   UNL     1      -9.299 -31.931  -1.922  0.00  0.00    +0.000 A 
ATOM     46  C   UNL     1      -7.355 -32.162  -0.510  0.00  0.00    +0.000 A 
ATOM     47  C   UNL     1      -8.645 -31.681  -0.718  0.00  0.00    +0.000 A 
ENDBRANCH  41  42
ENDBRANCH  39  41
ENDBRANCH  16  39
BRANCH   9  48
ATOM     48  C   UNL     1      -6.458 -38.778  -9.061  0.00  0.00    +0.000 C 
BRANCH  48  49
ATOM     49  O   UNL     1      -7.268 -39.648  -9.657  0.00  0.00    +0.000 OA
ATOM     50  H   UNL     1      -8.039 -39.191 -10.037  0.00  0.00    +0.000 HD
ENDBRANCH  48  49
ENDBRANCH   9  48
TORSDOF 12
ENDMDL
MODEL 3
REMARK VINA RESULT:      -6.3     17.136     20.755
REMARK  Name = 5358691_Yuanhuacine.pdbqt.pdb
REMARK  12 active torsions:
REMARK  status: ('A' for Active; 'I' for Inactive)
REMARK    1  A    between atoms: C_9  and  C_48
REMARK    2  A    between atoms: C_13  and  C_23
REMARK    3  A    between atoms: C_14  and  O_26
REMARK    4  A    between atoms: C_15  and  O_28
REMARK    5  A    between atoms: C_16  and  O_39
REMARK    6  A    between atoms: C_17  and  C_30
REMARK    7  A    between atoms: C_31  and  C_32
REMARK    8  A    between atoms: C_33  and  C_34
REMARK    9  A    between atoms: C_35  and  C_36
REMARK   10  A    between atoms: O_39  and  C_41
REMARK   11  A    between atoms: C_41  and  C_42
REMARK   12  A    between atoms: C_48  and  O_49
REMARK                            x       y       z     vdW  Elec       q    Type
REMARK                         _______ _______ _______ _____ _____    ______ ____
ROOT
ATOM      1  O   UNL     1      -3.005 -20.176   1.075  0.00  0.00    +0.000 OA
ATOM      2  O   UNL     1      -4.456 -17.181   2.164  0.00  0.00    +0.000 OA
ATOM      3  O   UNL     1      -5.022 -17.741  -0.072  0.00  0.00    +0.000 OA
ATOM      4  O   UNL     1      -5.009 -15.533   0.549  0.00  0.00    +0.000 OA
ATOM      5  O   UNL     1       0.428 -19.097   4.840  0.00  0.00    +0.000 OA
ATOM      6  C   UNL     1      -2.828 -17.906   0.511  0.00  0.00    +0.000 C 
ATOM      7  C   UNL     1      -3.024 -17.243   1.882  0.00  0.00    +0.000 C 
ATOM      8  C   UNL     1      -2.388 -19.251   0.272  0.00  0.00    +0.000 C 
ATOM      9  C   UNL     1      -1.574 -20.229   0.997  0.00  0.00    +0.000 C 
ATOM     10  C   UNL     1      -3.764 -17.238  -0.401  0.00  0.00    +0.000 C 
ATOM     11  C   UNL     1      -2.391 -18.032   2.987  0.00  0.00    +0.000 C 
ATOM     12  C   UNL     1      -2.470 -15.788   1.815  0.00  0.00    +0.000 C 
ATOM     13  C   UNL     1      -3.842 -15.694  -0.305  0.00  0.00    +0.000 C 
ATOM     14  C   UNL     1      -0.957 -18.504   2.892  0.00  0.00    +0.000 C 
ATOM     15  C   UNL     1      -0.737 -19.786   2.145  0.00  0.00    +0.000 C 
ATOM     16  C   UNL     1      -2.714 -15.130   0.541  0.00  0.00    +0.000 C 
ATOM     17  C   UNL     1      -5.282 -16.851   1.020  0.00  0.00    +0.000 C 
ATOM     18  C   UNL     1      -2.784 -18.056   4.350  0.00  0.00    +0.000 C 
ATOM     19  C   UNL     1      -1.940 -14.968   2.991  0.00  0.00    +0.000 C 
ATOM     20  C   UNL     1      -0.657 -18.710   4.414  0.00  0.00    +0.000 C 
ATOM     21  C   UNL     1      -1.884 -18.386   5.214  0.00  0.00    +0.000 C 
ATOM     22  C   UNL     1      -2.193 -18.875   6.591  0.00  0.00    +0.000 C 
ENDROOT
BRANCH  13  23
ATOM     23  C   UNL     1      -4.035 -15.088  -1.715  0.00  0.00    +0.000 C 
ATOM     24  C   UNL     1      -4.774 -13.780  -1.992  0.00  0.00    +0.000 C 
ATOM     25  C   UNL     1      -3.828 -15.777  -2.857  0.00  0.00    +0.000 C 
ENDBRANCH  13  23
BRANCH  14  26
ATOM     26  O   UNL     1      -0.132 -17.516   2.313  0.00  0.00    +0.000 OA
ATOM     27  H   UNL     1       0.402 -17.953   1.621  0.00  0.00    +0.000 HD
ENDBRANCH  14  26
BRANCH  15  28
ATOM     28  O   UNL     1       0.429 -20.496   2.440  0.00  0.00    +0.000 OA
ATOM     29  H   UNL     1       0.892 -20.874   1.662  0.00  0.00    +0.000 HD
ENDBRANCH  15  28
BRANCH  17  30
ATOM     30  C   UNL     1      -6.685 -16.946   1.410  0.00  0.00    +0.000 C 
ATOM     31  C   UNL     1      -7.840 -17.024   1.728  0.00  0.00    +0.000 C 
BRANCH  31  32
ATOM     32  C   UNL     1      -9.312 -17.126   2.134  0.00  0.00    +0.000 C 
ATOM     33  C   UNL     1     -10.467 -17.206   2.451  0.00  0.00    +0.000 C 
BRANCH  33  34
ATOM     34  C   UNL     1     -11.941 -17.311   2.855  0.00  0.00    +0.000 C 
ATOM     35  C   UNL     1     -13.414 -17.415   3.257  0.00  0.00    +0.000 C 
BRANCH  35  36
ATOM     36  C   UNL     1     -14.890 -17.521   3.659  0.00  0.00    +0.000 C 
ATOM     37  C   UNL     1     -16.364 -17.626   4.060  0.00  0.00    +0.000 C 
ATOM     38  C   UNL     1     -17.839 -17.732   4.460  0.00  0.00    +0.000 C 
ENDBRANCH  35  36
ENDBRANCH  33  34
ENDBRANCH  31  32
ENDBRANCH  17  30
BRANCH  16  39
ATOM     39  O   UNL     1      -1.931 -14.010   0.215  0.00  0.00    +0.000 OA
BRANCH  39  41
ATOM     40  O   UNL     1       0.296 -14.347   0.673  0.00  0.00    +0.000 OA
ATOM     41  C   UNL     1      -0.638 -14.305  -0.111  0.00  0.00    +0.000 C 
BRANCH  41  42
ATOM     42  C   UNL     1      -0.512 -14.525  -1.563  0.00  0.00    +0.000 A 
ATOM     43  C   UNL     1      -0.856 -13.535  -2.483  0.00  0.00    +0.000 A 
ATOM     44  C   UNL     1      -0.035 -15.758  -2.005  0.00  0.00    +0.000 A 
ATOM     45  C   UNL     1      -0.722 -13.780  -3.848  0.00  0.00    +0.000 A 
ATOM     46  C   UNL     1       0.098 -16.000  -3.369  0.00  0.00    +0.000 A 
ATOM     47  C   UNL     1      -0.245 -15.012  -4.289  0.00  0.00    +0.000 A 
ENDBRANCH  41  42
ENDBRANCH  39  41
ENDBRANCH  16  39
BRANCH   9  48
ATOM     48  C   UNL     1      -1.167 -21.436   0.291  0.00  0.00    +0.000 C 
BRANCH  48  49
ATOM     49  O   UNL     1      -0.794 -22.541  -0.348  0.00  0.00    +0.000 OA
ATOM     50  H   UNL     1      -1.299 -22.645  -1.173  0.00  0.00    +0.000 HD
ENDBRANCH  48  49
ENDBRANCH   9  48
TORSDOF 12
ENDMDL
MODEL 4
REMARK VINA RESULT:      -6.3     19.989     23.155
REMARK  Name = 5358691_Yuanhuacine.pdbqt.pdb
REMARK  12 active torsions:
REMARK  status: ('A' for Active; 'I' for Inactive)
REMARK    1  A    between atoms: C_9  and  C_48
REMARK    2  A    between atoms: C_13  and  C_23
REMARK    3  A    between atoms: C_14  and  O_26
REMARK    4  A    between atoms: C_15  and  O_28
REMARK    5  A    between atoms: C_16  and  O_39
REMARK    6  A    between atoms: C_17  and  C_30
REMARK    7  A    between atoms: C_31  and  C_32
REMARK    8  A    between atoms: C_33  and  C_34
REMARK    9  A    between atoms: C_35  and  C_36
REMARK   10  A    between atoms: O_39  and  C_41
REMARK   11  A    between atoms: C_41  and  C_42
REMARK   12  A    between atoms: C_48  and  O_49
REMARK                            x       y       z     vdW  Elec       q    Type
REMARK                         _______ _______ _______ _____ _____    ______ ____
ROOT
ATOM      1  O   UNL     1      -4.572 -15.368  -2.620  0.00  0.00    +0.000 OA
ATOM      2  O   UNL     1      -5.563 -14.766   0.684  0.00  0.00    +0.000 OA
ATOM      3  O   UNL     1      -6.202 -13.042  -0.818  0.00  0.00    +0.000 OA
ATOM      4  O   UNL     1      -5.861 -12.520   1.389  0.00  0.00    +0.000 OA
ATOM      5  O   UNL     1      -1.022 -18.387  -0.294  0.00  0.00    +0.000 OA
ATOM      6  C   UNL     1      -4.058 -13.793  -0.959  0.00  0.00    +0.000 C 
ATOM      7  C   UNL     1      -4.156 -14.655   0.308  0.00  0.00    +0.000 C 
ATOM      8  C   UNL     1      -3.822 -14.266  -2.294  0.00  0.00    +0.000 C 
ATOM      9  C   UNL     1      -3.165 -15.430  -2.889  0.00  0.00    +0.000 C 
ATOM     10  C   UNL     1      -4.883 -12.605  -0.707  0.00  0.00    +0.000 C 
ATOM     11  C   UNL     1      -3.648 -16.047   0.085  0.00  0.00    +0.000 C 
ATOM     12  C   UNL     1      -3.391 -13.935   1.459  0.00  0.00    +0.000 C 
ATOM     13  C   UNL     1      -4.730 -11.938   0.682  0.00  0.00    +0.000 C 
ATOM     14  C   UNL     1      -2.301 -16.298  -0.554  0.00  0.00    +0.000 C 
ATOM     15  C   UNL     1      -2.273 -16.281  -2.054  0.00  0.00    +0.000 C 
ATOM     16  C   UNL     1      -3.532 -12.488   1.437  0.00  0.00    +0.000 C 
ATOM     17  C   UNL     1      -6.328 -13.547   0.517  0.00  0.00    +0.000 C 
ATOM     18  C   UNL     1      -4.042 -17.219   0.780  0.00  0.00    +0.000 C 
ATOM     19  C   UNL     1      -2.746 -14.605   2.673  0.00  0.00    +0.000 C 
ATOM     20  C   UNL     1      -2.037 -17.748  -0.028  0.00  0.00    +0.000 C 
ATOM     21  C   UNL     1      -3.203 -18.199   0.801  0.00  0.00    +0.000 C 
ATOM     22  C   UNL     1      -3.584 -19.614   1.091  0.00  0.00    +0.000 C 
ENDROOT
BRANCH  13  23
ATOM     23  C   UNL     1      -4.828 -10.401   0.542  0.00  0.00    +0.000 C 
ATOM     24  C   UNL     1      -5.407  -9.478   1.613  0.00  0.00    +0.000 C 
ATOM     25  C   UNL     1      -4.684  -9.749  -0.631  0.00  0.00    +0.000 C 
ENDBRANCH  13  23
BRANCH  14  26
ATOM     26  O   UNL     1      -1.336 -15.377  -0.091  0.00  0.00    +0.000 OA
ATOM     27  H   UNL     1      -0.630 -15.892   0.347  0.00  0.00    +0.000 HD
ENDBRANCH  14  26
BRANCH  15  28
ATOM     28  O   UNL     1      -1.225 -16.968  -2.674  0.00  0.00    +0.000 OA
ATOM     29  H   UNL     1      -1.327 -17.943  -2.698  0.00  0.00    +0.000 HD
ENDBRANCH  15  28
BRANCH  17  30
ATOM     30  C   UNL     1      -7.730 -13.829   0.806  0.00  0.00    +0.000 C 
ATOM     31  C   UNL     1      -8.884 -14.061   1.043  0.00  0.00    +0.000 C 
BRANCH  31  32
ATOM     32  C   UNL     1     -10.355 -14.359   1.344  0.00  0.00    +0.000 C 
ATOM     33  C   UNL     1     -11.509 -14.594   1.579  0.00  0.00    +0.000 C 
BRANCH  33  34
ATOM     34  C   UNL     1     -12.981 -14.892   1.876  0.00  0.00    +0.000 C 
ATOM     35  C   UNL     1     -14.453 -15.191   2.173  0.00  0.00    +0.000 C 
BRANCH  35  36
ATOM     36  C   UNL     1     -15.926 -15.492   2.470  0.00  0.00    +0.000 C 
ATOM     37  C   UNL     1     -17.398 -15.793   2.768  0.00  0.00    +0.000 C 
ATOM     38  C   UNL     1     -18.870 -16.094   3.067  0.00  0.00    +0.000 C 
ENDBRANCH  35  36
ENDBRANCH  33  34
ENDBRANCH  31  32
ENDBRANCH  17  30
BRANCH  16  39
ATOM     39  O   UNL     1      -2.590 -11.721   2.143  0.00  0.00    +0.000 OA
BRANCH  39  41
ATOM     40  O   UNL     1      -0.595 -12.223   1.119  0.00  0.00    +0.000 OA
ATOM     41  C   UNL     1      -1.461 -11.425   1.433  0.00  0.00    +0.000 C 
BRANCH  41  42
ATOM     42  C   UNL     1      -1.409  -9.982   1.133  0.00  0.00    +0.000 A 
ATOM     43  C   UNL     1      -1.755  -9.026   2.087  0.00  0.00    +0.000 A 
ATOM     44  C   UNL     1      -0.998  -9.587  -0.139  0.00  0.00    +0.000 A 
ATOM     45  C   UNL     1      -1.691  -7.672   1.766  0.00  0.00    +0.000 A 
ATOM     46  C   UNL     1      -0.934  -8.234  -0.457  0.00  0.00    +0.000 A 
ATOM     47  C   UNL     1      -1.280  -7.277   0.495  0.00  0.00    +0.000 A 
ENDBRANCH  41  42
ENDBRANCH  39  41
ENDBRANCH  16  39
BRANCH   9  48
ATOM     48  C   UNL     1      -2.940 -15.427  -4.328  0.00  0.00    +0.000 C 
BRANCH  48  49
ATOM     49  O   UNL     1      -2.730 -15.429  -5.641  0.00  0.00    +0.000 OA
ATOM     50  H   UNL     1      -3.099 -14.625  -6.046  0.00  0.00    +0.000 HD
ENDBRANCH  48  49
ENDBRANCH   9  48
TORSDOF 12
ENDMDL
MODEL 5
REMARK VINA RESULT:      -6.1      3.827      8.743
REMARK  Name = 5358691_Yuanhuacine.pdbqt.pdb
REMARK  12 active torsions:
REMARK  status: ('A' for Active; 'I' for Inactive)
REMARK    1  A    between atoms: C_9  and  C_48
REMARK    2  A    between atoms: C_13  and  C_23
REMARK    3  A    between atoms: C_14  and  O_26
REMARK    4  A    between atoms: C_15  and  O_28
REMARK    5  A    between atoms: C_16  and  O_39
REMARK    6  A    between atoms: C_17  and  C_30
REMARK    7  A    between atoms: C_31  and  C_32
REMARK    8  A    between atoms: C_33  and  C_34
REMARK    9  A    between atoms: C_35  and  C_36
REMARK   10  A    between atoms: O_39  and  C_41
REMARK   11  A    between atoms: C_41  and  C_42
REMARK   12  A    between atoms: C_48  and  O_49
REMARK                            x       y       z     vdW  Elec       q    Type
REMARK                         _______ _______ _______ _____ _____    ______ ____
ROOT
ATOM      1  O   UNL     1      -5.624 -39.589  -3.264  0.00  0.00    +0.000 OA
ATOM      2  O   UNL     1      -4.813 -36.538  -1.750  0.00  0.00    +0.000 OA
ATOM      3  O   UNL     1      -7.149 -36.872  -1.996  0.00  0.00    +0.000 OA
ATOM      4  O   UNL     1      -6.335 -34.729  -1.952  0.00  0.00    +0.000 OA
ATOM      5  O   UNL     1      -0.793 -39.162  -5.162  0.00  0.00    +0.000 OA
ATOM      6  C   UNL     1      -5.845 -37.318  -3.808  0.00  0.00    +0.000 C 
ATOM      7  C   UNL     1      -4.572 -36.736  -3.177  0.00  0.00    +0.000 C 
ATOM      8  C   UNL     1      -6.053 -38.683  -4.200  0.00  0.00    +0.000 C 
ATOM      9  C   UNL     1      -5.193 -39.793  -4.617  0.00  0.00    +0.000 C 
ATOM     10  C   UNL     1      -6.955 -36.488  -3.322  0.00  0.00    +0.000 C 
ATOM     11  C   UNL     1      -3.404 -37.666  -3.302  0.00  0.00    +0.000 C 
ATOM     12  C   UNL     1      -4.284 -35.350  -3.827  0.00  0.00    +0.000 C 
ATOM     13  C   UNL     1      -6.730 -34.957  -3.334  0.00  0.00    +0.000 C 
ATOM     14  C   UNL     1      -3.031 -38.284  -4.631  0.00  0.00    +0.000 C 
ATOM     15  C   UNL     1      -3.783 -39.527  -5.009  0.00  0.00    +0.000 C 
ATOM     16  C   UNL     1      -5.484 -34.581  -4.116  0.00  0.00    +0.000 C 
ATOM     17  C   UNL     1      -6.134 -36.039  -1.426  0.00  0.00    +0.000 C 
ATOM     18  C   UNL     1      -2.280 -37.743  -2.439  0.00  0.00    +0.000 C 
ATOM     19  C   UNL     1      -2.916 -34.678  -3.954  0.00  0.00    +0.000 C 
ATOM     20  C   UNL     1      -1.533 -38.629  -4.339  0.00  0.00    +0.000 C 
ATOM     21  C   UNL     1      -1.192 -38.230  -2.935  0.00  0.00    +0.000 C 
ATOM     22  C   UNL     1      -0.075 -38.778  -2.108  0.00  0.00    +0.000 C 
ENDROOT
BRANCH  13  23
ATOM     23  C   UNL     1      -8.044 -34.235  -3.715  0.00  0.00    +0.000 C 
ATOM     24  C   UNL     1      -8.395 -32.810  -3.288  0.00  0.00    +0.000 C 
ATOM     25  C   UNL     1      -9.126 -34.870  -4.211  0.00  0.00    +0.000 C 
ENDBRANCH  13  23
BRANCH  14  26
ATOM     26  O   UNL     1      -3.171 -37.354  -5.684  0.00  0.00    +0.000 OA
ATOM     27  H   UNL     1      -3.283 -36.472  -5.278  0.00  0.00    +0.000 HD
ENDBRANCH  14  26
BRANCH  15  28
ATOM     28  O   UNL     1      -3.169 -40.380  -5.930  0.00  0.00    +0.000 OA
ATOM     29  H   UNL     1      -3.674 -41.194  -6.141  0.00  0.00    +0.000 HD
ENDBRANCH  15  28
BRANCH  17  30
ATOM     30  C   UNL     1      -6.281 -36.007   0.026  0.00  0.00    +0.000 C 
ATOM     31  C   UNL     1      -6.403 -35.979   1.219  0.00  0.00    +0.000 C 
BRANCH  31  32
ATOM     32  C   UNL     1      -6.561 -35.942   2.742  0.00  0.00    +0.000 C 
ATOM     33  C   UNL     1      -6.685 -35.913   3.935  0.00  0.00    +0.000 C 
BRANCH  33  34
ATOM     34  C   UNL     1      -6.843 -35.873   5.459  0.00  0.00    +0.000 C 
ATOM     35  C   UNL     1      -7.000 -35.832   6.981  0.00  0.00    +0.000 C 
BRANCH  35  36
ATOM     36  C   UNL     1      -7.157 -35.790   8.505  0.00  0.00    +0.000 C 
ATOM     37  C   UNL     1      -7.313 -35.749  10.027  0.00  0.00    +0.000 C 
ATOM     38  C   UNL     1      -7.468 -35.708  11.551  0.00  0.00    +0.000 C 
ENDBRANCH  35  36
ENDBRANCH  33  34
ENDBRANCH  31  32
ENDBRANCH  17  30
BRANCH  16  39
ATOM     39  O   UNL     1      -5.390 -33.533  -5.047  0.00  0.00    +0.000 OA
BRANCH  39  41
ATOM     40  O   UNL     1      -6.508 -34.608  -6.743  0.00  0.00    +0.000 OA
ATOM     41  C   UNL     1      -5.588 -33.915  -6.344  0.00  0.00    +0.000 C 
BRANCH  41  42
ATOM     42  C   UNL     1      -4.501 -33.406  -7.199  0.00  0.00    +0.000 A 
ATOM     43  C   UNL     1      -4.354 -32.044  -7.459  0.00  0.00    +0.000 A 
ATOM     44  C   UNL     1      -3.608 -34.325  -7.749  0.00  0.00    +0.000 A 
ATOM     45  C   UNL     1      -3.312 -31.602  -8.271  0.00  0.00    +0.000 A 
ATOM     46  C   UNL     1      -2.568 -33.880  -8.560  0.00  0.00    +0.000 A 
ATOM     47  C   UNL     1      -2.420 -32.520  -8.821  0.00  0.00    +0.000 A 
ENDBRANCH  41  42
ENDBRANCH  39  41
ENDBRANCH  16  39
BRANCH   9  48
ATOM     48  C   UNL     1      -5.831 -40.984  -5.159  0.00  0.00    +0.000 C 
BRANCH  48  49
ATOM     49  O   UNL     1      -6.411 -42.071  -5.661  0.00  0.00    +0.000 OA
ATOM     50  H   UNL     1      -6.077 -42.253  -6.557  0.00  0.00    +0.000 HD
ENDBRANCH  48  49
ENDBRANCH   9  48
TORSDOF 12
ENDMDL
MODEL 6
REMARK VINA RESULT:      -5.9      4.355      7.665
REMARK  Name = 5358691_Yuanhuacine.pdbqt.pdb
REMARK  12 active torsions:
REMARK  status: ('A' for Active; 'I' for Inactive)
REMARK    1  A    between atoms: C_9  and  C_48
REMARK    2  A    between atoms: C_13  and  C_23
REMARK    3  A    between atoms: C_14  and  O_26
REMARK    4  A    between atoms: C_15  and  O_28
REMARK    5  A    between atoms: C_16  and  O_39
REMARK    6  A    between atoms: C_17  and  C_30
REMARK    7  A    between atoms: C_31  and  C_32
REMARK    8  A    between atoms: C_33  and  C_34
REMARK    9  A    between atoms: C_35  and  C_36
REMARK   10  A    between atoms: O_39  and  C_41
REMARK   11  A    between atoms: C_41  and  C_42
REMARK   12  A    between atoms: C_48  and  O_49
REMARK                            x       y       z     vdW  Elec       q    Type
REMARK                         _______ _______ _______ _____ _____    ______ ____
ROOT
ATOM      1  O   UNL     1      -6.714 -38.821  -4.788  0.00  0.00    +0.000 OA
ATOM      2  O   UNL     1      -5.415 -35.765  -3.676  0.00  0.00    +0.000 OA
ATOM      3  O   UNL     1      -7.079 -35.525  -5.351  0.00  0.00    +0.000 OA
ATOM      4  O   UNL     1      -5.469 -33.905  -5.148  0.00  0.00    +0.000 OA
ATOM      5  O   UNL     1      -2.159 -40.630  -3.028  0.00  0.00    +0.000 OA
ATOM      6  C   UNL     1      -5.455 -37.076  -5.723  0.00  0.00    +0.000 C 
ATOM      7  C   UNL     1      -4.607 -36.644  -4.518  0.00  0.00    +0.000 C 
ATOM      8  C   UNL     1      -6.076 -38.357  -5.910  0.00  0.00    +0.000 C 
ATOM      9  C   UNL     1      -5.815 -39.721  -5.450  0.00  0.00    +0.000 C 
ATOM     10  C   UNL     1      -6.065 -35.850  -6.252  0.00  0.00    +0.000 C 
ATOM     11  C   UNL     1      -4.193 -37.808  -3.672  0.00  0.00    +0.000 C 
ATOM     12  C   UNL     1      -3.379 -35.837  -5.039  0.00  0.00    +0.000 C 
ATOM     13  C   UNL     1      -5.140 -34.614  -6.376  0.00  0.00    +0.000 C 
ATOM     14  C   UNL     1      -3.553 -39.035  -4.283  0.00  0.00    +0.000 C 
ATOM     15  C   UNL     1      -4.499 -40.057  -4.842  0.00  0.00    +0.000 C 
ATOM     16  C   UNL     1      -3.681 -34.987  -6.179  0.00  0.00    +0.000 C 
ATOM     17  C   UNL     1      -6.253 -34.836  -4.405  0.00  0.00    +0.000 C 
ATOM     18  C   UNL     1      -3.896 -37.790  -2.285  0.00  0.00    +0.000 C 
ATOM     19  C   UNL     1      -2.028 -35.696  -4.338  0.00  0.00    +0.000 C 
ATOM     20  C   UNL     1      -2.834 -39.604  -3.015  0.00  0.00    +0.000 C 
ATOM     21  C   UNL     1      -3.126 -38.724  -1.837  0.00  0.00    +0.000 C 
ATOM     22  C   UNL     1      -3.051 -39.121  -0.399  0.00  0.00    +0.000 C 
ENDROOT
BRANCH  13  23
ATOM     23  C   UNL     1      -5.497 -33.815  -7.651  0.00  0.00    +0.000 C 
ATOM     24  C   UNL     1      -6.070 -34.440  -8.922  0.00  0.00    +0.000 C 
ATOM     25  C   UNL     1      -5.083 -32.552  -7.878  0.00  0.00    +0.000 C 
ENDBRANCH  13  23
BRANCH  14  26
ATOM     26  O   UNL     1      -2.642 -38.682  -5.302  0.00  0.00    +0.000 OA
ATOM     27  H   UNL     1      -3.008 -37.900  -5.760  0.00  0.00    +0.000 HD
ENDBRANCH  14  26
BRANCH  15  28
ATOM     28  O   UNL     1      -4.019 -41.364  -4.956  0.00  0.00    +0.000 OA
ATOM     29  H   UNL     1      -4.261 -41.960  -4.215  0.00  0.00    +0.000 HD
ENDBRANCH  15  28
BRANCH  17  30
ATOM     30  C   UNL     1      -7.091 -34.113  -3.454  0.00  0.00    +0.000 C 
ATOM     31  C   UNL     1      -7.782 -33.520  -2.672  0.00  0.00    +0.000 C 
BRANCH  31  32
ATOM     32  C   UNL     1      -8.664 -32.765  -1.674  0.00  0.00    +0.000 C 
ATOM     33  C   UNL     1      -9.356 -32.173  -0.891  0.00  0.00    +0.000 C 
BRANCH  33  34
ATOM     34  C   UNL     1     -10.239 -31.421   0.109  0.00  0.00    +0.000 C 
ATOM     35  C   UNL     1     -11.122 -30.670   1.109  0.00  0.00    +0.000 C 
BRANCH  35  36
ATOM     36  C   UNL     1     -12.004 -29.917   2.111  0.00  0.00    +0.000 C 
ATOM     37  C   UNL     1     -12.887 -29.166   3.112  0.00  0.00    +0.000 C 
ATOM     38  C   UNL     1     -13.770 -28.416   4.114  0.00  0.00    +0.000 C 
ENDBRANCH  35  36
ENDBRANCH  33  34
ENDBRANCH  31  32
ENDBRANCH  17  30
BRANCH  16  39
ATOM     39  O   UNL     1      -2.612 -34.543  -6.975  0.00  0.00    +0.000 OA
BRANCH  39  41
ATOM     40  O   UNL     1      -2.779 -36.420  -8.290  0.00  0.00    +0.000 OA
ATOM     41  C   UNL     1      -2.423 -35.267  -8.118  0.00  0.00    +0.000 C 
BRANCH  41  42
ATOM     42  C   UNL     1      -1.684 -34.469  -9.113  0.00  0.00    +0.000 A 
ATOM     43  C   UNL     1      -2.014 -33.140  -9.374  0.00  0.00    +0.000 A 
ATOM     44  C   UNL     1      -0.632 -35.077  -9.797  0.00  0.00    +0.000 A 
ATOM     45  C   UNL     1      -1.290 -32.418 -10.320  0.00  0.00    +0.000 A 
ATOM     46  C   UNL     1       0.090 -34.354 -10.742  0.00  0.00    +0.000 A 
ATOM     47  C   UNL     1      -0.240 -33.026 -11.003  0.00  0.00    +0.000 A 
ENDBRANCH  41  42
ENDBRANCH  39  41
ENDBRANCH  16  39
BRANCH   9  48
ATOM     48  C   UNL     1      -6.571 -40.806  -6.062  0.00  0.00    +0.000 C 
BRANCH  48  49
ATOM     49  O   UNL     1      -7.264 -41.791  -6.625  0.00  0.00    +0.000 OA
ATOM     50  H   UNL     1      -7.504 -42.461  -5.961  0.00  0.00    +0.000 HD
ENDBRANCH  48  49
ENDBRANCH   9  48
TORSDOF 12
ENDMDL
MODEL 7
REMARK VINA RESULT:      -5.9     19.936     24.259
REMARK  Name = 5358691_Yuanhuacine.pdbqt.pdb
REMARK  12 active torsions:
REMARK  status: ('A' for Active; 'I' for Inactive)
REMARK    1  A    between atoms: C_9  and  C_48
REMARK    2  A    between atoms: C_13  and  C_23
REMARK    3  A    between atoms: C_14  and  O_26
REMARK    4  A    between atoms: C_15  and  O_28
REMARK    5  A    between atoms: C_16  and  O_39
REMARK    6  A    between atoms: C_17  and  C_30
REMARK    7  A    between atoms: C_31  and  C_32
REMARK    8  A    between atoms: C_33  and  C_34
REMARK    9  A    between atoms: C_35  and  C_36
REMARK   10  A    between atoms: O_39  and  C_41
REMARK   11  A    between atoms: C_41  and  C_42
REMARK   12  A    between atoms: C_48  and  O_49
REMARK                            x       y       z     vdW  Elec       q    Type
REMARK                         _______ _______ _______ _____ _____    ______ ____
ROOT
ATOM      1  O   UNL     1      -0.542 -16.775 -12.859  0.00  0.00    +0.000 OA
ATOM      2  O   UNL     1      -2.220 -14.715 -15.139  0.00  0.00    +0.000 OA
ATOM      3  O   UNL     1      -3.681 -15.905 -13.697  0.00  0.00    +0.000 OA
ATOM      4  O   UNL     1      -4.434 -15.288 -15.773  0.00  0.00    +0.000 OA
ATOM      5  O   UNL     1       3.225 -16.538 -16.448  0.00  0.00    +0.000 OA
ATOM      6  C   UNL     1      -2.000 -17.090 -14.670  0.00  0.00    +0.000 C 
ATOM      7  C   UNL     1      -1.574 -15.942 -15.597  0.00  0.00    +0.000 C 
ATOM      8  C   UNL     1      -1.202 -17.691 -13.639  0.00  0.00    +0.000 C 
ATOM      9  C   UNL     1       0.230 -17.860 -13.391  0.00  0.00    +0.000 C 
ATOM     10  C   UNL     1      -3.459 -16.990 -14.543  0.00  0.00    +0.000 C 
ATOM     11  C   UNL     1      -0.095 -15.703 -15.557  0.00  0.00    +0.000 C 
ATOM     12  C   UNL     1      -2.073 -16.256 -17.039  0.00  0.00    +0.000 C 
ATOM     13  C   UNL     1      -4.251 -16.730 -15.848  0.00  0.00    +0.000 C 
ATOM     14  C   UNL     1       0.889 -16.838 -15.730  0.00  0.00    +0.000 C 
ATOM     15  C   UNL     1       1.203 -17.627 -14.493  0.00  0.00    +0.000 C 
ATOM     16  C   UNL     1      -3.375 -16.904 -17.077  0.00  0.00    +0.000 C 
ATOM     17  C   UNL     1      -3.589 -14.884 -14.697  0.00  0.00    +0.000 C 
ATOM     18  C   UNL     1       0.577 -14.481 -15.818  0.00  0.00    +0.000 C 
ATOM     19  C   UNL     1      -1.451 -15.750 -18.341  0.00  0.00    +0.000 C 
ATOM     20  C   UNL     1       2.144 -16.020 -16.179  0.00  0.00    +0.000 C 
ATOM     21  C   UNL     1       1.808 -14.558 -16.199  0.00  0.00    +0.000 C 
ATOM     22  C   UNL     1       2.779 -13.428 -16.106  0.00  0.00    +0.000 C 
ENDROOT
BRANCH  13  23
ATOM     23  C   UNL     1      -5.585 -17.513 -15.819  0.00  0.00    +0.000 C 
ATOM     24  C   UNL     1      -6.964 -16.855 -15.818  0.00  0.00    +0.000 C 
ATOM     25  C   UNL     1      -5.674 -18.822 -15.506  0.00  0.00    +0.000 C 
ENDBRANCH  13  23
BRANCH  14  26
ATOM     26  O   UNL     1       0.455 -17.742 -16.724  0.00  0.00    +0.000 OA
ATOM     27  H   UNL     1       1.005 -17.587 -17.517  0.00  0.00    +0.000 HD
ENDBRANCH  14  26
BRANCH  15  28
ATOM     28  O   UNL     1       2.415 -18.323 -14.479  0.00  0.00    +0.000 OA
ATOM     29  H   UNL     1       3.170 -17.847 -14.887  0.00  0.00    +0.000 HD
ENDBRANCH  15  28
BRANCH  17  30
ATOM     30  C   UNL     1      -4.069 -13.617 -14.155  0.00  0.00    +0.000 C 
ATOM     31  C   UNL     1      -4.461 -12.575 -13.707  0.00  0.00    +0.000 C 
BRANCH  31  32
ATOM     32  C   UNL     1      -4.960 -11.245 -13.137  0.00  0.00    +0.000 C 
ATOM     33  C   UNL     1      -5.351 -10.201 -12.690  0.00  0.00    +0.000 C 
BRANCH  33  34
ATOM     34  C   UNL     1      -5.847  -8.870 -12.118  0.00  0.00    +0.000 C 
ATOM     35  C   UNL     1      -6.344  -7.540 -11.546  0.00  0.00    +0.000 C 
BRANCH  35  36
ATOM     36  C   UNL     1      -6.841  -6.209 -10.972  0.00  0.00    +0.000 C 
ATOM     37  C   UNL     1      -7.339  -4.879 -10.399  0.00  0.00    +0.000 C 
ATOM     38  C   UNL     1      -7.838  -3.548  -9.826  0.00  0.00    +0.000 C 
ENDBRANCH  35  36
ENDBRANCH  33  34
ENDBRANCH  31  32
ENDBRANCH  17  30
BRANCH  16  39
ATOM     39  O   UNL     1      -3.738 -17.591 -18.247  0.00  0.00    +0.000 OA
BRANCH  39  41
ATOM     40  O   UNL     1      -2.149 -19.244 -18.091  0.00  0.00    +0.000 OA
ATOM     41  C   UNL     1      -3.294 -18.881 -18.301  0.00  0.00    +0.000 C 
BRANCH  41  42
ATOM     42  C   UNL     1      -4.390 -19.784 -18.698  0.00  0.00    +0.000 A 
ATOM     43  C   UNL     1      -4.273 -21.169 -18.580  0.00  0.00    +0.000 A 
ATOM     44  C   UNL     1      -5.562 -19.219 -19.198  0.00  0.00    +0.000 A 
ATOM     45  C   UNL     1      -5.332 -21.989 -18.964  0.00  0.00    +0.000 A 
ATOM     46  C   UNL     1      -6.619 -20.041 -19.580  0.00  0.00    +0.000 A 
ATOM     47  C   UNL     1      -6.503 -21.424 -19.463  0.00  0.00    +0.000 A 
ENDBRANCH  41  42
ENDBRANCH  39  41
ENDBRANCH  16  39
BRANCH   9  48
ATOM     48  C   UNL     1       0.637 -18.748 -12.310  0.00  0.00    +0.000 C 
BRANCH  48  49
ATOM     49  O   UNL     1       1.002 -19.557 -11.320  0.00  0.00    +0.000 OA
ATOM     50  H   UNL     1       0.930 -20.487 -11.596  0.00  0.00    +0.000 HD
ENDBRANCH  48  49
ENDBRANCH   9  48
TORSDOF 12
ENDMDL
MODEL 8
REMARK VINA RESULT:      -5.6      2.113      6.422
REMARK  Name = 5358691_Yuanhuacine.pdbqt.pdb
REMARK  12 active torsions:
REMARK  status: ('A' for Active; 'I' for Inactive)
REMARK    1  A    between atoms: C_9  and  C_48
REMARK    2  A    between atoms: C_13  and  C_23
REMARK    3  A    between atoms: C_14  and  O_26
REMARK    4  A    between atoms: C_15  and  O_28
REMARK    5  A    between atoms: C_16  and  O_39
REMARK    6  A    between atoms: C_17  and  C_30
REMARK    7  A    between atoms: C_31  and  C_32
REMARK    8  A    between atoms: C_33  and  C_34
REMARK    9  A    between atoms: C_35  and  C_36
REMARK   10  A    between atoms: O_39  and  C_41
REMARK   11  A    between atoms: C_41  and  C_42
REMARK   12  A    between atoms: C_48  and  O_49
REMARK                            x       y       z     vdW  Elec       q    Type
REMARK                         _______ _______ _______ _____ _____    ______ ____
ROOT
ATOM      1  O   UNL     1      -6.331 -39.293  -4.303  0.00  0.00    +0.000 OA
ATOM      2  O   UNL     1      -7.851 -36.203  -4.934  0.00  0.00    +0.000 OA
ATOM      3  O   UNL     1      -7.459 -37.475  -6.899  0.00  0.00    +0.000 OA
ATOM      4  O   UNL     1      -7.527 -35.188  -7.054  0.00  0.00    +0.000 OA
ATOM      5  O   UNL     1      -4.742 -36.870   0.023  0.00  0.00    +0.000 OA
ATOM      6  C   UNL     1      -5.742 -37.312  -5.414  0.00  0.00    +0.000 C 
ATOM      7  C   UNL     1      -6.446 -36.263  -4.541  0.00  0.00    +0.000 C 
ATOM      8  C   UNL     1      -5.356 -38.635  -5.009  0.00  0.00    +0.000 C 
ATOM      9  C   UNL     1      -5.012 -39.280  -3.741  0.00  0.00    +0.000 C 
ATOM     10  C   UNL     1      -6.144 -37.026  -6.797  0.00  0.00    +0.000 C 
ATOM     11  C   UNL     1      -6.409 -36.621  -3.087  0.00  0.00    +0.000 C 
ATOM     12  C   UNL     1      -5.796 -34.873  -4.815  0.00  0.00    +0.000 C 
ATOM     13  C   UNL     1      -6.125 -35.540  -7.229  0.00  0.00    +0.000 C 
ATOM     14  C   UNL     1      -5.115 -37.010  -2.406  0.00  0.00    +0.000 C 
ATOM     15  C   UNL     1      -4.707 -38.447  -2.547  0.00  0.00    +0.000 C 
ATOM     16  C   UNL     1      -5.420 -34.669  -6.204  0.00  0.00    +0.000 C 
ATOM     17  C   UNL     1      -8.083 -36.303  -6.360  0.00  0.00    +0.000 C 
ATOM     18  C   UNL     1      -7.343 -36.236  -2.091  0.00  0.00    +0.000 C 
ATOM     19  C   UNL     1      -5.748 -33.692  -3.845  0.00  0.00    +0.000 C 
ATOM     20  C   UNL     1      -5.508 -36.705  -0.923  0.00  0.00    +0.000 C 
ATOM     21  C   UNL     1      -6.926 -36.220  -0.870  0.00  0.00    +0.000 C 
ATOM     22  C   UNL     1      -7.830 -36.265   0.318  0.00  0.00    +0.000 C 
ENDROOT
BRANCH  13  23
ATOM     23  C   UNL     1      -5.651 -35.424  -8.697  0.00  0.00    +0.000 C 
ATOM     24  C   UNL     1      -5.899 -34.206  -9.585  0.00  0.00    +0.000 C 
ATOM     25  C   UNL     1      -5.228 -36.476  -9.428  0.00  0.00    +0.000 C 
ENDBRANCH  13  23
BRANCH  14  26
ATOM     26  O   UNL     1      -4.043 -36.207  -2.852  0.00  0.00    +0.000 OA
ATOM     27  H   UNL     1      -4.430 -35.427  -3.298  0.00  0.00    +0.000 HD
ENDBRANCH  14  26
BRANCH  15  28
ATOM     28  O   UNL     1      -3.840 -38.954  -1.576  0.00  0.00    +0.000 OA
ATOM     29  H   UNL     1      -2.930 -39.141  -1.891  0.00  0.00    +0.000 HD
ENDBRANCH  15  28
BRANCH  17  30
ATOM     30  C   UNL     1      -9.521 -36.356  -6.601  0.00  0.00    +0.000 C 
ATOM     31  C   UNL     1     -10.704 -36.397  -6.800  0.00  0.00    +0.000 C 
BRANCH  31  32
ATOM     32  C   UNL     1     -12.213 -36.450  -7.055  0.00  0.00    +0.000 C 
ATOM     33  C   UNL     1     -13.395 -36.490  -7.257  0.00  0.00    +0.000 C 
BRANCH  33  34
ATOM     34  C   UNL     1     -14.905 -36.540  -7.514  0.00  0.00    +0.000 C 
ATOM     35  C   UNL     1     -16.413 -36.588  -7.771  0.00  0.00    +0.000 C 
BRANCH  35  36
ATOM     36  C   UNL     1     -17.923 -36.636  -8.029  0.00  0.00    +0.000 C 
ATOM     37  C   UNL     1     -19.432 -36.683  -8.286  0.00  0.00    +0.000 C 
ATOM     38  C   UNL     1     -20.942 -36.728  -8.543  0.00  0.00    +0.000 C 
ENDBRANCH  35  36
ENDBRANCH  33  34
ENDBRANCH  31  32
ENDBRANCH  17  30
BRANCH  16  39
ATOM     39  O   UNL     1      -4.482 -33.664  -6.495  0.00  0.00    +0.000 OA
BRANCH  39  41
ATOM     40  O   UNL     1      -2.577 -34.619  -5.635  0.00  0.00    +0.000 OA
ATOM     41  C   UNL     1      -3.190 -34.102  -6.554  0.00  0.00    +0.000 C 
BRANCH  41  42
ATOM     42  C   UNL     1      -2.614 -33.822  -7.881  0.00  0.00    +0.000 A 
ATOM     43  C   UNL     1      -2.594 -32.532  -8.411  0.00  0.00    +0.000 A 
ATOM     44  C   UNL     1      -2.082 -34.886  -8.608  0.00  0.00    +0.000 A 
ATOM     45  C   UNL     1      -2.039 -32.307  -9.669  0.00  0.00    +0.000 A 
ATOM     46  C   UNL     1      -1.528 -34.659  -9.864  0.00  0.00    +0.000 A 
ATOM     47  C   UNL     1      -1.507 -33.370 -10.394  0.00  0.00    +0.000 A 
ENDBRANCH  41  42
ENDBRANCH  39  41
ENDBRANCH  16  39
BRANCH   9  48
ATOM     48  C   UNL     1      -4.445 -40.621  -3.789  0.00  0.00    +0.000 C 
BRANCH  48  49
ATOM     49  O   UNL     1      -3.933 -41.848  -3.837  0.00  0.00    +0.000 OA
ATOM     50  H   UNL     1      -3.738 -42.171  -2.940  0.00  0.00    +0.000 HD
ENDBRANCH  48  49
ENDBRANCH   9  48
TORSDOF 12
ENDMDL
MODEL 9
REMARK VINA RESULT:      -5.6     18.489     22.926
REMARK  Name = 5358691_Yuanhuacine.pdbqt.pdb
REMARK  12 active torsions:
REMARK  status: ('A' for Active; 'I' for Inactive)
REMARK    1  A    between atoms: C_9  and  C_48
REMARK    2  A    between atoms: C_13  and  C_23
REMARK    3  A    between atoms: C_14  and  O_26
REMARK    4  A    between atoms: C_15  and  O_28
REMARK    5  A    between atoms: C_16  and  O_39
REMARK    6  A    between atoms: C_17  and  C_30
REMARK    7  A    between atoms: C_31  and  C_32
REMARK    8  A    between atoms: C_33  and  C_34
REMARK    9  A    between atoms: C_35  and  C_36
REMARK   10  A    between atoms: O_39  and  C_41
REMARK   11  A    between atoms: C_41  and  C_42
REMARK   12  A    between atoms: C_48  and  O_49
REMARK                            x       y       z     vdW  Elec       q    Type
REMARK                         _______ _______ _______ _____ _____    ______ ____
ROOT
ATOM      1  O   UNL     1     -12.203 -20.513   2.820  0.00  0.00    +0.000 OA
ATOM      2  O   UNL     1     -10.969 -17.449   1.656  0.00  0.00    +0.000 OA
ATOM      3  O   UNL     1     -10.085 -18.077   3.767  0.00  0.00    +0.000 OA
ATOM      4  O   UNL     1     -10.222 -15.850   3.241  0.00  0.00    +0.000 OA
ATOM      5  O   UNL     1     -16.150 -19.373  -0.381  0.00  0.00    +0.000 OA
ATOM      6  C   UNL     1     -12.336 -18.269   3.492  0.00  0.00    +0.000 C 
ATOM      7  C   UNL     1     -12.346 -17.553   2.133  0.00  0.00    +0.000 C 
ATOM      8  C   UNL     1     -12.716 -19.631   3.737  0.00  0.00    +0.000 C 
ATOM      9  C   UNL     1     -13.607 -20.599   3.096  0.00  0.00    +0.000 C 
ATOM     10  C   UNL     1     -11.292 -17.614   4.289  0.00  0.00    +0.000 C 
ATOM     11  C   UNL     1     -13.116 -18.315   1.098  0.00  0.00    +0.000 C 
ATOM     12  C   UNL     1     -12.909 -16.113   2.335  0.00  0.00    +0.000 C 
ATOM     13  C   UNL     1     -11.254 -16.067   4.244  0.00  0.00    +0.000 C 
ATOM     14  C   UNL     1     -14.514 -18.821   1.374  0.00  0.00    +0.000 C 
ATOM     15  C   UNL     1     -14.605 -20.134   2.095  0.00  0.00    +0.000 C 
ATOM     16  C   UNL     1     -12.499 -15.497   3.586  0.00  0.00    +0.000 C 
ATOM     17  C   UNL     1      -9.997 -17.143   2.685  0.00  0.00    +0.000 C 
ATOM     18  C   UNL     1     -12.919 -18.280  -0.306  0.00  0.00    +0.000 C 
ATOM     19  C   UNL     1     -13.613 -15.263   1.277  0.00  0.00    +0.000 C 
ATOM     20  C   UNL     1     -15.022 -18.978  -0.097  0.00  0.00    +0.000 C 
ATOM     21  C   UNL     1     -13.926 -18.599  -1.048  0.00  0.00    +0.000 C 
ATOM     22  C   UNL     1     -13.806 -19.030  -2.473  0.00  0.00    +0.000 C 
ENDROOT
BRANCH  13  23
ATOM     23  C   UNL     1     -10.875 -15.509   5.635  0.00  0.00    +0.000 C 
ATOM     24  C   UNL     1     -11.408 -16.062   6.955  0.00  0.00    +0.000 C 
ATOM     25  C   UNL     1     -10.271 -14.316   5.820  0.00  0.00    +0.000 C 
ENDBRANCH  13  23
BRANCH  14  26
ATOM     26  O   UNL     1     -15.266 -17.873   2.102  0.00  0.00    +0.000 OA
ATOM     27  H   UNL     1     -15.105 -18.042   3.051  0.00  0.00    +0.000 HD
ENDBRANCH  14  26
BRANCH  15  28
ATOM     28  O   UNL     1     -15.790 -20.858   1.939  0.00  0.00    +0.000 OA
ATOM     29  H   UNL     1     -15.682 -21.833   1.934  0.00  0.00    +0.000 HD
ENDBRANCH  15  28
BRANCH  17  30
ATOM     30  C   UNL     1      -8.661 -17.193   2.099  0.00  0.00    +0.000 C 
ATOM     31  C   UNL     1      -7.562 -17.233   1.619  0.00  0.00    +0.000 C 
BRANCH  31  32
ATOM     32  C   UNL     1      -6.159 -17.285   1.008  0.00  0.00    +0.000 C 
ATOM     33  C   UNL     1      -5.059 -17.326   0.528  0.00  0.00    +0.000 C 
BRANCH  33  34
ATOM     34  C   UNL     1      -3.657 -17.377  -0.087  0.00  0.00    +0.000 C 
ATOM     35  C   UNL     1      -2.256 -17.428  -0.700  0.00  0.00    +0.000 C 
BRANCH  35  36
ATOM     36  C   UNL     1      -0.852 -17.478  -1.313  0.00  0.00    +0.000 C 
ATOM     37  C   UNL     1       0.551 -17.530  -1.926  0.00  0.00    +0.000 C 
ATOM     38  C   UNL     1       1.954 -17.583  -2.539  0.00  0.00    +0.000 C 
ENDBRANCH  35  36
ENDBRANCH  33  34
ENDBRANCH  31  32
ENDBRANCH  17  30
BRANCH  16  39
ATOM     39  O   UNL     1     -13.247 -14.407   4.063  0.00  0.00    +0.000 OA
BRANCH  39  41
ATOM     40  O   UNL     1     -14.543 -15.606   5.535  0.00  0.00    +0.000 OA
ATOM     41  C   UNL     1     -14.420 -14.754   4.671  0.00  0.00    +0.000 C 
BRANCH  41  42
ATOM     42  C   UNL     1     -15.539 -13.980   4.104  0.00  0.00    +0.000 A 
ATOM     43  C   UNL     1     -15.578 -12.588   4.183  0.00  0.00    +0.000 A 
ATOM     44  C   UNL     1     -16.571 -14.675   3.476  0.00  0.00    +0.000 A 
ATOM     45  C   UNL     1     -16.652 -11.892   3.633  0.00  0.00    +0.000 A 
ATOM     46  C   UNL     1     -17.643 -13.977   2.926  0.00  0.00    +0.000 A 
ATOM     47  C   UNL     1     -17.683 -12.587   3.006  0.00  0.00    +0.000 A 
ENDBRANCH  41  42
ENDBRANCH  39  41
ENDBRANCH  16  39
BRANCH   9  48
ATOM     48  C   UNL     1     -13.891 -21.840   3.804  0.00  0.00    +0.000 C 
BRANCH  48  49
ATOM     49  O   UNL     1     -14.152 -22.970   4.456  0.00  0.00    +0.000 OA
ATOM     50  H   UNL     1     -14.135 -22.820   5.417  0.00  0.00    +0.000 HD
ENDBRANCH  48  49
ENDBRANCH   9  48
TORSDOF 12
ENDMDL
