MODEL 1
REMARK VINA RESULT:      -5.1      0.000      0.000
REMARK  Name = 5386_Tegafur.pdbqt.pdb
REMARK  1 active torsions:
REMARK  status: ('A' for Active; 'I' for Inactive)
REMARK    1  A    between atoms: N_4  and  C_12
REMARK                            x       y       z     vdW  Elec       q    Type
REMARK                         _______ _______ _______ _____ _____    ______ ____
ROOT
ATOM      1  F   UNL     1      -7.756 -34.626  -4.318  0.00  0.00    +0.000 F 
ATOM      2  O   UNL     1      -2.423 -33.628  -4.053  0.00  0.00    +0.000 OA
ATOM      3  O   UNL     1      -6.185 -35.384  -2.091  0.00  0.00    +0.000 OA
ATOM      4  N   UNL     1      -4.409 -33.709  -5.337  0.00  0.00    +0.000 N 
ATOM      5  N   UNL     1      -4.311 -34.570  -3.153  0.00  0.00    +0.000 N 
ATOM      6  C   UNL     1      -3.602 -33.932  -4.198  0.00  0.00    +0.000 C 
ATOM      7  C   UNL     1      -5.693 -34.117  -5.272  0.00  0.00    +0.000 C 
ATOM      8  C   UNL     1      -6.417 -34.701  -4.378  0.00  0.00    +0.000 C 
ATOM      9  C   UNL     1      -5.663 -34.932  -3.104  0.00  0.00    +0.000 C 
ATOM     10  H   UNL     1      -3.785 -34.714  -2.302  0.00  0.00    +0.000 HD
ENDROOT
BRANCH   4  12
ATOM     11  O   UNL     1      -4.344 -31.814  -6.853  0.00  0.00    +0.000 OA
ATOM     12  C   UNL     1      -3.963 -33.109  -6.479  0.00  0.00    +0.000 C 
ATOM     13  C   UNL     1      -3.088 -33.619  -7.474  0.00  0.00    +0.000 C 
ATOM     14  C   UNL     1      -2.692 -32.806  -8.708  0.00  0.00    +0.000 C 
ATOM     15  C   UNL     1      -3.619 -31.835  -7.979  0.00  0.00    +0.000 C 
ENDBRANCH   4  12
TORSDOF 1
ENDMDL
MODEL 2
REMARK VINA RESULT:      -4.6      2.132      2.686
REMARK  Name = 5386_Tegafur.pdbqt.pdb
REMARK  1 active torsions:
REMARK  status: ('A' for Active; 'I' for Inactive)
REMARK    1  A    between atoms: N_4  and  C_12
REMARK                            x       y       z     vdW  Elec       q    Type
REMARK                         _______ _______ _______ _____ _____    ______ ____
ROOT
ATOM      1  F   UNL     1      -5.564 -34.139  -3.194  0.00  0.00    +0.000 F 
ATOM      2  O   UNL     1      -6.591 -34.551  -8.512  0.00  0.00    +0.000 OA
ATOM      3  O   UNL     1      -7.845 -35.481  -4.194  0.00  0.00    +0.000 OA
ATOM      4  N   UNL     1      -5.345 -33.565  -6.758  0.00  0.00    +0.000 N 
ATOM      5  N   UNL     1      -7.222 -34.914  -6.337  0.00  0.00    +0.000 N 
ATOM      6  C   UNL     1      -6.383 -34.343  -7.322  0.00  0.00    +0.000 C 
ATOM      7  C   UNL     1      -5.298 -33.483  -5.413  0.00  0.00    +0.000 C 
ATOM      8  C   UNL     1      -6.009 -33.958  -4.448  0.00  0.00    +0.000 C 
ATOM      9  C   UNL     1      -7.110 -34.848  -4.942  0.00  0.00    +0.000 C 
ATOM     10  H   UNL     1      -7.956 -35.511  -6.691  0.00  0.00    +0.000 HD
ENDROOT
BRANCH   4  12
ATOM     11  O   UNL     1      -4.300 -31.514  -7.528  0.00  0.00    +0.000 OA
ATOM     12  C   UNL     1      -4.401 -32.910  -7.495  0.00  0.00    +0.000 C 
ATOM     13  C   UNL     1      -3.391 -33.449  -8.336  0.00  0.00    +0.000 C 
ATOM     14  C   UNL     1      -2.408 -32.562  -9.103  0.00  0.00    +0.000 C 
ATOM     15  C   UNL     1      -3.261 -31.525  -8.373  0.00  0.00    +0.000 C 
ENDBRANCH   4  12
TORSDOF 1
ENDMDL
MODEL 3
REMARK VINA RESULT:      -4.2      1.798      4.704
REMARK  Name = 5386_Tegafur.pdbqt.pdb
REMARK  1 active torsions:
REMARK  status: ('A' for Active; 'I' for Inactive)
REMARK    1  A    between atoms: N_4  and  C_12
REMARK                            x       y       z     vdW  Elec       q    Type
REMARK                         _______ _______ _______ _____ _____    ______ ____
ROOT
ATOM      1  F   UNL     1      -5.643 -33.197  -8.321  0.00  0.00    +0.000 F 
ATOM      2  O   UNL     1      -2.613 -34.113  -3.907  0.00  0.00    +0.000 OA
ATOM      3  O   UNL     1      -2.879 -32.601  -8.234  0.00  0.00    +0.000 OA
ATOM      4  N   UNL     1      -4.755 -33.960  -4.899  0.00  0.00    +0.000 N 
ATOM      5  N   UNL     1      -2.813 -33.287  -6.038  0.00  0.00    +0.000 N 
ATOM      6  C   UNL     1      -3.349 -33.821  -4.842  0.00  0.00    +0.000 C 
ATOM      7  C   UNL     1      -5.366 -33.584  -6.041  0.00  0.00    +0.000 C 
ATOM      8  C   UNL     1      -4.968 -33.092  -7.165  0.00  0.00    +0.000 C 
ATOM      9  C   UNL     1      -3.477 -32.956  -7.226  0.00  0.00    +0.000 C 
ATOM     10  H   UNL     1      -1.806 -33.205  -6.058  0.00  0.00    +0.000 HD
ENDROOT
BRANCH   4  12
ATOM     11  O   UNL     1      -6.007 -33.649  -2.843  0.00  0.00    +0.000 OA
ATOM     12  C   UNL     1      -5.512 -34.454  -3.876  0.00  0.00    +0.000 C 
ATOM     13  C   UNL     1      -5.930 -35.790  -3.637  0.00  0.00    +0.000 C 
ATOM     14  C   UNL     1      -6.779 -36.175  -2.424  0.00  0.00    +0.000 C 
ATOM     15  C   UNL     1      -6.608 -34.671  -2.220  0.00  0.00    +0.000 C 
ENDBRANCH   4  12
TORSDOF 1
ENDMDL
MODEL 4
REMARK VINA RESULT:      -3.9      4.646      7.090
REMARK  Name = 5386_Tegafur.pdbqt.pdb
REMARK  1 active torsions:
REMARK  status: ('A' for Active; 'I' for Inactive)
REMARK    1  A    between atoms: N_4  and  C_12
REMARK                            x       y       z     vdW  Elec       q    Type
REMARK                         _______ _______ _______ _____ _____    ______ ____
ROOT
ATOM      1  F   UNL     1      -7.355 -32.294  -4.594  0.00  0.00    +0.000 F 
ATOM      2  O   UNL     1      -7.682 -34.248   0.464  0.00  0.00    +0.000 OA
ATOM      3  O   UNL     1      -5.501 -34.172  -3.576  0.00  0.00    +0.000 OA
ATOM      4  N   UNL     1      -8.382 -32.661  -1.145  0.00  0.00    +0.000 N 
ATOM      5  N   UNL     1      -6.575 -34.110  -1.540  0.00  0.00    +0.000 N 
ATOM      6  C   UNL     1      -7.578 -33.703  -0.629  0.00  0.00    +0.000 C 
ATOM      7  C   UNL     1      -8.096 -32.218  -2.387  0.00  0.00    +0.000 C 
ATOM      8  C   UNL     1      -7.213 -32.520  -3.277  0.00  0.00    +0.000 C 
ATOM      9  C   UNL     1      -6.341 -33.660  -2.846  0.00  0.00    +0.000 C 
ATOM     10  H   UNL     1      -5.999 -34.880  -1.230  0.00  0.00    +0.000 HD
ENDROOT
BRANCH   4  12
ATOM     11  O   UNL     1     -10.571 -32.805  -0.107  0.00  0.00    +0.000 OA
ATOM     12  C   UNL     1      -9.420 -32.093  -0.464  0.00  0.00    +0.000 C 
ATOM     13  C   UNL     1      -9.563 -30.756  -0.005  0.00  0.00    +0.000 C 
ATOM     14  C   UNL     1     -10.808 -30.280   0.745  0.00  0.00    +0.000 C 
ATOM     15  C   UNL     1     -11.145 -31.747   0.482  0.00  0.00    +0.000 C 
ENDBRANCH   4  12
TORSDOF 1
ENDMDL
MODEL 5
REMARK VINA RESULT:      -3.8      2.909      3.722
REMARK  Name = 5386_Tegafur.pdbqt.pdb
REMARK  1 active torsions:
REMARK  status: ('A' for Active; 'I' for Inactive)
REMARK    1  A    between atoms: N_4  and  C_12
REMARK                            x       y       z     vdW  Elec       q    Type
REMARK                         _______ _______ _______ _____ _____    ______ ____
ROOT
ATOM      1  F   UNL     1      -9.579 -36.557  -4.763  0.00  0.00    +0.000 F 
ATOM      2  O   UNL     1      -7.587 -31.762  -3.170  0.00  0.00    +0.000 OA
ATOM      3  O   UNL     1     -10.975 -34.854  -2.987  0.00  0.00    +0.000 OA
ATOM      4  N   UNL     1      -7.242 -33.849  -4.230  0.00  0.00    +0.000 N 
ATOM      5  N   UNL     1      -9.212 -33.374  -3.040  0.00  0.00    +0.000 N 
ATOM      6  C   UNL     1      -7.951 -32.894  -3.465  0.00  0.00    +0.000 C 
ATOM      7  C   UNL     1      -7.843 -35.037  -4.444  0.00  0.00    +0.000 C 
ATOM      8  C   UNL     1      -8.972 -35.559  -4.101  0.00  0.00    +0.000 C 
ATOM      9  C   UNL     1      -9.826 -34.600  -3.328  0.00  0.00    +0.000 C 
ATOM     10  H   UNL     1      -9.773 -32.712  -2.523  0.00  0.00    +0.000 HD
ENDROOT
BRANCH   4  12
ATOM     11  O   UNL     1      -5.781 -32.776  -5.845  0.00  0.00    +0.000 OA
ATOM     12  C   UNL     1      -6.003 -33.630  -4.758  0.00  0.00    +0.000 C 
ATOM     13  C   UNL     1      -4.753 -34.181  -4.364  0.00  0.00    +0.000 C 
ATOM     14  C   UNL     1      -3.446 -33.830  -5.077  0.00  0.00    +0.000 C 
ATOM     15  C   UNL     1      -4.461 -33.000  -5.862  0.00  0.00    +0.000 C 
ENDBRANCH   4  12
TORSDOF 1
ENDMDL
MODEL 6
REMARK VINA RESULT:      -3.8     18.749     19.313
REMARK  Name = 5386_Tegafur.pdbqt.pdb
REMARK  1 active torsions:
REMARK  status: ('A' for Active; 'I' for Inactive)
REMARK    1  A    between atoms: N_4  and  C_12
REMARK                            x       y       z     vdW  Elec       q    Type
REMARK                         _______ _______ _______ _____ _____    ______ ____
ROOT
ATOM      1  F   UNL     1      -0.496 -19.604 -16.367  0.00  0.00    +0.000 F 
ATOM      2  O   UNL     1      -3.567 -16.294 -13.347  0.00  0.00    +0.000 OA
ATOM      3  O   UNL     1       0.608 -17.878 -14.417  0.00  0.00    +0.000 OA
ATOM      4  N   UNL     1      -3.374 -17.747 -15.205  0.00  0.00    +0.000 N 
ATOM      5  N   UNL     1      -1.495 -17.050 -13.977  0.00  0.00    +0.000 N 
ATOM      6  C   UNL     1      -2.900 -16.972 -14.121  0.00  0.00    +0.000 C 
ATOM      7  C   UNL     1      -2.457 -18.430 -15.921  0.00  0.00    +0.000 C 
ATOM      8  C   UNL     1      -1.175 -18.558 -15.869  0.00  0.00    +0.000 C 
ATOM      9  C   UNL     1      -0.579 -17.814 -14.712  0.00  0.00    +0.000 C 
ATOM     10  H   UNL     1      -1.114 -16.543 -13.191  0.00  0.00    +0.000 HD
ENDROOT
BRANCH   4  12
ATOM     11  O   UNL     1      -5.410 -19.039 -15.476  0.00  0.00    +0.000 OA
ATOM     12  C   UNL     1      -4.690 -17.841 -15.553  0.00  0.00    +0.000 C 
ATOM     13  C   UNL     1      -5.560 -16.830 -16.043  0.00  0.00    +0.000 C 
ATOM     14  C   UNL     1      -7.021 -17.112 -16.395  0.00  0.00    +0.000 C 
ATOM     15  C   UNL     1      -6.542 -18.487 -15.932  0.00  0.00    +0.000 C 
ENDBRANCH   4  12
TORSDOF 1
ENDMDL
MODEL 7
REMARK VINA RESULT:      -3.7      2.182      2.410
REMARK  Name = 5386_Tegafur.pdbqt.pdb
REMARK  1 active torsions:
REMARK  status: ('A' for Active; 'I' for Inactive)
REMARK    1  A    between atoms: N_4  and  C_12
REMARK                            x       y       z     vdW  Elec       q    Type
REMARK                         _______ _______ _______ _____ _____    ______ ____
ROOT
ATOM      1  F   UNL     1      -4.890 -37.021  -3.325  0.00  0.00    +0.000 F 
ATOM      2  O   UNL     1      -7.173 -32.206  -4.375  0.00  0.00    +0.000 OA
ATOM      3  O   UNL     1      -6.507 -35.670  -1.437  0.00  0.00    +0.000 OA
ATOM      4  N   UNL     1      -5.624 -33.889  -4.978  0.00  0.00    +0.000 N 
ATOM      5  N   UNL     1      -6.740 -33.916  -2.910  0.00  0.00    +0.000 N 
ATOM      6  C   UNL     1      -6.554 -33.236  -4.137  0.00  0.00    +0.000 C 
ATOM      7  C   UNL     1      -5.067 -35.027  -4.516  0.00  0.00    +0.000 C 
ATOM      8  C   UNL     1      -5.170 -35.711  -3.428  0.00  0.00    +0.000 C 
ATOM      9  C   UNL     1      -6.180 -35.128  -2.486  0.00  0.00    +0.000 C 
ATOM     10  H   UNL     1      -7.425 -33.507  -2.292  0.00  0.00    +0.000 HD
ENDROOT
BRANCH   4  12
ATOM     11  O   UNL     1      -5.994 -33.753  -7.373  0.00  0.00    +0.000 OA
ATOM     12  C   UNL     1      -5.271 -33.436  -6.217  0.00  0.00    +0.000 C 
ATOM     13  C   UNL     1      -4.174 -32.614  -6.589  0.00  0.00    +0.000 C 
ATOM     14  C   UNL     1      -3.919 -32.202  -8.040  0.00  0.00    +0.000 C 
ATOM     15  C   UNL     1      -5.178 -33.056  -8.176  0.00  0.00    +0.000 C 
ENDBRANCH   4  12
TORSDOF 1
ENDMDL
MODEL 8
REMARK VINA RESULT:      -3.7     17.174     18.143
REMARK  Name = 5386_Tegafur.pdbqt.pdb
REMARK  1 active torsions:
REMARK  status: ('A' for Active; 'I' for Inactive)
REMARK    1  A    between atoms: N_4  and  C_12
REMARK                            x       y       z     vdW  Elec       q    Type
REMARK                         _______ _______ _______ _____ _____    ______ ____
ROOT
ATOM      1  F   UNL     1       1.722 -21.298 -12.581  0.00  0.00    +0.000 F 
ATOM      2  O   UNL     1      -0.947 -16.682 -13.616  0.00  0.00    +0.000 OA
ATOM      3  O   UNL     1       1.915 -19.030 -10.901  0.00  0.00    +0.000 OA
ATOM      4  N   UNL     1      -0.219 -18.810 -14.349  0.00  0.00    +0.000 N 
ATOM      5  N   UNL     1       0.547 -17.864 -12.339  0.00  0.00    +0.000 N 
ATOM      6  C   UNL     1      -0.278 -17.699 -13.477  0.00  0.00    +0.000 C 
ATOM      7  C   UNL     1       0.581 -19.835 -13.989  0.00  0.00    +0.000 C 
ATOM      8  C   UNL     1       1.360 -20.071 -12.989  0.00  0.00    +0.000 C 
ATOM      9  C   UNL     1       1.326 -18.969 -11.973  0.00  0.00    +0.000 C 
ATOM     10  H   UNL     1       0.508 -17.111 -11.667  0.00  0.00    +0.000 HD
ENDROOT
BRANCH   4  12
ATOM     11  O   UNL     1      -0.710 -18.038 -16.597  0.00  0.00    +0.000 OA
ATOM     12  C   UNL     1      -0.923 -18.899 -15.515  0.00  0.00    +0.000 C 
ATOM     13  C   UNL     1      -1.958 -19.807 -15.867  0.00  0.00    +0.000 C 
ATOM     14  C   UNL     1      -2.653 -19.763 -17.229  0.00  0.00    +0.000 C 
ATOM     15  C   UNL     1      -1.654 -18.614 -17.352  0.00  0.00    +0.000 C 
ENDBRANCH   4  12
TORSDOF 1
ENDMDL
MODEL 9
REMARK VINA RESULT:      -3.7     12.739     13.685
REMARK  Name = 5386_Tegafur.pdbqt.pdb
REMARK  1 active torsions:
REMARK  status: ('A' for Active; 'I' for Inactive)
REMARK    1  A    between atoms: N_4  and  C_12
REMARK                            x       y       z     vdW  Elec       q    Type
REMARK                         _______ _______ _______ _____ _____    ______ ____
ROOT
ATOM      1  F   UNL     1      -2.530 -30.229   8.641  0.00  0.00    +0.000 F 
ATOM      2  O   UNL     1      -5.021 -34.673   6.758  0.00  0.00    +0.000 OA
ATOM      3  O   UNL     1      -1.145 -32.648   8.157  0.00  0.00    +0.000 OA
ATOM      4  N   UNL     1      -5.176 -32.500   7.681  0.00  0.00    +0.000 N 
ATOM      5  N   UNL     1      -3.129 -33.646   7.549  0.00  0.00    +0.000 N 
ATOM      6  C   UNL     1      -4.518 -33.687   7.284  0.00  0.00    +0.000 C 
ATOM      7  C   UNL     1      -4.418 -31.530   8.232  0.00  0.00    +0.000 C 
ATOM      8  C   UNL     1      -3.165 -31.405   8.512  0.00  0.00    +0.000 C 
ATOM      9  C   UNL     1      -2.367 -32.596   8.077  0.00  0.00    +0.000 C 
ATOM     10  H   UNL     1      -2.609 -34.458   7.246  0.00  0.00    +0.000 HD
ENDROOT
BRANCH   4  12
ATOM     11  O   UNL     1      -7.455 -32.663   8.501  0.00  0.00    +0.000 OA
ATOM     12  C   UNL     1      -6.516 -32.288   7.533  0.00  0.00    +0.000 C 
ATOM     13  C   UNL     1      -7.212 -31.694   6.446  0.00  0.00    +0.000 C 
ATOM     14  C   UNL     1      -8.734 -31.539   6.439  0.00  0.00    +0.000 C 
ATOM     15  C   UNL     1      -8.496 -32.215   7.788  0.00  0.00    +0.000 C 
ENDBRANCH   4  12
TORSDOF 1
ENDMDL
