MODEL 1
REMARK VINA RESULT:      -5.0      0.000      0.000
REMARK  Name = 5470187_Zerumbone.pdbqt.pdb
REMARK  0 active torsions:
REMARK  status: ('A' for Active; 'I' for Inactive)
REMARK                            x       y       z     vdW  Elec       q    Type
REMARK                         _______ _______ _______ _____ _____    ______ ____
ROOT
ATOM      1  O   UNL     1      -3.437 -34.013 -10.095  0.00  0.00    +0.000 OA
ATOM      2  C   UNL     1      -2.122 -38.122  -7.800  0.00  0.00    +0.000 C 
ATOM      3  C   UNL     1      -1.976 -38.015  -6.329  0.00  0.00    +0.000 C 
ATOM      4  C   UNL     1      -3.217 -39.159  -8.150  0.00  0.00    +0.000 C 
ATOM      5  C   UNL     1      -0.764 -38.522  -8.429  0.00  0.00    +0.000 C 
ATOM      6  C   UNL     1      -2.527 -36.764  -8.287  0.00  0.00    +0.000 C 
ATOM      7  C   UNL     1      -1.937 -37.496  -4.880  0.00  0.00    +0.000 C 
ATOM      8  C   UNL     1      -2.028 -36.692  -3.863  0.00  0.00    +0.000 C 
ATOM      9  C   UNL     1      -2.376 -35.381  -4.277  0.00  0.00    +0.000 C 
ATOM     10  C   UNL     1      -2.758 -34.268  -5.256  0.00  0.00    +0.000 C 
ATOM     11  C   UNL     1      -2.845 -35.641  -8.591  0.00  0.00    +0.000 C 
ATOM     12  C   UNL     1      -2.470 -37.203  -2.533  0.00  0.00    +0.000 C 
ATOM     13  C   UNL     1      -3.091 -33.587  -6.587  0.00  0.00    +0.000 C 
ATOM     14  C   UNL     1      -3.334 -33.235  -7.816  0.00  0.00    +0.000 C 
ATOM     15  C   UNL     1      -3.225 -34.264  -8.914  0.00  0.00    +0.000 C 
ATOM     16  C   UNL     1      -3.703 -31.792  -8.057  0.00  0.00    +0.000 C 
ENDROOT
TORSDOF 0
ENDMDL
MODEL 2
REMARK VINA RESULT:      -4.8     19.676     22.394
REMARK  Name = 5470187_Zerumbone.pdbqt.pdb
REMARK  0 active torsions:
REMARK  status: ('A' for Active; 'I' for Inactive)
REMARK                            x       y       z     vdW  Elec       q    Type
REMARK                         _______ _______ _______ _____ _____    ______ ____
ROOT
ATOM      1  O   UNL     1      -6.777 -13.895   3.183  0.00  0.00    +0.000 OA
ATOM      2  C   UNL     1      -4.578 -17.454   0.658  0.00  0.00    +0.000 C 
ATOM      3  C   UNL     1      -4.168 -17.100  -0.722  0.00  0.00    +0.000 C 
ATOM      4  C   UNL     1      -3.337 -17.848   1.495  0.00  0.00    +0.000 C 
ATOM      5  C   UNL     1      -5.603 -18.614   0.613  0.00  0.00    +0.000 C 
ATOM      6  C   UNL     1      -5.220 -16.230   1.237  0.00  0.00    +0.000 C 
ATOM      7  C   UNL     1      -3.915 -16.355  -2.045  0.00  0.00    +0.000 C 
ATOM      8  C   UNL     1      -3.894 -15.405  -2.932  0.00  0.00    +0.000 C 
ATOM      9  C   UNL     1      -4.523 -14.232  -2.442  0.00  0.00    +0.000 C 
ATOM     10  C   UNL     1      -5.240 -13.338  -1.428  0.00  0.00    +0.000 C 
ATOM     11  C   UNL     1      -5.725 -15.204   1.621  0.00  0.00    +0.000 C 
ATOM     12  C   UNL     1      -2.764 -15.303  -3.903  0.00  0.00    +0.000 C 
ATOM     13  C   UNL     1      -5.892 -12.908  -0.111  0.00  0.00    +0.000 C 
ATOM     14  C   UNL     1      -6.389 -12.775   1.084  0.00  0.00    +0.000 C 
ATOM     15  C   UNL     1      -6.332 -13.939   2.042  0.00  0.00    +0.000 C 
ATOM     16  C   UNL     1      -7.009 -11.442   1.426  0.00  0.00    +0.000 C 
ENDROOT
TORSDOF 0
ENDMDL
MODEL 3
REMARK VINA RESULT:      -4.7     16.998     19.089
REMARK  Name = 5470187_Zerumbone.pdbqt.pdb
REMARK  0 active torsions:
REMARK  status: ('A' for Active; 'I' for Inactive)
REMARK                            x       y       z     vdW  Elec       q    Type
REMARK                         _______ _______ _______ _____ _____    ______ ____
ROOT
ATOM      1  O   UNL     1       3.325 -20.608  -0.274  0.00  0.00    +0.000 OA
ATOM      2  C   UNL     1      -1.350 -19.654   0.779  0.00  0.00    +0.000 C 
ATOM      3  C   UNL     1      -1.982 -18.584  -0.028  0.00  0.00    +0.000 C 
ATOM      4  C   UNL     1      -2.102 -20.990   0.569  0.00  0.00    +0.000 C 
ATOM      5  C   UNL     1      -1.355 -19.248   2.274  0.00  0.00    +0.000 C 
ATOM      6  C   UNL     1       0.061 -19.777   0.291  0.00  0.00    +0.000 C 
ATOM      7  C   UNL     1      -2.249 -17.460  -1.046  0.00  0.00    +0.000 C 
ATOM      8  C   UNL     1      -2.056 -16.602  -2.003  0.00  0.00    +0.000 C 
ATOM      9  C   UNL     1      -0.720 -16.655  -2.477  0.00  0.00    +0.000 C 
ATOM     10  C   UNL     1       0.722 -17.158  -2.569  0.00  0.00    +0.000 C 
ATOM     11  C   UNL     1       1.181 -19.804  -0.159  0.00  0.00    +0.000 C 
ATOM     12  C   UNL     1      -3.169 -16.241  -2.930  0.00  0.00    +0.000 C 
ATOM     13  C   UNL     1       1.966 -17.998  -2.262  0.00  0.00    +0.000 C 
ATOM     14  C   UNL     1       2.874 -18.825  -1.832  0.00  0.00    +0.000 C 
ATOM     15  C   UNL     1       2.527 -19.798  -0.734  0.00  0.00    +0.000 C 
ATOM     16  C   UNL     1       4.239 -18.738  -2.471  0.00  0.00    +0.000 C 
ENDROOT
TORSDOF 0
ENDMDL
MODEL 4
REMARK VINA RESULT:      -4.7     21.448     23.867
REMARK  Name = 5470187_Zerumbone.pdbqt.pdb
REMARK  0 active torsions:
REMARK  status: ('A' for Active; 'I' for Inactive)
REMARK                            x       y       z     vdW  Elec       q    Type
REMARK                         _______ _______ _______ _____ _____    ______ ____
ROOT
ATOM      1  O   UNL     1     -19.377 -20.999  -4.525  0.00  0.00    +0.000 OA
ATOM      2  C   UNL     1     -15.903 -18.114  -2.661  0.00  0.00    +0.000 C 
ATOM      3  C   UNL     1     -15.620 -16.876  -3.426  0.00  0.00    +0.000 C 
ATOM      4  C   UNL     1     -16.384 -17.756  -1.234  0.00  0.00    +0.000 C 
ATOM      5  C   UNL     1     -14.629 -18.993  -2.608  0.00  0.00    +0.000 C 
ATOM      6  C   UNL     1     -16.987 -18.833  -3.403  0.00  0.00    +0.000 C 
ATOM      7  C   UNL     1     -15.634 -15.750  -4.475  0.00  0.00    +0.000 C 
ATOM      8  C   UNL     1     -15.962 -15.056  -5.524  0.00  0.00    +0.000 C 
ATOM      9  C   UNL     1     -16.964 -15.714  -6.281  0.00  0.00    +0.000 C 
ATOM     10  C   UNL     1     -17.978 -16.808  -6.625  0.00  0.00    +0.000 C 
ATOM     11  C   UNL     1     -17.855 -19.347  -4.065  0.00  0.00    +0.000 C 
ATOM     12  C   UNL     1     -15.901 -13.564  -5.492  0.00  0.00    +0.000 C 
ATOM     13  C   UNL     1     -18.789 -18.100  -6.489  0.00  0.00    +0.000 C 
ATOM     14  C   UNL     1     -19.345 -19.229  -6.161  0.00  0.00    +0.000 C 
ATOM     15  C   UNL     1     -18.903 -19.934  -4.903  0.00  0.00    +0.000 C 
ATOM     16  C   UNL     1     -20.406 -19.767  -7.091  0.00  0.00    +0.000 C 
ENDROOT
TORSDOF 0
ENDMDL
MODEL 5
REMARK VINA RESULT:      -4.5     10.054     11.462
REMARK  Name = 5470187_Zerumbone.pdbqt.pdb
REMARK  0 active torsions:
REMARK  status: ('A' for Active; 'I' for Inactive)
REMARK                            x       y       z     vdW  Elec       q    Type
REMARK                         _______ _______ _______ _____ _____    ______ ____
ROOT
ATOM      1  O   UNL     1       8.480 -26.672  -7.732  0.00  0.00    +0.000 OA
ATOM      2  C   UNL     1       5.636 -30.195  -5.896  0.00  0.00    +0.000 C 
ATOM      3  C   UNL     1       4.539 -30.658  -6.779  0.00  0.00    +0.000 C 
ATOM      4  C   UNL     1       6.590 -31.371  -5.576  0.00  0.00    +0.000 C 
ATOM      5  C   UNL     1       5.039 -29.600  -4.596  0.00  0.00    +0.000 C 
ATOM      6  C   UNL     1       6.370 -29.130  -6.652  0.00  0.00    +0.000 C 
ATOM      7  C   UNL     1       3.568 -30.842  -7.960  0.00  0.00    +0.000 C 
ATOM      8  C   UNL     1       3.008 -30.685  -9.122  0.00  0.00    +0.000 C 
ATOM      9  C   UNL     1       3.648 -29.660  -9.865  0.00  0.00    +0.000 C 
ATOM     10  C   UNL     1       4.679 -28.569 -10.159  0.00  0.00    +0.000 C 
ATOM     11  C   UNL     1       6.898 -28.282  -7.329  0.00  0.00    +0.000 C 
ATOM     12  C   UNL     1       2.387 -31.848  -9.824  0.00  0.00    +0.000 C 
ATOM     13  C   UNL     1       5.880 -27.642  -9.946  0.00  0.00    +0.000 C 
ATOM     14  C   UNL     1       6.919 -26.971  -9.544  0.00  0.00    +0.000 C 
ATOM     15  C   UNL     1       7.503 -27.259  -8.183  0.00  0.00    +0.000 C 
ATOM     16  C   UNL     1       7.468 -25.925 -10.484  0.00  0.00    +0.000 C 
ENDROOT
TORSDOF 0
ENDMDL
MODEL 6
REMARK VINA RESULT:      -4.5     17.212     19.168
REMARK  Name = 5470187_Zerumbone.pdbqt.pdb
REMARK  0 active torsions:
REMARK  status: ('A' for Active; 'I' for Inactive)
REMARK                            x       y       z     vdW  Elec       q    Type
REMARK                         _______ _______ _______ _____ _____    ______ ____
ROOT
ATOM      1  O   UNL     1       1.409 -15.075  -4.272  0.00  0.00    +0.000 OA
ATOM      2  C   UNL     1       2.878 -18.886  -1.590  0.00  0.00    +0.000 C 
ATOM      3  C   UNL     1       1.839 -19.503  -0.732  0.00  0.00    +0.000 C 
ATOM      4  C   UNL     1       3.413 -19.924  -2.605  0.00  0.00    +0.000 C 
ATOM      5  C   UNL     1       4.026 -18.341  -0.703  0.00  0.00    +0.000 C 
ATOM      6  C   UNL     1       2.214 -17.755  -2.314  0.00  0.00    +0.000 C 
ATOM      7  C   UNL     1       0.517 -19.836  -0.017  0.00  0.00    +0.000 C 
ATOM      8  C   UNL     1      -0.731 -19.779   0.341  0.00  0.00    +0.000 C 
ATOM      9  C   UNL     1      -1.397 -18.699  -0.294  0.00  0.00    +0.000 C 
ATOM     10  C   UNL     1      -1.555 -17.493  -1.222  0.00  0.00    +0.000 C 
ATOM     11  C   UNL     1       1.603 -16.863  -2.849  0.00  0.00    +0.000 C 
ATOM     12  C   UNL     1      -1.477 -21.026   0.683  0.00  0.00    +0.000 C 
ATOM     13  C   UNL     1      -1.179 -16.418  -2.246  0.00  0.00    +0.000 C 
ATOM     14  C   UNL     1      -0.632 -15.612  -3.108  0.00  0.00    +0.000 C 
ATOM     15  C   UNL     1       0.821 -15.791  -3.470  0.00  0.00    +0.000 C 
ATOM     16  C   UNL     1      -1.509 -14.527  -3.686  0.00  0.00    +0.000 C 
ENDROOT
TORSDOF 0
ENDMDL
MODEL 7
REMARK VINA RESULT:      -4.4     20.971     23.151
REMARK  Name = 5470187_Zerumbone.pdbqt.pdb
REMARK  0 active torsions:
REMARK  status: ('A' for Active; 'I' for Inactive)
REMARK                            x       y       z     vdW  Elec       q    Type
REMARK                         _______ _______ _______ _____ _____    ______ ____
ROOT
ATOM      1  O   UNL     1     -11.696 -17.659   5.273  0.00  0.00    +0.000 OA
ATOM      2  C   UNL     1     -12.742 -15.327   1.108  0.00  0.00    +0.000 C 
ATOM      3  C   UNL     1     -13.089 -16.195  -0.042  0.00  0.00    +0.000 C 
ATOM      4  C   UNL     1     -13.928 -14.393   1.444  0.00  0.00    +0.000 C 
ATOM      5  C   UNL     1     -11.472 -14.505   0.772  0.00  0.00    +0.000 C 
ATOM      6  C   UNL     1     -12.465 -16.241   2.262  0.00  0.00    +0.000 C 
ATOM      7  C   UNL     1     -13.382 -17.407  -0.945  0.00  0.00    +0.000 C 
ATOM      8  C   UNL     1     -13.541 -18.637  -1.332  0.00  0.00    +0.000 C 
ATOM      9  C   UNL     1     -13.256 -19.546  -0.281  0.00  0.00    +0.000 C 
ATOM     10  C   UNL     1     -12.871 -19.987   1.133  0.00  0.00    +0.000 C 
ATOM     11  C   UNL     1     -12.255 -17.049   3.134  0.00  0.00    +0.000 C 
ATOM     12  C   UNL     1     -14.564 -18.978  -2.365  0.00  0.00    +0.000 C 
ATOM     13  C   UNL     1     -12.468 -19.873   2.606  0.00  0.00    +0.000 C 
ATOM     14  C   UNL     1     -12.134 -19.528   3.816  0.00  0.00    +0.000 C 
ATOM     15  C   UNL     1     -12.006 -18.065   4.159  0.00  0.00    +0.000 C 
ATOM     16  C   UNL     1     -11.882 -20.643   4.802  0.00  0.00    +0.000 C 
ENDROOT
TORSDOF 0
ENDMDL
MODEL 8
REMARK VINA RESULT:      -4.3     18.984     22.490
REMARK  Name = 5470187_Zerumbone.pdbqt.pdb
REMARK  0 active torsions:
REMARK  status: ('A' for Active; 'I' for Inactive)
REMARK                            x       y       z     vdW  Elec       q    Type
REMARK                         _______ _______ _______ _____ _____    ______ ____
ROOT
ATOM      1  O   UNL     1      -7.485 -12.276 -14.761  0.00  0.00    +0.000 OA
ATOM      2  C   UNL     1      -8.388 -16.553 -16.945  0.00  0.00    +0.000 C 
ATOM      3  C   UNL     1      -7.314 -17.569 -16.832  0.00  0.00    +0.000 C 
ATOM      4  C   UNL     1      -9.688 -17.082 -16.295  0.00  0.00    +0.000 C 
ATOM      5  C   UNL     1      -8.619 -16.207 -18.437  0.00  0.00    +0.000 C 
ATOM      6  C   UNL     1      -7.903 -15.340 -16.211  0.00  0.00    +0.000 C 
ATOM      7  C   UNL     1      -6.007 -18.309 -16.493  0.00  0.00    +0.000 C 
ATOM      8  C   UNL     1      -4.826 -18.551 -16.007  0.00  0.00    +0.000 C 
ATOM      9  C   UNL     1      -4.309 -17.417 -15.330  0.00  0.00    +0.000 C 
ATOM     10  C   UNL     1      -4.304 -15.994 -14.767  0.00  0.00    +0.000 C 
ATOM     11  C   UNL     1      -7.434 -14.408 -15.605  0.00  0.00    +0.000 C 
ATOM     12  C   UNL     1      -4.463 -19.927 -15.556  0.00  0.00    +0.000 C 
ATOM     13  C   UNL     1      -4.807 -14.586 -14.437  0.00  0.00    +0.000 C 
ATOM     14  C   UNL     1      -5.441 -13.461 -14.279  0.00  0.00    +0.000 C 
ATOM     15  C   UNL     1      -6.822 -13.302 -14.865  0.00  0.00    +0.000 C 
ATOM     16  C   UNL     1      -4.728 -12.371 -13.516  0.00  0.00    +0.000 C 
ENDROOT
TORSDOF 0
ENDMDL
MODEL 9
REMARK VINA RESULT:      -4.3     10.162     12.517
REMARK  Name = 5470187_Zerumbone.pdbqt.pdb
REMARK  0 active torsions:
REMARK  status: ('A' for Active; 'I' for Inactive)
REMARK                            x       y       z     vdW  Elec       q    Type
REMARK                         _______ _______ _______ _____ _____    ______ ____
ROOT
ATOM      1  O   UNL     1      -6.904 -37.081   1.804  0.00  0.00    +0.000 OA
ATOM      2  C   UNL     1      -9.144 -32.776   1.231  0.00  0.00    +0.000 C 
ATOM      3  C   UNL     1      -9.136 -31.888   2.418  0.00  0.00    +0.000 C 
ATOM      4  C   UNL     1      -8.420 -32.088   0.049  0.00  0.00    +0.000 C 
ATOM      5  C   UNL     1     -10.605 -33.125   0.854  0.00  0.00    +0.000 C 
ATOM      6  C   UNL     1      -8.410 -34.021   1.628  0.00  0.00    +0.000 C 
ATOM      7  C   UNL     1      -8.911 -31.295   3.821  0.00  0.00    +0.000 C 
ATOM      8  C   UNL     1      -8.515 -31.179   5.054  0.00  0.00    +0.000 C 
ATOM      9  C   UNL     1      -7.843 -32.350   5.488  0.00  0.00    +0.000 C 
ATOM     10  C   UNL     1      -7.241 -33.752   5.374  0.00  0.00    +0.000 C 
ATOM     11  C   UNL     1      -7.812 -34.988   2.032  0.00  0.00    +0.000 C 
ATOM     12  C   UNL     1      -8.132 -29.844   5.601  0.00  0.00    +0.000 C 
ATOM     13  C   UNL     1      -6.835 -35.086   4.741  0.00  0.00    +0.000 C 
ATOM     14  C   UNL     1      -6.601 -36.128   3.997  0.00  0.00    +0.000 C 
ATOM     15  C   UNL     1      -7.084 -36.140   2.568  0.00  0.00    +0.000 C 
ATOM     16  C   UNL     1      -5.857 -37.276   4.637  0.00  0.00    +0.000 C 
ENDROOT
TORSDOF 0
ENDMDL
