MODEL 1
REMARK VINA RESULT:      -5.1      0.000      0.000
REMARK  Name = 5azacytidine.pdbqt.pdb
REMARK  5 active torsions:
REMARK  status: ('A' for Active; 'I' for Inactive)
REMARK    1  A    between atoms: C2*_2  and  O2*_16
REMARK    2  A    between atoms: C3*_3  and  O3*_21
REMARK    3  A    between atoms: C4*_4  and  C5*_18
REMARK    4  A    between atoms: C1*_5  and  N_6
REMARK    5  A    between atoms: C5*_18  and  O5*_19
REMARK                            x       y       z     vdW  Elec       q    Type
REMARK                         _______ _______ _______ _____ _____    ______ ____
ROOT
ATOM      1  O4* UNL     1      -2.242 -34.023  -8.148  0.00  0.00    +0.000 OA
ATOM      2  C2* UNL     1      -3.866 -32.967  -6.896  0.00  0.00    +0.000 A 
ATOM      3  C3* UNL     1      -3.543 -32.132  -8.013  0.00  0.00    +0.000 A 
ATOM      4  C4* UNL     1      -2.540 -32.807  -8.786  0.00  0.00    +0.000 A 
ATOM      5  C1* UNL     1      -3.027 -34.137  -6.981  0.00  0.00    +0.000 A 
ENDROOT
BRANCH   5   6
ATOM      6  N   UNL     1      -2.887 -35.198  -6.137  0.00  0.00    +0.000 N 
ATOM      7  C   UNL     1      -2.478 -35.172  -4.809  0.00  0.00    +0.000 A 
ATOM      8  O   UNL     1      -2.147 -34.145  -4.221  0.00  0.00    +0.000 OA
ATOM      9  N   UNL     1      -2.448 -36.413  -4.178  0.00  0.00    +0.000 NA
ATOM     10  C   UNL     1      -2.785 -37.498  -4.827  0.00  0.00    +0.000 A 
ATOM     11  N   UNL     1      -3.163 -37.522  -6.159  0.00  0.00    +0.000 NA
ATOM     12  C   UNL     1      -3.161 -36.429  -6.565  0.00  0.00    +0.000 A 
ATOM     13  N   UNL     1      -2.743 -38.684  -4.169  0.00  0.00    +0.000 N 
ATOM     14  H   UNL     1      -2.609 -39.490  -4.766  0.00  0.00    +0.000 HD
ATOM     15  H   UNL     1      -2.163 -38.667  -3.339  0.00  0.00    +0.000 HD
ENDBRANCH   5   6
BRANCH   2  16
ATOM     16  O2* UNL     1      -4.310 -32.400  -5.733  0.00  0.00    +0.000 OA
ATOM     17  H2* UNL     1      -5.261 -32.589  -5.573  0.00  0.00    +0.000 HD
ENDBRANCH   2  16
BRANCH   3  18
ATOM     18  O3* UNL     1      -3.595 -30.769  -7.915  0.00  0.00    +0.000 OA
ATOM     19  H3* UNL     1      -2.694 -30.399  -7.964  0.00  0.00    +0.000 HD
ENDBRANCH   3  18
BRANCH   4  20
ATOM     20  C5* UNL     1      -1.728 -32.268  -9.802  0.00  0.00    +0.000 C 
BRANCH  20  21
ATOM     21  O5* UNL     1      -0.954 -31.765 -10.759  0.00  0.00    +0.000 OA
ATOM     22  H5* UNL     1      -0.017 -31.900 -10.534  0.00  0.00    +0.000 HD
ENDBRANCH  20  21
ENDBRANCH   4  20
TORSDOF 5
ENDMDL
MODEL 2
REMARK VINA RESULT:      -5.1      2.905      5.512
REMARK  Name = 5azacytidine.pdbqt.pdb
REMARK  5 active torsions:
REMARK  status: ('A' for Active; 'I' for Inactive)
REMARK    1  A    between atoms: C2*_2  and  O2*_16
REMARK    2  A    between atoms: C3*_3  and  O3*_21
REMARK    3  A    between atoms: C4*_4  and  C5*_18
REMARK    4  A    between atoms: C1*_5  and  N_6
REMARK    5  A    between atoms: C5*_18  and  O5*_19
REMARK                            x       y       z     vdW  Elec       q    Type
REMARK                         _______ _______ _______ _____ _____    ______ ____
ROOT
ATOM      1  O4* UNL     1      -5.350 -34.004  -6.332  0.00  0.00    +0.000 OA
ATOM      2  C2* UNL     1      -3.451 -34.069  -5.024  0.00  0.00    +0.000 A 
ATOM      3  C3* UNL     1      -4.581 -34.353  -4.193  0.00  0.00    +0.000 A 
ATOM      4  C4* UNL     1      -5.752 -34.320  -5.023  0.00  0.00    +0.000 A 
ATOM      5  C1* UNL     1      -3.950 -33.830  -6.357  0.00  0.00    +0.000 A 
ENDROOT
BRANCH   5   6
ATOM      6  N   UNL     1      -3.305 -33.454  -7.497  0.00  0.00    +0.000 N 
ATOM      7  C   UNL     1      -3.265 -32.185  -8.064  0.00  0.00    +0.000 A 
ATOM      8  O   UNL     1      -3.860 -31.215  -7.601  0.00  0.00    +0.000 OA
ATOM      9  N   UNL     1      -2.506 -32.084  -9.227  0.00  0.00    +0.000 NA
ATOM     10  C   UNL     1      -1.895 -33.134  -9.716  0.00  0.00    +0.000 A 
ATOM     11  N   UNL     1      -1.963 -34.401  -9.163  0.00  0.00    +0.000 NA
ATOM     12  C   UNL     1      -2.612 -34.350  -8.196  0.00  0.00    +0.000 A 
ATOM     13  N   UNL     1      -1.164 -32.986 -10.850  0.00  0.00    +0.000 N 
ATOM     14  H   UNL     1      -1.062 -33.831 -11.396  0.00  0.00    +0.000 HD
ATOM     15  H   UNL     1      -1.407 -32.160 -11.384  0.00  0.00    +0.000 HD
ENDBRANCH   5   6
BRANCH   2  16
ATOM     16  O2* UNL     1      -2.343 -33.479  -4.482  0.00  0.00    +0.000 OA
ATOM     17  H2* UNL     1      -1.794 -33.032  -5.163  0.00  0.00    +0.000 HD
ENDBRANCH   2  16
BRANCH   3  18
ATOM     18  O3* UNL     1      -4.605 -33.974  -2.880  0.00  0.00    +0.000 OA
ATOM     19  H3* UNL     1      -4.654 -33.002  -2.817  0.00  0.00    +0.000 HD
ENDBRANCH   3  18
BRANCH   4  20
ATOM     20  C5* UNL     1      -7.097 -34.266  -4.612  0.00  0.00    +0.000 C 
BRANCH  20  21
ATOM     21  O5* UNL     1      -8.366 -34.207  -4.219  0.00  0.00    +0.000 OA
ATOM     22  H5* UNL     1      -8.509 -33.413  -3.676  0.00  0.00    +0.000 HD
ENDBRANCH  20  21
ENDBRANCH   4  20
TORSDOF 5
ENDMDL
MODEL 3
REMARK VINA RESULT:      -4.4     10.199     11.725
REMARK  Name = 5azacytidine.pdbqt.pdb
REMARK  5 active torsions:
REMARK  status: ('A' for Active; 'I' for Inactive)
REMARK    1  A    between atoms: C2*_2  and  O2*_16
REMARK    2  A    between atoms: C3*_3  and  O3*_21
REMARK    3  A    between atoms: C4*_4  and  C5*_18
REMARK    4  A    between atoms: C1*_5  and  N_6
REMARK    5  A    between atoms: C5*_18  and  O5*_19
REMARK                            x       y       z     vdW  Elec       q    Type
REMARK                         _______ _______ _______ _____ _____    ______ ____
ROOT
ATOM      1  O4* UNL     1       5.215 -32.389   1.700  0.00  0.00    +0.000 OA
ATOM      2  C2* UNL     1       3.083 -32.808   0.924  0.00  0.00    +0.000 A 
ATOM      3  C3* UNL     1       3.814 -32.133  -0.105  0.00  0.00    +0.000 A 
ATOM      4  C4* UNL     1       5.139 -31.890   0.389  0.00  0.00    +0.000 A 
ATOM      5  C1* UNL     1       3.966 -32.941   2.058  0.00  0.00    +0.000 A 
ENDROOT
BRANCH   5   6
ATOM      6  N   UNL     1       3.746 -33.440   3.307  0.00  0.00    +0.000 N 
ATOM      7  C   UNL     1       2.929 -34.508   3.657  0.00  0.00    +0.000 A 
ATOM      8  O   UNL     1       2.251 -35.138   2.848  0.00  0.00    +0.000 OA
ATOM      9  N   UNL     1       2.910 -34.816   5.014  0.00  0.00    +0.000 NA
ATOM     10  C   UNL     1       3.623 -34.119   5.864  0.00  0.00    +0.000 A 
ATOM     11  N   UNL     1       4.412 -33.038   5.513  0.00  0.00    +0.000 NA
ATOM     12  C   UNL     1       4.353 -32.893   4.358  0.00  0.00    +0.000 A 
ATOM     13  N   UNL     1       3.576 -34.459   7.177  0.00  0.00    +0.000 N 
ATOM     14  H   UNL     1       3.785 -33.700   7.813  0.00  0.00    +0.000 HD
ATOM     15  H   UNL     1       2.764 -35.011   7.424  0.00  0.00    +0.000 HD
ENDBRANCH   5   6
BRANCH   2  16
ATOM     16  O2* UNL     1       1.726 -32.661   0.999  0.00  0.00    +0.000 OA
ATOM     17  H2* UNL     1       1.467 -31.734   1.194  0.00  0.00    +0.000 HD
ENDBRANCH   2  16
BRANCH   3  18
ATOM     18  O3* UNL     1       3.189 -31.280  -0.971  0.00  0.00    +0.000 OA
ATOM     19  H3* UNL     1       3.101 -31.702  -1.846  0.00  0.00    +0.000 HD
ENDBRANCH   3  18
BRANCH   4  20
ATOM     20  C5* UNL     1       6.114 -31.028  -0.149  0.00  0.00    +0.000 C 
BRANCH  20  21
ATOM     21  O5* UNL     1       7.040 -30.222  -0.660  0.00  0.00    +0.000 OA
ATOM     22  H5* UNL     1       7.163 -30.414  -1.605  0.00  0.00    +0.000 HD
ENDBRANCH  20  21
ENDBRANCH   4  20
TORSDOF 5
ENDMDL
MODEL 4
REMARK VINA RESULT:      -4.3     10.285     12.566
REMARK  Name = 5azacytidine.pdbqt.pdb
REMARK  5 active torsions:
REMARK  status: ('A' for Active; 'I' for Inactive)
REMARK    1  A    between atoms: C2*_2  and  O2*_16
REMARK    2  A    between atoms: C3*_3  and  O3*_21
REMARK    3  A    between atoms: C4*_4  and  C5*_18
REMARK    4  A    between atoms: C1*_5  and  N_6
REMARK    5  A    between atoms: C5*_18  and  O5*_19
REMARK                            x       y       z     vdW  Elec       q    Type
REMARK                         _______ _______ _______ _____ _____    ______ ____
ROOT
ATOM      1  O4* UNL     1       4.246 -32.272   3.651  0.00  0.00    +0.000 OA
ATOM      2  C2* UNL     1       2.862 -33.882   2.750  0.00  0.00    +0.000 A 
ATOM      3  C3* UNL     1       3.240 -34.297   4.067  0.00  0.00    +0.000 A 
ATOM      4  C4* UNL     1       4.092 -33.281   4.616  0.00  0.00    +0.000 A 
ATOM      5  C1* UNL     1       3.518 -32.623   2.494  0.00  0.00    +0.000 A 
ENDROOT
BRANCH   5   6
ATOM      6  N   UNL     1       3.548 -31.843   1.376  0.00  0.00    +0.000 N 
ATOM      7  C   UNL     1       3.112 -30.530   1.251  0.00  0.00    +0.000 A 
ATOM      8  O   UNL     1       2.592 -29.897   2.168  0.00  0.00    +0.000 OA
ATOM      9  N   UNL     1       3.286 -29.969  -0.011  0.00  0.00    +0.000 NA
ATOM     10  C   UNL     1       3.824 -30.666  -0.980  0.00  0.00    +0.000 A 
ATOM     11  N   UNL     1       4.229 -31.984  -0.857  0.00  0.00    +0.000 NA
ATOM     12  C   UNL     1       4.044 -32.329   0.240  0.00  0.00    +0.000 A 
ATOM     13  N   UNL     1       3.977 -30.076  -2.192  0.00  0.00    +0.000 N 
ATOM     14  H   UNL     1       4.000 -30.720  -2.972  0.00  0.00    +0.000 HD
ATOM     15  H   UNL     1       3.385 -29.265  -2.326  0.00  0.00    +0.000 HD
ENDBRANCH   5   6
BRANCH   2  16
ATOM     16  O2* UNL     1       2.568 -34.822   1.802  0.00  0.00    +0.000 OA
ATOM     17  H2* UNL     1       2.087 -34.435   1.037  0.00  0.00    +0.000 HD
ENDBRANCH   2  16
BRANCH   3  18
ATOM     18  O3* UNL     1       3.390 -35.621   4.374  0.00  0.00    +0.000 OA
ATOM     19  H3* UNL     1       3.642 -35.717   5.311  0.00  0.00    +0.000 HD
ENDBRANCH   3  18
BRANCH   4  20
ATOM     20  C5* UNL     1       4.916 -33.372   5.754  0.00  0.00    +0.000 C 
BRANCH  20  21
ATOM     21  O5* UNL     1       5.699 -33.466   6.825  0.00  0.00    +0.000 OA
ATOM     22  H5* UNL     1       6.633 -33.406   6.560  0.00  0.00    +0.000 HD
ENDBRANCH  20  21
ENDBRANCH   4  20
TORSDOF 5
ENDMDL
MODEL 5
REMARK VINA RESULT:      -4.2     11.117     12.946
REMARK  Name = 5azacytidine.pdbqt.pdb
REMARK  5 active torsions:
REMARK  status: ('A' for Active; 'I' for Inactive)
REMARK    1  A    between atoms: C2*_2  and  O2*_16
REMARK    2  A    between atoms: C3*_3  and  O3*_21
REMARK    3  A    between atoms: C4*_4  and  C5*_18
REMARK    4  A    between atoms: C1*_5  and  N_6
REMARK    5  A    between atoms: C5*_18  and  O5*_19
REMARK                            x       y       z     vdW  Elec       q    Type
REMARK                         _______ _______ _______ _____ _____    ______ ____
ROOT
ATOM      1  O4* UNL     1       3.947 -31.991   2.968  0.00  0.00    +0.000 OA
ATOM      2  C2* UNL     1       2.990 -34.069   2.677  0.00  0.00    +0.000 A 
ATOM      3  C3* UNL     1       2.584 -33.229   1.591  0.00  0.00    +0.000 A 
ATOM      4  C4* UNL     1       3.195 -31.945   1.781  0.00  0.00    +0.000 A 
ATOM      5  C1* UNL     1       3.825 -33.273   3.544  0.00  0.00    +0.000 A 
ENDROOT
BRANCH   5   6
ATOM      6  N   UNL     1       4.406 -33.568   4.741  0.00  0.00    +0.000 N 
ATOM      7  C   UNL     1       3.778 -34.023   5.894  0.00  0.00    +0.000 A 
ATOM      8  O   UNL     1       2.564 -34.191   5.985  0.00  0.00    +0.000 OA
ATOM      9  N   UNL     1       4.628 -34.266   6.970  0.00  0.00    +0.000 NA
ATOM     10  C   UNL     1       5.916 -34.062   6.860  0.00  0.00    +0.000 A 
ATOM     11  N   UNL     1       6.532 -33.580   5.717  0.00  0.00    +0.000 NA
ATOM     12  C   UNL     1       5.722 -33.432   4.893  0.00  0.00    +0.000 A 
ATOM     13  N   UNL     1       6.705 -34.316   7.934  0.00  0.00    +0.000 N 
ATOM     14  H   UNL     1       7.568 -33.788   7.954  0.00  0.00    +0.000 HD
ATOM     15  H   UNL     1       6.199 -34.340   8.812  0.00  0.00    +0.000 HD
ENDBRANCH   5   6
BRANCH   2  16
ATOM     16  O2* UNL     1       2.174 -35.086   3.089  0.00  0.00    +0.000 OA
ATOM     17  H2* UNL     1       1.237 -34.800   3.158  0.00  0.00    +0.000 HD
ENDBRANCH   2  16
BRANCH   3  18
ATOM     18  O3* UNL     1       1.357 -33.375   1.007  0.00  0.00    +0.000 OA
ATOM     19  H3* UNL     1       1.297 -34.249   0.576  0.00  0.00    +0.000 HD
ENDBRANCH   3  18
BRANCH   4  20
ATOM     20  C5* UNL     1       2.877 -30.736   1.134  0.00  0.00    +0.000 C 
BRANCH  20  21
ATOM     21  O5* UNL     1       2.567 -29.596   0.524  0.00  0.00    +0.000 OA
ATOM     22  H5* UNL     1       2.362 -28.911   1.184  0.00  0.00    +0.000 HD
ENDBRANCH  20  21
ENDBRANCH   4  20
TORSDOF 5
ENDMDL
MODEL 6
REMARK VINA RESULT:      -4.1     10.582     13.154
REMARK  Name = 5azacytidine.pdbqt.pdb
REMARK  5 active torsions:
REMARK  status: ('A' for Active; 'I' for Inactive)
REMARK    1  A    between atoms: C2*_2  and  O2*_16
REMARK    2  A    between atoms: C3*_3  and  O3*_21
REMARK    3  A    between atoms: C4*_4  and  C5*_18
REMARK    4  A    between atoms: C1*_5  and  N_6
REMARK    5  A    between atoms: C5*_18  and  O5*_19
REMARK                            x       y       z     vdW  Elec       q    Type
REMARK                         _______ _______ _______ _____ _____    ______ ____
ROOT
ATOM      1  O4* UNL     1       4.848 -32.665   4.202  0.00  0.00    +0.000 OA
ATOM      2  C2* UNL     1       3.076 -34.132   4.025  0.00  0.00    +0.000 A 
ATOM      3  C3* UNL     1       3.655 -34.277   5.327  0.00  0.00    +0.000 A 
ATOM      4  C4* UNL     1       4.747 -33.352   5.424  0.00  0.00    +0.000 A 
ATOM      5  C1* UNL     1       3.848 -33.135   3.323  0.00  0.00    +0.000 A 
ENDROOT
BRANCH   5   6
ATOM      6  N   UNL     1       3.763 -32.679   2.042  0.00  0.00    +0.000 N 
ATOM      7  C   UNL     1       3.848 -33.427   0.873  0.00  0.00    +0.000 A 
ATOM      8  O   UNL     1       4.053 -34.638   0.855  0.00  0.00    +0.000 OA
ATOM      9  N   UNL     1       3.703 -32.697  -0.304  0.00  0.00    +0.000 NA
ATOM     10  C   UNL     1       3.506 -31.403  -0.265  0.00  0.00    +0.000 A 
ATOM     11  N   UNL     1       3.452 -30.660   0.902  0.00  0.00    +0.000 NA
ATOM     12  C   UNL     1       3.572 -31.383   1.809  0.00  0.00    +0.000 A 
ATOM     13  N   UNL     1       3.366 -30.735  -1.438  0.00  0.00    +0.000 N 
ATOM     14  H   UNL     1       3.621 -29.758  -1.395  0.00  0.00    +0.000 HD
ATOM     15  H   UNL     1       3.735 -31.238  -2.237  0.00  0.00    +0.000 HD
ENDBRANCH   5   6
BRANCH   2  16
ATOM     16  O2* UNL     1       2.450 -35.197   3.439  0.00  0.00    +0.000 OA
ATOM     17  H2* UNL     1       3.064 -35.721   2.879  0.00  0.00    +0.000 HD
ENDBRANCH   2  16
BRANCH   3  18
ATOM     18  O3* UNL     1       3.662 -35.486   5.965  0.00  0.00    +0.000 OA
ATOM     19  H3* UNL     1       3.920 -36.189   5.340  0.00  0.00    +0.000 HD
ENDBRANCH   3  18
BRANCH   4  20
ATOM     20  C5* UNL     1       5.768 -33.324   6.393  0.00  0.00    +0.000 C 
BRANCH  20  21
ATOM     21  O5* UNL     1       6.732 -33.308   7.309  0.00  0.00    +0.000 OA
ATOM     22  H5* UNL     1       6.452 -33.807   8.095  0.00  0.00    +0.000 HD
ENDBRANCH  20  21
ENDBRANCH   4  20
TORSDOF 5
ENDMDL
MODEL 7
REMARK VINA RESULT:      -4.1     21.781     23.329
REMARK  Name = 5azacytidine.pdbqt.pdb
REMARK  5 active torsions:
REMARK  status: ('A' for Active; 'I' for Inactive)
REMARK    1  A    between atoms: C2*_2  and  O2*_16
REMARK    2  A    between atoms: C3*_3  and  O3*_21
REMARK    3  A    between atoms: C4*_4  and  C5*_18
REMARK    4  A    between atoms: C1*_5  and  N_6
REMARK    5  A    between atoms: C5*_18  and  O5*_19
REMARK                            x       y       z     vdW  Elec       q    Type
REMARK                         _______ _______ _______ _____ _____    ______ ____
ROOT
ATOM      1  O4* UNL     1     -18.899 -17.119  -9.257  0.00  0.00    +0.000 OA
ATOM      2  C2* UNL     1     -17.336 -18.755  -8.809  0.00  0.00    +0.000 A 
ATOM      3  C3* UNL     1     -18.279 -19.278  -9.750  0.00  0.00    +0.000 A 
ATOM      4  C4* UNL     1     -19.237 -18.246 -10.026  0.00  0.00    +0.000 A 
ATOM      5  C1* UNL     1     -17.750 -17.410  -8.491  0.00  0.00    +0.000 A 
ENDROOT
BRANCH   5   6
ATOM      6  N   UNL     1     -17.244 -16.507  -7.604  0.00  0.00    +0.000 N 
ATOM      7  C   UNL     1     -17.104 -16.661  -6.230  0.00  0.00    +0.000 A 
ATOM      8  O   UNL     1     -17.464 -17.665  -5.619  0.00  0.00    +0.000 OA
ATOM      9  N   UNL     1     -16.532 -15.576  -5.571  0.00  0.00    +0.000 NA
ATOM     10  C   UNL     1     -16.173 -14.507  -6.237  0.00  0.00    +0.000 A 
ATOM     11  N   UNL     1     -16.343 -14.348  -7.602  0.00  0.00    +0.000 NA
ATOM     12  C   UNL     1     -16.815 -15.322  -8.034  0.00  0.00    +0.000 A 
ATOM     13  N   UNL     1     -15.617 -13.476  -5.553  0.00  0.00    +0.000 N 
ATOM     14  H   UNL     1     -15.732 -12.572  -5.991  0.00  0.00    +0.000 HD
ATOM     15  H   UNL     1     -15.813 -13.496  -4.559  0.00  0.00    +0.000 HD
ENDBRANCH   5   6
BRANCH   2  16
ATOM     16  O2* UNL     1     -16.696 -19.604  -7.949  0.00  0.00    +0.000 OA
ATOM     17  H2* UNL     1     -16.248 -20.339  -8.423  0.00  0.00    +0.000 HD
ENDBRANCH   2  16
BRANCH   3  18
ATOM     18  O3* UNL     1     -18.611 -20.604  -9.755  0.00  0.00    +0.000 OA
ATOM     19  H3* UNL     1     -18.916 -20.872  -8.868  0.00  0.00    +0.000 HD
ENDBRANCH   3  18
BRANCH   4  20
ATOM     20  C5* UNL     1     -20.484 -18.377 -10.666  0.00  0.00    +0.000 C 
BRANCH  20  21
ATOM     21  O5* UNL     1     -21.666 -18.497 -11.262  0.00  0.00    +0.000 OA
ATOM     22  H5* UNL     1     -22.378 -18.471 -10.599  0.00  0.00    +0.000 HD
ENDBRANCH  20  21
ENDBRANCH   4  20
TORSDOF 5
ENDMDL
MODEL 8
REMARK VINA RESULT:      -4.0     20.423     22.184
REMARK  Name = 5azacytidine.pdbqt.pdb
REMARK  5 active torsions:
REMARK  status: ('A' for Active; 'I' for Inactive)
REMARK    1  A    between atoms: C2*_2  and  O2*_16
REMARK    2  A    between atoms: C3*_3  and  O3*_21
REMARK    3  A    between atoms: C4*_4  and  C5*_18
REMARK    4  A    between atoms: C1*_5  and  N_6
REMARK    5  A    between atoms: C5*_18  and  O5*_19
REMARK                            x       y       z     vdW  Elec       q    Type
REMARK                         _______ _______ _______ _____ _____    ______ ____
ROOT
ATOM      1  O4* UNL     1     -14.920 -16.744  -1.651  0.00  0.00    +0.000 OA
ATOM      2  C2* UNL     1     -14.748 -18.917  -2.407  0.00  0.00    +0.000 A 
ATOM      3  C3* UNL     1     -13.968 -18.791  -1.214  0.00  0.00    +0.000 A 
ATOM      4  C4* UNL     1     -14.094 -17.439  -0.751  0.00  0.00    +0.000 A 
ATOM      5  C1* UNL     1     -15.321 -17.621  -2.682  0.00  0.00    +0.000 A 
ENDROOT
BRANCH   5   6
ATOM      6  N   UNL     1     -16.079 -17.184  -3.726  0.00  0.00    +0.000 N 
ATOM      7  C   UNL     1     -17.014 -17.911  -4.453  0.00  0.00    +0.000 A 
ATOM      8  O   UNL     1     -17.255 -19.100  -4.252  0.00  0.00    +0.000 OA
ATOM      9  N   UNL     1     -17.662 -17.199  -5.459  0.00  0.00    +0.000 NA
ATOM     10  C   UNL     1     -17.377 -15.939  -5.671  0.00  0.00    +0.000 A 
ATOM     11  N   UNL     1     -16.423 -15.228  -4.964  0.00  0.00    +0.000 NA
ATOM     12  C   UNL     1     -15.967 -15.926  -4.149  0.00  0.00    +0.000 A 
ATOM     13  N   UNL     1     -18.037 -15.285  -6.660  0.00  0.00    +0.000 N 
ATOM     14  H   UNL     1     -17.534 -14.499  -7.051  0.00  0.00    +0.000 HD
ATOM     15  H   UNL     1     -18.459 -15.903  -7.343  0.00  0.00    +0.000 HD
ENDBRANCH   5   6
BRANCH   2  16
ATOM     16  O2* UNL     1     -14.393 -19.836  -3.355  0.00  0.00    +0.000 OA
ATOM     17  H2* UNL     1     -13.576 -19.573  -3.834  0.00  0.00    +0.000 HD
ENDBRANCH   2  16
BRANCH   3  18
ATOM     18  O3* UNL     1     -12.825 -19.520  -1.038  0.00  0.00    +0.000 OA
ATOM     19  H3* UNL     1     -12.559 -19.496  -0.099  0.00  0.00    +0.000 HD
ENDBRANCH   3  18
BRANCH   4  20
ATOM     20  C5* UNL     1     -13.305 -16.781   0.212  0.00  0.00    +0.000 C 
BRANCH  20  21
ATOM     21  O5* UNL     1     -12.567 -16.159   1.126  0.00  0.00    +0.000 OA
ATOM     22  H5* UNL     1     -11.817 -15.709   0.700  0.00  0.00    +0.000 HD
ENDBRANCH  20  21
ENDBRANCH   4  20
TORSDOF 5
ENDMDL
MODEL 9
REMARK VINA RESULT:      -4.0     10.263     12.811
REMARK  Name = 5azacytidine.pdbqt.pdb
REMARK  5 active torsions:
REMARK  status: ('A' for Active; 'I' for Inactive)
REMARK    1  A    between atoms: C2*_2  and  O2*_16
REMARK    2  A    between atoms: C3*_3  and  O3*_21
REMARK    3  A    between atoms: C4*_4  and  C5*_18
REMARK    4  A    between atoms: C1*_5  and  N_6
REMARK    5  A    between atoms: C5*_18  and  O5*_19
REMARK                            x       y       z     vdW  Elec       q    Type
REMARK                         _______ _______ _______ _____ _____    ______ ____
ROOT
ATOM      1  O4* UNL     1       5.169 -36.824   1.824  0.00  0.00    +0.000 OA
ATOM      2  C2* UNL     1       5.106 -35.690   3.831  0.00  0.00    +0.000 A 
ATOM      3  C3* UNL     1       5.634 -36.999   4.069  0.00  0.00    +0.000 A 
ATOM      4  C4* UNL     1       5.676 -37.687   2.810  0.00  0.00    +0.000 A 
ATOM      5  C1* UNL     1       4.797 -35.602   2.424  0.00  0.00    +0.000 A 
ENDROOT
BRANCH   5   6
ATOM      6  N   UNL     1       4.214 -34.607   1.699  0.00  0.00    +0.000 N 
ATOM      7  C   UNL     1       2.879 -34.222   1.716  0.00  0.00    +0.000 A 
ATOM      8  O   UNL     1       2.020 -34.779   2.396  0.00  0.00    +0.000 OA
ATOM      9  N   UNL     1       2.564 -33.151   0.883  0.00  0.00    +0.000 NA
ATOM     10  C   UNL     1       3.489 -32.583   0.152  0.00  0.00    +0.000 A 
ATOM     11  N   UNL     1       4.811 -32.991   0.116  0.00  0.00    +0.000 NA
ATOM     12  C   UNL     1       4.947 -33.878   0.861  0.00  0.00    +0.000 A 
ATOM     13  N   UNL     1       3.136 -31.541  -0.642  0.00  0.00    +0.000 N 
ATOM     14  H   UNL     1       3.731 -31.408  -1.449  0.00  0.00    +0.000 HD
ATOM     15  H   UNL     1       2.142 -31.496  -0.834  0.00  0.00    +0.000 HD
ENDBRANCH   5   6
BRANCH   2  16
ATOM     16  O2* UNL     1       4.427 -35.042   4.826  0.00  0.00    +0.000 OA
ATOM     17  H2* UNL     1       4.990 -34.378   5.282  0.00  0.00    +0.000 HD
ENDBRANCH   2  16
BRANCH   3  18
ATOM     18  O3* UNL     1       5.405 -37.649   5.250  0.00  0.00    +0.000 OA
ATOM     19  H3* UNL     1       4.649 -37.239   5.712  0.00  0.00    +0.000 HD
ENDBRANCH   3  18
BRANCH   4  20
ATOM     20  C5* UNL     1       5.857 -39.065   2.588  0.00  0.00    +0.000 C 
BRANCH  20  21
ATOM     21  O5* UNL     1       6.017 -40.368   2.376  0.00  0.00    +0.000 OA
ATOM     22  H5* UNL     1       5.882 -40.859   3.205  0.00  0.00    +0.000 HD
ENDBRANCH  20  21
ENDBRANCH   4  20
TORSDOF 5
ENDMDL
