REMARK  Name = 5azacytidine.pdbqt.pdb
REMARK  5 active torsions:
REMARK  status: ('A' for Active; 'I' for Inactive)
REMARK    1  A    between atoms: C2*_2  and  O2*_16
REMARK    2  A    between atoms: C3*_3  and  O3*_21
REMARK    3  A    between atoms: C4*_4  and  C5*_18
REMARK    4  A    between atoms: C1*_5  and  N_6
REMARK    5  A    between atoms: C5*_18  and  O5*_19
REMARK                            x       y       z     vdW  Elec       q    Type
REMARK                         _______ _______ _______ _____ _____    ______ ____
ROOT
ATOM      1  O4* UNL     1      -0.892  -1.294   0.411  0.00  0.00    +0.000 OA
ATOM      2  C2* UNL     1      -1.242   0.971   0.151  0.00  0.00    +0.000 A 
ATOM      3  C3* UNL     1      -2.516   0.325   0.244  0.00  0.00    +0.000 A 
ATOM      4  C4* UNL     1      -2.281  -1.080   0.416  0.00  0.00    +0.000 A 
ATOM      5  C1* UNL     1      -0.234  -0.058   0.234  0.00  0.00    +0.000 A 
ENDROOT
BRANCH   5   6
ATOM      6  N   UNL     1       1.123   0.011   0.128  0.00  0.00    +0.000 N 
ATOM      7  C   UNL     1       1.895   1.145  -0.094  0.00  0.00    +0.000 A 
ATOM      8  O   UNL     1       1.422   2.267  -0.261  0.00  0.00    +0.000 OA
ATOM      9  N   UNL     1       3.269   0.923  -0.135  0.00  0.00    +0.000 NA
ATOM     10  C   UNL     1       3.753  -0.283   0.025  0.00  0.00    +0.000 A 
ATOM     11  N   UNL     1       2.977  -1.413   0.216  0.00  0.00    +0.000 NA
ATOM     12  C   UNL     1       1.856  -1.094   0.244  0.00  0.00    +0.000 A 
ATOM     13  N   UNL     1       5.099  -0.450  -0.019  0.00  0.00    +0.000 N 
ATOM     14  H   UNL     1       5.397  -1.376  -0.296  0.00  0.00    +0.000 HD
ATOM     15  H   UNL     1       5.587   0.310  -0.478  0.00  0.00    +0.000 HD
ENDBRANCH   5   6
BRANCH   2  16
ATOM     16  O2* UNL     1      -1.122   2.133  -0.560  0.00  0.00    +0.000 OA
ATOM     17  H2* UNL     1      -0.192   2.447  -0.596  0.00  0.00    +0.000 HD
ENDBRANCH   2  16
BRANCH   3  18
ATOM     18  O3* UNL     1      -3.603   0.807  -0.431  0.00  0.00    +0.000 OA
ATOM     19  H3* UNL     1      -3.427   1.717  -0.735  0.00  0.00    +0.000 HD
ENDBRANCH   3  18
BRANCH   4  20
ATOM     20  C5* UNL     1      -3.208  -2.131   0.281  0.00  0.00    +0.000 C 
BRANCH  20  21
ATOM     21  O5* UNL     1      -4.090  -3.117   0.149  0.00  0.00    +0.000 OA
ATOM     22  H5* UNL     1      -4.936  -2.765  -0.178  0.00  0.00    +0.000 HD
ENDBRANCH  20  21
ENDBRANCH   4  20
TORSDOF 5
