MODEL 1
REMARK VINA RESULT:      -5.7      0.000      0.000
REMARK  Name = 60953_Capecitabine.pdbqt.pdb
REMARK  6 active torsions:
REMARK  status: ('A' for Active; 'I' for Inactive)
REMARK    1  A    between atoms: N_4  and  C_16
REMARK    2  A    between atoms: C_11  and  O_23
REMARK    3  A    between atoms: C_14  and  O_19
REMARK    4  A    between atoms: C_15  and  O_21
REMARK    5  A    between atoms: O_23  and  C_24
REMARK    6  A    between atoms: C_25  and  C_26
REMARK                            x       y       z     vdW  Elec       q    Type
REMARK                         _______ _______ _______ _____ _____    ______ ____
ROOT
ATOM      1  F   UNL     1      -7.228 -36.580  -5.408  0.00  0.00    +0.000 F 
ATOM      2  O   UNL     1      -4.578 -32.114  -6.724  0.00  0.00    +0.000 OA
ATOM      3  O   UNL     1      -7.681 -32.115  -3.228  0.00  0.00    +0.000 OA
ATOM      4  N   UNL     1      -5.127 -34.310  -7.245  0.00  0.00    +0.000 N 
ATOM      5  N   UNL     1      -6.203 -33.119  -5.462  0.00  0.00    +0.000 NA
ATOM      6  N   UNL     1      -7.832 -34.234  -4.177  0.00  0.00    +0.000 N 
ATOM      7  C   UNL     1      -5.937 -35.331  -6.900  0.00  0.00    +0.000 C 
ATOM      8  C   UNL     1      -5.260 -33.111  -6.499  0.00  0.00    +0.000 C 
ATOM      9  C   UNL     1      -6.864 -35.437  -6.014  0.00  0.00    +0.000 C 
ATOM     10  C   UNL     1      -6.926 -34.171  -5.215  0.00  0.00    +0.000 C 
ATOM     11  C   UNL     1      -8.132 -33.250  -3.262  0.00  0.00    +0.000 C 
ATOM     12  H   UNL     1      -8.332 -35.100  -4.027  0.00  0.00    +0.000 HD
ENDROOT
BRANCH   4  16
ATOM     13  O   UNL     1      -3.154 -35.366  -8.169  0.00  0.00    +0.000 OA
ATOM     14  C   UNL     1      -4.224 -33.925  -9.617  0.00  0.00    +0.000 A 
ATOM     15  C   UNL     1      -3.050 -34.425 -10.265  0.00  0.00    +0.000 A 
ATOM     16  C   UNL     1      -4.264 -34.501  -8.293  0.00  0.00    +0.000 A 
ATOM     17  C   UNL     1      -2.404 -35.329  -9.355  0.00  0.00    +0.000 A 
ATOM     18  C   UNL     1      -1.046 -35.942  -9.388  0.00  0.00    +0.000 C 
BRANCH  14  19
ATOM     19  O   UNL     1      -4.705 -32.691  -9.954  0.00  0.00    +0.000 OA
ATOM     20  H   UNL     1      -4.550 -32.027  -9.246  0.00  0.00    +0.000 HD
ENDBRANCH  14  19
BRANCH  15  21
ATOM     21  O   UNL     1      -2.379 -33.670 -11.191  0.00  0.00    +0.000 OA
ATOM     22  H   UNL     1      -2.820 -32.807 -11.312  0.00  0.00    +0.000 HD
ENDBRANCH  15  21
ENDBRANCH   4  16
BRANCH  11  23
ATOM     23  O   UNL     1      -9.051 -33.747  -2.380  0.00  0.00    +0.000 OA
BRANCH  23  24
ATOM     24  C   UNL     1      -8.991 -33.256  -1.144  0.00  0.00    +0.000 C 
ATOM     25  C   UNL     1      -8.925 -32.692   0.280  0.00  0.00    +0.000 C 
BRANCH  25  26
ATOM     26  C   UNL     1      -8.861 -32.128   1.702  0.00  0.00    +0.000 C 
ATOM     27  C   UNL     1      -8.795 -31.570   3.126  0.00  0.00    +0.000 C 
ATOM     28  C   UNL     1      -8.720 -31.022   4.556  0.00  0.00    +0.000 C 
ENDBRANCH  25  26
ENDBRANCH  23  24
ENDBRANCH  11  23
TORSDOF 6
ENDMDL
MODEL 2
REMARK VINA RESULT:      -5.6      4.826      9.172
REMARK  Name = 60953_Capecitabine.pdbqt.pdb
REMARK  6 active torsions:
REMARK  status: ('A' for Active; 'I' for Inactive)
REMARK    1  A    between atoms: N_4  and  C_16
REMARK    2  A    between atoms: C_11  and  O_23
REMARK    3  A    between atoms: C_14  and  O_19
REMARK    4  A    between atoms: C_15  and  O_21
REMARK    5  A    between atoms: O_23  and  C_24
REMARK    6  A    between atoms: C_25  and  C_26
REMARK                            x       y       z     vdW  Elec       q    Type
REMARK                         _______ _______ _______ _____ _____    ______ ____
ROOT
ATOM      1  F   UNL     1      -2.964 -33.801 -10.694  0.00  0.00    +0.000 F 
ATOM      2  O   UNL     1      -6.730 -35.023  -7.085  0.00  0.00    +0.000 OA
ATOM      3  O   UNL     1      -7.882 -34.030 -11.505  0.00  0.00    +0.000 OA
ATOM      4  N   UNL     1      -4.507 -34.510  -7.522  0.00  0.00    +0.000 N 
ATOM      5  N   UNL     1      -6.210 -34.325  -9.202  0.00  0.00    +0.000 NA
ATOM      6  N   UNL     1      -5.591 -33.645 -11.371  0.00  0.00    +0.000 N 
ATOM      7  C   UNL     1      -3.669 -34.074  -8.484  0.00  0.00    +0.000 C 
ATOM      8  C   UNL     1      -5.874 -34.639  -7.879  0.00  0.00    +0.000 C 
ATOM      9  C   UNL     1      -3.868 -33.711  -9.703  0.00  0.00    +0.000 C 
ATOM     10  C   UNL     1      -5.310 -33.921 -10.049  0.00  0.00    +0.000 C 
ATOM     11  C   UNL     1      -6.809 -33.733 -12.008  0.00  0.00    +0.000 C 
ATOM     12  H   UNL     1      -4.831 -33.369 -11.977  0.00  0.00    +0.000 HD
ENDROOT
BRANCH   4  16
ATOM     13  O   UNL     1      -3.008 -35.775  -6.104  0.00  0.00    +0.000 OA
ATOM     14  C   UNL     1      -4.263 -34.196  -4.986  0.00  0.00    +0.000 A 
ATOM     15  C   UNL     1      -3.476 -34.907  -4.026  0.00  0.00    +0.000 A 
ATOM     16  C   UNL     1      -3.982 -34.768  -6.283  0.00  0.00    +0.000 A 
ATOM     17  C   UNL     1      -2.691 -35.877  -4.740  0.00  0.00    +0.000 A 
ATOM     18  C   UNL     1      -1.893 -37.036  -4.253  0.00  0.00    +0.000 C 
BRANCH  14  19
ATOM     19  O   UNL     1      -5.459 -33.655  -4.606  0.00  0.00    +0.000 OA
ATOM     20  H   UNL     1      -5.685 -32.853  -5.127  0.00  0.00    +0.000 HD
ENDBRANCH  14  19
BRANCH  15  21
ATOM     21  O   UNL     1      -3.919 -35.087  -2.742  0.00  0.00    +0.000 OA
ATOM     22  H   UNL     1      -4.854 -34.815  -2.663  0.00  0.00    +0.000 HD
ENDBRANCH  15  21
ENDBRANCH   4  16
BRANCH  11  23
ATOM     23  O   UNL     1      -6.631 -33.413 -13.325  0.00  0.00    +0.000 OA
BRANCH  23  24
ATOM     24  C   UNL     1      -6.953 -32.168 -13.667  0.00  0.00    +0.000 C 
ATOM     25  C   UNL     1      -7.326 -30.734 -14.060  0.00  0.00    +0.000 C 
BRANCH  25  26
ATOM     26  C   UNL     1      -7.701 -29.303 -14.453  0.00  0.00    +0.000 C 
ATOM     27  C   UNL     1      -8.078 -27.873 -14.852  0.00  0.00    +0.000 C 
ATOM     28  C   UNL     1      -8.463 -26.447 -15.260  0.00  0.00    +0.000 C 
ENDBRANCH  25  26
ENDBRANCH  23  24
ENDBRANCH  11  23
TORSDOF 6
ENDMDL
MODEL 3
REMARK VINA RESULT:      -5.3      3.663      9.816
REMARK  Name = 60953_Capecitabine.pdbqt.pdb
REMARK  6 active torsions:
REMARK  status: ('A' for Active; 'I' for Inactive)
REMARK    1  A    between atoms: N_4  and  C_16
REMARK    2  A    between atoms: C_11  and  O_23
REMARK    3  A    between atoms: C_14  and  O_19
REMARK    4  A    between atoms: C_15  and  O_21
REMARK    5  A    between atoms: O_23  and  C_24
REMARK    6  A    between atoms: C_25  and  C_26
REMARK                            x       y       z     vdW  Elec       q    Type
REMARK                         _______ _______ _______ _____ _____    ______ ____
ROOT
ATOM      1  F   UNL     1      -2.819 -36.698  -8.548  0.00  0.00    +0.000 F 
ATOM      2  O   UNL     1      -4.382 -32.054  -6.383  0.00  0.00    +0.000 OA
ATOM      3  O   UNL     1      -1.592 -32.129 -10.134  0.00  0.00    +0.000 OA
ATOM      4  N   UNL     1      -4.270 -34.369  -6.223  0.00  0.00    +0.000 N 
ATOM      5  N   UNL     1      -3.092 -33.153  -7.923  0.00  0.00    +0.000 NA
ATOM      6  N   UNL     1      -1.823 -34.356  -9.502  0.00  0.00    +0.000 N 
ATOM      7  C   UNL     1      -3.716 -35.464  -6.781  0.00  0.00    +0.000 C 
ATOM      8  C   UNL     1      -3.941 -33.119  -6.808  0.00  0.00    +0.000 C 
ATOM      9  C   UNL     1      -2.894 -35.612  -7.760  0.00  0.00    +0.000 C 
ATOM     10  C   UNL     1      -2.624 -34.276  -8.381  0.00  0.00    +0.000 C 
ATOM     11  C   UNL     1      -1.387 -33.322 -10.300  0.00  0.00    +0.000 C 
ATOM     12  H   UNL     1      -1.527 -35.270  -9.816  0.00  0.00    +0.000 HD
ENDROOT
BRANCH   4  16
ATOM     13  O   UNL     1      -6.477 -34.692  -5.282  0.00  0.00    +0.000 OA
ATOM     14  C   UNL     1      -4.786 -34.583  -3.718  0.00  0.00    +0.000 A 
ATOM     15  C   UNL     1      -6.032 -34.710  -3.026  0.00  0.00    +0.000 A 
ATOM     16  C   UNL     1      -5.080 -34.545  -5.132  0.00  0.00    +0.000 A 
ATOM     17  C   UNL     1      -7.072 -34.790  -4.015  0.00  0.00    +0.000 A 
ATOM     18  C   UNL     1      -8.552 -34.685  -3.885  0.00  0.00    +0.000 C 
BRANCH  14  19
ATOM     19  O   UNL     1      -3.744 -33.940  -3.112  0.00  0.00    +0.000 OA
ATOM     20  H   UNL     1      -3.776 -32.968  -3.253  0.00  0.00    +0.000 HD
ENDBRANCH  14  19
BRANCH  15  21
ATOM     21  O   UNL     1      -6.209 -34.165  -1.781  0.00  0.00    +0.000 OA
ATOM     22  H   UNL     1      -7.061 -33.691  -1.734  0.00  0.00    +0.000 HD
ENDBRANCH  15  21
ENDBRANCH   4  16
BRANCH  11  23
ATOM     23  O   UNL     1      -0.655 -33.849 -11.327  0.00  0.00    +0.000 OA
BRANCH  23  24
ATOM     24  C   UNL     1       0.264 -34.748 -10.981  0.00  0.00    +0.000 C 
ATOM     25  C   UNL     1       1.320 -35.785 -10.583  0.00  0.00    +0.000 C 
BRANCH  25  26
ATOM     26  C   UNL     1       2.373 -36.822 -10.184  0.00  0.00    +0.000 C 
ATOM     27  C   UNL     1       3.431 -37.857  -9.791  0.00  0.00    +0.000 C 
ATOM     28  C   UNL     1       4.499 -38.885  -9.403  0.00  0.00    +0.000 C 
ENDBRANCH  25  26
ENDBRANCH  23  24
ENDBRANCH  11  23
TORSDOF 6
ENDMDL
MODEL 4
REMARK VINA RESULT:      -5.3      3.548      8.980
REMARK  Name = 60953_Capecitabine.pdbqt.pdb
REMARK  6 active torsions:
REMARK  status: ('A' for Active; 'I' for Inactive)
REMARK    1  A    between atoms: N_4  and  C_16
REMARK    2  A    between atoms: C_11  and  O_23
REMARK    3  A    between atoms: C_14  and  O_19
REMARK    4  A    between atoms: C_15  and  O_21
REMARK    5  A    between atoms: O_23  and  C_24
REMARK    6  A    between atoms: C_25  and  C_26
REMARK                            x       y       z     vdW  Elec       q    Type
REMARK                         _______ _______ _______ _____ _____    ______ ____
ROOT
ATOM      1  F   UNL     1      -3.997 -35.858  -8.031  0.00  0.00    +0.000 F 
ATOM      2  O   UNL     1      -6.565 -32.498  -4.742  0.00  0.00    +0.000 OA
ATOM      3  O   UNL     1      -3.624 -30.883  -7.997  0.00  0.00    +0.000 OA
ATOM      4  N   UNL     1      -6.004 -34.686  -5.284  0.00  0.00    +0.000 N 
ATOM      5  N   UNL     1      -5.004 -32.805  -6.388  0.00  0.00    +0.000 NA
ATOM      6  N   UNL     1      -3.440 -33.200  -8.105  0.00  0.00    +0.000 N 
ATOM      7  C   UNL     1      -5.214 -35.431  -6.084  0.00  0.00    +0.000 C 
ATOM      8  C   UNL     1      -5.899 -33.278  -5.419  0.00  0.00    +0.000 C 
ATOM      9  C   UNL     1      -4.329 -35.113  -6.962  0.00  0.00    +0.000 C 
ATOM     10  C   UNL     1      -4.298 -33.623  -7.111  0.00  0.00    +0.000 C 
ATOM     11  C   UNL     1      -3.177 -31.905  -8.494  0.00  0.00    +0.000 C 
ATOM     12  H   UNL     1      -2.951 -33.898  -8.648  0.00  0.00    +0.000 HD
ENDROOT
BRANCH   4  16
ATOM     13  O   UNL     1      -6.402 -36.541  -3.781  0.00  0.00    +0.000 OA
ATOM     14  C   UNL     1      -8.159 -35.055  -3.940  0.00  0.00    +0.000 A 
ATOM     15  C   UNL     1      -8.552 -36.125  -3.075  0.00  0.00    +0.000 A 
ATOM     16  C   UNL     1      -6.819 -35.340  -4.398  0.00  0.00    +0.000 A 
ATOM     17  C   UNL     1      -7.442 -37.034  -2.977  0.00  0.00    +0.000 A 
ATOM     18  C   UNL     1      -7.359 -38.417  -2.430  0.00  0.00    +0.000 C 
BRANCH  14  19
ATOM     19  O   UNL     1      -9.111 -34.386  -4.656  0.00  0.00    +0.000 OA
ATOM     20  H   UNL     1      -8.980 -33.412  -4.628  0.00  0.00    +0.000 HD
ENDBRANCH  14  19
BRANCH  15  21
ATOM     21  O   UNL     1      -9.862 -36.514  -2.983  0.00  0.00    +0.000 OA
ATOM     22  H   UNL     1     -10.357 -36.236  -3.778  0.00  0.00    +0.000 HD
ENDBRANCH  15  21
ENDBRANCH   4  16
BRANCH  11  23
ATOM     23  O   UNL     1      -2.301 -31.939  -9.543  0.00  0.00    +0.000 OA
BRANCH  23  24
ATOM     24  C   UNL     1      -1.584 -33.054  -9.663  0.00  0.00    +0.000 C 
ATOM     25  C   UNL     1      -0.757 -34.338  -9.797  0.00  0.00    +0.000 C 
BRANCH  25  26
ATOM     26  C   UNL     1       0.070 -35.620  -9.930  0.00  0.00    +0.000 C 
ATOM     27  C   UNL     1       0.894 -36.904 -10.057  0.00  0.00    +0.000 C 
ATOM     28  C   UNL     1       1.709 -38.196 -10.177  0.00  0.00    +0.000 C 
ENDBRANCH  25  26
ENDBRANCH  23  24
ENDBRANCH  11  23
TORSDOF 6
ENDMDL
MODEL 5
REMARK VINA RESULT:      -5.2     13.320     14.566
REMARK  Name = 60953_Capecitabine.pdbqt.pdb
REMARK  6 active torsions:
REMARK  status: ('A' for Active; 'I' for Inactive)
REMARK    1  A    between atoms: N_4  and  C_16
REMARK    2  A    between atoms: C_11  and  O_23
REMARK    3  A    between atoms: C_14  and  O_19
REMARK    4  A    between atoms: C_15  and  O_21
REMARK    5  A    between atoms: O_23  and  C_24
REMARK    6  A    between atoms: C_25  and  C_26
REMARK                            x       y       z     vdW  Elec       q    Type
REMARK                         _______ _______ _______ _____ _____    ______ ____
ROOT
ATOM      1  F   UNL     1       4.932 -32.549   6.937  0.00  0.00    +0.000 F 
ATOM      2  O   UNL     1       2.384 -34.996   2.910  0.00  0.00    +0.000 OA
ATOM      3  O   UNL     1       2.656 -36.985   7.132  0.00  0.00    +0.000 OA
ATOM      4  N   UNL     1       3.758 -33.259   3.611  0.00  0.00    +0.000 N 
ATOM      5  N   UNL     1       3.162 -35.075   5.062  0.00  0.00    +0.000 NA
ATOM      6  N   UNL     1       3.961 -35.064   7.278  0.00  0.00    +0.000 N 
ATOM      7  C   UNL     1       4.469 -32.803   4.663  0.00  0.00    +0.000 C 
ATOM      8  C   UNL     1       3.061 -34.481   3.797  0.00  0.00    +0.000 C 
ATOM      9  C   UNL     1       4.674 -33.280   5.840  0.00  0.00    +0.000 C 
ATOM     10  C   UNL     1       3.873 -34.535   6.007  0.00  0.00    +0.000 C 
ATOM     11  C   UNL     1       3.354 -36.202   7.759  0.00  0.00    +0.000 C 
ATOM     12  H   UNL     1       4.506 -34.567   7.969  0.00  0.00    +0.000 HD
ENDROOT
BRANCH   4  16
ATOM     13  O   UNL     1       3.232 -31.229   2.404  0.00  0.00    +0.000 OA
ATOM     14  C   UNL     1       4.275 -32.846   1.132  0.00  0.00    +0.000 A 
ATOM     15  C   UNL     1       3.967 -31.735   0.283  0.00  0.00    +0.000 A 
ATOM     16  C   UNL     1       3.785 -32.528   2.453  0.00  0.00    +0.000 A 
ATOM     17  C   UNL     1       3.331 -30.733   1.094  0.00  0.00    +0.000 A 
ATOM     18  C   UNL     1       2.588 -29.499   0.715  0.00  0.00    +0.000 C 
BRANCH  14  19
ATOM     19  O   UNL     1       4.342 -34.101   0.597  0.00  0.00    +0.000 OA
ATOM     20  H   UNL     1       4.120 -34.797   1.255  0.00  0.00    +0.000 HD
ENDBRANCH  14  19
BRANCH  15  21
ATOM     21  O   UNL     1       3.701 -31.915  -1.048  0.00  0.00    +0.000 OA
ATOM     22  H   UNL     1       2.823 -31.553  -1.273  0.00  0.00    +0.000 HD
ENDBRANCH  15  21
ENDBRANCH   4  16
BRANCH  11  23
ATOM     23  O   UNL     1       3.673 -36.335   9.082  0.00  0.00    +0.000 OA
BRANCH  23  24
ATOM     24  C   UNL     1       2.919 -35.641   9.932  0.00  0.00    +0.000 C 
ATOM     25  C   UNL     1       2.049 -34.841  10.908  0.00  0.00    +0.000 C 
BRANCH  25  26
ATOM     26  C   UNL     1       1.181 -34.041  11.882  0.00  0.00    +0.000 C 
ATOM     27  C   UNL     1       0.311 -33.246  12.860  0.00  0.00    +0.000 C 
ATOM     28  C   UNL     1      -0.559 -32.460  13.847  0.00  0.00    +0.000 C 
ENDBRANCH  25  26
ENDBRANCH  23  24
ENDBRANCH  11  23
TORSDOF 6
ENDMDL
MODEL 6
REMARK VINA RESULT:      -5.2     18.833     20.923
REMARK  Name = 60953_Capecitabine.pdbqt.pdb
REMARK  6 active torsions:
REMARK  status: ('A' for Active; 'I' for Inactive)
REMARK    1  A    between atoms: N_4  and  C_16
REMARK    2  A    between atoms: C_11  and  O_23
REMARK    3  A    between atoms: C_14  and  O_19
REMARK    4  A    between atoms: C_15  and  O_21
REMARK    5  A    between atoms: O_23  and  C_24
REMARK    6  A    between atoms: C_25  and  C_26
REMARK                            x       y       z     vdW  Elec       q    Type
REMARK                         _______ _______ _______ _____ _____    ______ ____
ROOT
ATOM      1  F   UNL     1      -2.077 -16.267 -13.963  0.00  0.00    +0.000 F 
ATOM      2  O   UNL     1      -6.273 -18.370 -16.546  0.00  0.00    +0.000 OA
ATOM      3  O   UNL     1      -2.185 -20.632 -16.378  0.00  0.00    +0.000 OA
ATOM      4  N   UNL     1      -5.332 -16.539 -15.470  0.00  0.00    +0.000 N 
ATOM      5  N   UNL     1      -4.052 -18.497 -16.003  0.00  0.00    +0.000 NA
ATOM      6  N   UNL     1      -1.784 -18.574 -15.369  0.00  0.00    +0.000 N 
ATOM      7  C   UNL     1      -4.179 -16.063 -14.958  0.00  0.00    +0.000 C 
ATOM      8  C   UNL     1      -5.286 -17.834 -16.046  0.00  0.00    +0.000 C 
ATOM      9  C   UNL     1      -2.990 -16.551 -14.908  0.00  0.00    +0.000 C 
ATOM     10  C   UNL     1      -3.004 -17.938 -15.473  0.00  0.00    +0.000 C 
ATOM     11  C   UNL     1      -1.459 -19.844 -15.790  0.00  0.00    +0.000 C 
ATOM     12  H   UNL     1      -1.026 -18.087 -14.913  0.00  0.00    +0.000 HD
ENDROOT
BRANCH   4  16
ATOM     13  O   UNL     1      -6.312 -14.333 -15.285  0.00  0.00    +0.000 OA
ATOM     14  C   UNL     1      -7.851 -16.045 -15.425  0.00  0.00    +0.000 A 
ATOM     15  C   UNL     1      -8.561 -14.814 -15.258  0.00  0.00    +0.000 A 
ATOM     16  C   UNL     1      -6.440 -15.734 -15.414  0.00  0.00    +0.000 A 
ATOM     17  C   UNL     1      -7.588 -13.758 -15.185  0.00  0.00    +0.000 A 
ATOM     18  C   UNL     1      -7.725 -12.332 -14.777  0.00  0.00    +0.000 C 
BRANCH  14  19
ATOM     19  O   UNL     1      -8.405 -17.208 -14.970  0.00  0.00    +0.000 OA
ATOM     20  H   UNL     1      -8.209 -17.365 -14.020  0.00  0.00    +0.000 HD
ENDBRANCH  14  19
BRANCH  15  21
ATOM     21  O   UNL     1      -9.770 -14.778 -14.614  0.00  0.00    +0.000 OA
ATOM     22  H   UNL     1      -9.819 -14.002 -14.024  0.00  0.00    +0.000 HD
ENDBRANCH  15  21
ENDBRANCH   4  16
BRANCH  11  23
ATOM     23  O   UNL     1      -0.158 -20.091 -15.453  0.00  0.00    +0.000 OA
BRANCH  23  24
ATOM     24  C   UNL     1       0.393 -19.229 -14.601  0.00  0.00    +0.000 C 
ATOM     25  C   UNL     1       1.029 -18.238 -13.620  0.00  0.00    +0.000 C 
BRANCH  25  26
ATOM     26  C   UNL     1       1.666 -17.249 -12.640  0.00  0.00    +0.000 C 
ATOM     27  C   UNL     1       2.297 -16.261 -11.655  0.00  0.00    +0.000 C 
ATOM     28  C   UNL     1       2.922 -15.277 -10.660  0.00  0.00    +0.000 C 
ENDBRANCH  25  26
ENDBRANCH  23  24
ENDBRANCH  11  23
TORSDOF 6
ENDMDL
MODEL 7
REMARK VINA RESULT:      -5.1     19.440     20.992
REMARK  Name = 60953_Capecitabine.pdbqt.pdb
REMARK  6 active torsions:
REMARK  status: ('A' for Active; 'I' for Inactive)
REMARK    1  A    between atoms: N_4  and  C_16
REMARK    2  A    between atoms: C_11  and  O_23
REMARK    3  A    between atoms: C_14  and  O_19
REMARK    4  A    between atoms: C_15  and  O_21
REMARK    5  A    between atoms: O_23  and  C_24
REMARK    6  A    between atoms: C_25  and  C_26
REMARK                            x       y       z     vdW  Elec       q    Type
REMARK                         _______ _______ _______ _____ _____    ______ ____
ROOT
ATOM      1  F   UNL     1      -7.843 -14.203 -16.310  0.00  0.00    +0.000 F 
ATOM      2  O   UNL     1      -6.197 -19.282 -15.876  0.00  0.00    +0.000 OA
ATOM      3  O   UNL     1     -10.703 -18.280 -16.617  0.00  0.00    +0.000 OA
ATOM      4  N   UNL     1      -5.702 -17.022 -15.670  0.00  0.00    +0.000 N 
ATOM      5  N   UNL     1      -7.934 -17.804 -16.073  0.00  0.00    +0.000 NA
ATOM      6  N   UNL     1      -9.663 -16.221 -16.312  0.00  0.00    +0.000 N 
ATOM      7  C   UNL     1      -6.253 -15.791 -15.677  0.00  0.00    +0.000 C 
ATOM      8  C   UNL     1      -6.584 -18.116 -15.867  0.00  0.00    +0.000 C 
ATOM      9  C   UNL     1      -7.469 -15.390 -15.804  0.00  0.00    +0.000 C 
ATOM     10  C   UNL     1      -8.351 -16.572 -16.068  0.00  0.00    +0.000 C 
ATOM     11  C   UNL     1     -10.721 -17.059 -16.585  0.00  0.00    +0.000 C 
ATOM     12  H   UNL     1      -9.903 -15.240 -16.325  0.00  0.00    +0.000 HD
ENDROOT
BRANCH   4  16
ATOM     13  O   UNL     1      -3.554 -17.988 -16.228  0.00  0.00    +0.000 OA
ATOM     14  C   UNL     1      -3.492 -16.484 -14.481  0.00  0.00    +0.000 A 
ATOM     15  C   UNL     1      -2.177 -17.021 -14.660  0.00  0.00    +0.000 A 
ATOM     16  C   UNL     1      -4.352 -17.119 -15.452  0.00  0.00    +0.000 A 
ATOM     17  C   UNL     1      -2.232 -17.945 -15.760  0.00  0.00    +0.000 A 
ATOM     18  C   UNL     1      -1.249 -18.961 -16.230  0.00  0.00    +0.000 C 
BRANCH  14  19
ATOM     19  O   UNL     1      -3.881 -16.059 -13.242  0.00  0.00    +0.000 OA
ATOM     20  H   UNL     1      -4.832 -15.812 -13.216  0.00  0.00    +0.000 HD
ENDBRANCH  14  19
BRANCH  15  21
ATOM     21  O   UNL     1      -1.316 -17.150 -13.602  0.00  0.00    +0.000 OA
ATOM     22  H   UNL     1      -0.419 -16.861 -13.855  0.00  0.00    +0.000 HD
ENDBRANCH  15  21
ENDBRANCH   4  16
BRANCH  11  23
ATOM     23  O   UNL     1     -11.831 -16.293 -16.807  0.00  0.00    +0.000 OA
BRANCH  23  24
ATOM     24  C   UNL     1     -11.909 -15.168 -16.100  0.00  0.00    +0.000 C 
ATOM     25  C   UNL     1     -12.001 -13.873 -15.286  0.00  0.00    +0.000 C 
BRANCH  25  26
ATOM     26  C   UNL     1     -12.095 -12.579 -14.472  0.00  0.00    +0.000 C 
ATOM     27  C   UNL     1     -12.186 -11.281 -13.664  0.00  0.00    +0.000 C 
ATOM     28  C   UNL     1     -12.277  -9.976 -12.867  0.00  0.00    +0.000 C 
ENDBRANCH  25  26
ENDBRANCH  23  24
ENDBRANCH  11  23
TORSDOF 6
ENDMDL
MODEL 8
REMARK VINA RESULT:      -5.1     18.653     20.207
REMARK  Name = 60953_Capecitabine.pdbqt.pdb
REMARK  6 active torsions:
REMARK  status: ('A' for Active; 'I' for Inactive)
REMARK    1  A    between atoms: N_4  and  C_16
REMARK    2  A    between atoms: C_11  and  O_23
REMARK    3  A    between atoms: C_14  and  O_19
REMARK    4  A    between atoms: C_15  and  O_21
REMARK    5  A    between atoms: O_23  and  C_24
REMARK    6  A    between atoms: C_25  and  C_26
REMARK                            x       y       z     vdW  Elec       q    Type
REMARK                         _______ _______ _______ _____ _____    ______ ____
ROOT
ATOM      1  F   UNL     1      -0.947 -15.201 -14.374  0.00  0.00    +0.000 F 
ATOM      2  O   UNL     1       0.271 -20.403 -14.772  0.00  0.00    +0.000 OA
ATOM      3  O   UNL     1      -3.548 -18.672 -16.839  0.00  0.00    +0.000 OA
ATOM      4  N   UNL     1       0.698 -18.345 -13.781  0.00  0.00    +0.000 N 
ATOM      5  N   UNL     1      -1.211 -18.708 -15.190  0.00  0.00    +0.000 NA
ATOM      6  N   UNL     1      -2.665 -16.903 -15.613  0.00  0.00    +0.000 N 
ATOM      7  C   UNL     1       0.224 -17.089 -13.655  0.00  0.00    +0.000 C 
ATOM      8  C   UNL     1      -0.060 -19.234 -14.587  0.00  0.00    +0.000 C 
ATOM      9  C   UNL     1      -0.832 -16.515 -14.113  0.00  0.00    +0.000 C 
ATOM     10  C   UNL     1      -1.566 -17.471 -15.002  0.00  0.00    +0.000 C 
ATOM     11  C   UNL     1      -3.548 -17.504 -16.482  0.00  0.00    +0.000 C 
ATOM     12  H   UNL     1      -2.857 -15.926 -15.444  0.00  0.00    +0.000 HD
ENDROOT
BRANCH   4  16
ATOM     13  O   UNL     1       3.091 -18.712 -13.781  0.00  0.00    +0.000 OA
ATOM     14  C   UNL     1       2.080 -19.042 -11.734  0.00  0.00    +0.000 A 
ATOM     15  C   UNL     1       3.472 -19.352 -11.605  0.00  0.00    +0.000 A 
ATOM     16  C   UNL     1       1.848 -18.667 -13.110  0.00  0.00    +0.000 A 
ATOM     17  C   UNL     1       4.087 -19.128 -12.884  0.00  0.00    +0.000 A 
ATOM     18  C   UNL     1       5.431 -19.512 -13.401  0.00  0.00    +0.000 C 
BRANCH  14  19
ATOM     19  O   UNL     1       1.175 -19.665 -10.923  0.00  0.00    +0.000 OA
ATOM     20  H   UNL     1       0.736 -20.423 -11.371  0.00  0.00    +0.000 HD
ENDBRANCH  14  19
BRANCH  15  21
ATOM     21  O   UNL     1       3.905 -20.292 -10.707  0.00  0.00    +0.000 OA
ATOM     22  H   UNL     1       4.879 -20.276 -10.641  0.00  0.00    +0.000 HD
ENDBRANCH  15  21
ENDBRANCH   4  16
BRANCH  11  23
ATOM     23  O   UNL     1      -4.461 -16.570 -16.883  0.00  0.00    +0.000 OA
BRANCH  23  24
ATOM     24  C   UNL     1      -4.668 -15.562 -16.038  0.00  0.00    +0.000 C 
ATOM     25  C   UNL     1      -4.907 -14.403 -15.064  0.00  0.00    +0.000 C 
BRANCH  25  26
ATOM     26  C   UNL     1      -5.148 -13.247 -14.090  0.00  0.00    +0.000 C 
ATOM     27  C   UNL     1      -5.395 -12.091 -13.117  0.00  0.00    +0.000 C 
ATOM     28  C   UNL     1      -5.655 -10.937 -12.142  0.00  0.00    +0.000 C 
ENDBRANCH  25  26
ENDBRANCH  23  24
ENDBRANCH  11  23
TORSDOF 6
ENDMDL
MODEL 9
REMARK VINA RESULT:      -5.0     17.092     19.335
REMARK  Name = 60953_Capecitabine.pdbqt.pdb
REMARK  6 active torsions:
REMARK  status: ('A' for Active; 'I' for Inactive)
REMARK    1  A    between atoms: N_4  and  C_16
REMARK    2  A    between atoms: C_11  and  O_23
REMARK    3  A    between atoms: C_14  and  O_19
REMARK    4  A    between atoms: C_15  and  O_21
REMARK    5  A    between atoms: O_23  and  C_24
REMARK    6  A    between atoms: C_25  and  C_26
REMARK                            x       y       z     vdW  Elec       q    Type
REMARK                         _______ _______ _______ _____ _____    ______ ____
ROOT
ATOM      1  F   UNL     1       0.746 -17.135  -3.141  0.00  0.00    +0.000 F 
ATOM      2  O   UNL     1      -2.772 -18.343   0.715  0.00  0.00    +0.000 OA
ATOM      3  O   UNL     1      -4.012 -15.651  -2.901  0.00  0.00    +0.000 OA
ATOM      4  N   UNL     1      -0.573 -18.378  -0.033  0.00  0.00    +0.000 N 
ATOM      5  N   UNL     1      -2.290 -17.163  -1.187  0.00  0.00    +0.000 NA
ATOM      6  N   UNL     1      -1.728 -16.011  -3.164  0.00  0.00    +0.000 N 
ATOM      7  C   UNL     1       0.247 -17.909  -0.995  0.00  0.00    +0.000 C 
ATOM      8  C   UNL     1      -1.933 -17.982  -0.107  0.00  0.00    +0.000 C 
ATOM      9  C   UNL     1       0.047 -17.122  -1.992  0.00  0.00    +0.000 C 
ATOM     10  C   UNL     1      -1.409 -16.779  -2.063  0.00  0.00    +0.000 C 
ATOM     11  C   UNL     1      -2.967 -15.527  -3.522  0.00  0.00    +0.000 C 
ATOM     12  H   UNL     1      -0.994 -15.782  -3.819  0.00  0.00    +0.000 HD
ENDROOT
BRANCH   4  16
ATOM     13  O   UNL     1       1.326 -19.037   1.316  0.00  0.00    +0.000 OA
ATOM     14  C   UNL     1      -0.594 -20.249   1.723  0.00  0.00    +0.000 A 
ATOM     15  C   UNL     1       0.456 -20.782   2.537  0.00  0.00    +0.000 A 
ATOM     16  C   UNL     1      -0.030 -19.173   0.942  0.00  0.00    +0.000 A 
ATOM     17  C   UNL     1       1.639 -20.008   2.280  0.00  0.00    +0.000 A 
ATOM     18  C   UNL     1       3.063 -20.253   2.644  0.00  0.00    +0.000 C 
BRANCH  14  19
ATOM     19  O   UNL     1      -1.612 -21.066   1.320  0.00  0.00    +0.000 OA
ATOM     20  H   UNL     1      -2.197 -20.632   0.659  0.00  0.00    +0.000 HD
ENDBRANCH  14  19
BRANCH  15  21
ATOM     21  O   UNL     1       0.476 -22.107   2.886  0.00  0.00    +0.000 OA
ATOM     22  H   UNL     1       0.420 -22.670   2.090  0.00  0.00    +0.000 HD
ENDBRANCH  15  21
ENDBRANCH   4  16
BRANCH  11  23
ATOM     23  O   UNL     1      -2.842 -14.854  -4.705  0.00  0.00    +0.000 OA
BRANCH  23  24
ATOM     24  C   UNL     1      -1.610 -14.782  -5.203  0.00  0.00    +0.000 C 
ATOM     25  C   UNL     1      -0.191 -14.698  -5.774  0.00  0.00    +0.000 C 
BRANCH  25  26
ATOM     26  C   UNL     1       1.228 -14.612  -6.345  0.00  0.00    +0.000 C 
ATOM     27  C   UNL     1       2.649 -14.522  -6.909  0.00  0.00    +0.000 C 
ATOM     28  C   UNL     1       4.075 -14.433  -7.462  0.00  0.00    +0.000 C 
ENDBRANCH  25  26
ENDBRANCH  23  24
ENDBRANCH  11  23
TORSDOF 6
ENDMDL
