REMARK  Name = 60953_Capecitabine.pdbqt.pdb
REMARK  6 active torsions:
REMARK  status: ('A' for Active; 'I' for Inactive)
REMARK    1  A    between atoms: N_4  and  C_16
REMARK    2  A    between atoms: C_11  and  O_23
REMARK    3  A    between atoms: C_14  and  O_19
REMARK    4  A    between atoms: C_15  and  O_21
REMARK    5  A    between atoms: O_23  and  C_24
REMARK    6  A    between atoms: C_25  and  C_26
REMARK                            x       y       z     vdW  Elec       q    Type
REMARK                         _______ _______ _______ _____ _____    ______ ____
ROOT
ATOM      1  F   UNL     1      -0.279  -3.143  -0.038  0.00  0.00    +0.000 F 
ATOM      2  O   UNL     1      -1.650   2.035   0.053  0.00  0.00    +0.000 OA
ATOM      3  O   UNL     1       2.844   0.747   0.058  0.00  0.00    +0.000 OA
ATOM      4  N   UNL     1      -2.313  -0.186   0.210  0.00  0.00    +0.000 N 
ATOM      5  N   UNL     1       0.000   0.451   0.158  0.00  0.00    +0.000 NA
ATOM      6  N   UNL     1       1.641  -1.238   0.222  0.00  0.00    +0.000 N 
ATOM      7  C   UNL     1      -1.846  -1.447   0.309  0.00  0.00    +0.000 C 
ATOM      8  C   UNL     1      -1.344   0.848   0.141  0.00  0.00    +0.000 C 
ATOM      9  C   UNL     1      -0.653  -1.923   0.384  0.00  0.00    +0.000 C 
ATOM     10  C   UNL     1       0.332  -0.803   0.248  0.00  0.00    +0.000 C 
ATOM     11  C   UNL     1       2.780  -0.472   0.110  0.00  0.00    +0.000 C 
ATOM     12  H   UNL     1       1.818  -2.232   0.262  0.00  0.00    +0.000 HD
ENDROOT
BRANCH   4  16
ATOM     13  O   UNL     1      -4.551  -1.106   0.275  0.00  0.00    +0.000 OA
ATOM     14  C   UNL     1      -4.475   1.193   0.105  0.00  0.00    +0.000 A 
ATOM     15  C   UNL     1      -5.846   0.784   0.069  0.00  0.00    +0.000 A 
ATOM     16  C   UNL     1      -3.671  -0.003   0.207  0.00  0.00    +0.000 A 
ATOM     17  C   UNL     1      -5.875  -0.648   0.189  0.00  0.00    +0.000 A 
ATOM     18  C   UNL     1      -6.980  -1.623  -0.030  0.00  0.00    +0.000 C 
BRANCH  14  19
ATOM     19  O   UNL     1      -4.100   2.343  -0.530  0.00  0.00    +0.000 OA
ATOM     20  H   UNL     1      -3.133   2.507  -0.460  0.00  0.00    +0.000 HD
ENDBRANCH  14  19
BRANCH  15  21
ATOM     21  O   UNL     1      -6.781   1.507  -0.624  0.00  0.00    +0.000 OA
ATOM     22  H   UNL     1      -6.426   2.385  -0.861  0.00  0.00    +0.000 HD
ENDBRANCH  15  21
ENDBRANCH   4  16
BRANCH  11  23
ATOM     23  O   UNL     1       3.861  -1.308   0.080  0.00  0.00    +0.000 OA
BRANCH  23  24
ATOM     24  C   UNL     1       5.049  -0.715  -0.016  0.00  0.00    +0.000 C 
ATOM     25  C   UNL     1       6.417  -0.033  -0.124  0.00  0.00    +0.000 C 
BRANCH  25  26
ATOM     26  C   UNL     1       7.784   0.649  -0.230  0.00  0.00    +0.000 C 
ATOM     27  C   UNL     1       9.154   1.325  -0.333  0.00  0.00    +0.000 C 
ATOM     28  C   UNL     1      10.531   1.990  -0.436  0.00  0.00    +0.000 C 
ENDBRANCH  25  26
ENDBRANCH  23  24
ENDBRANCH  11  23
TORSDOF 6
