MODEL 1
REMARK VINA RESULT:      -5.8      0.000      0.000
REMARK  Name = 6223_Gliotoxin.pdbqt.pdb
REMARK  3 active torsions:
REMARK  status: ('A' for Active; 'I' for Inactive)
REMARK    1  A    between atoms: C_10  and  C_21
REMARK    2  A    between atoms: C_14  and  O_19
REMARK    3  A    between atoms: C_21  and  O_22
REMARK                            x       y       z     vdW  Elec       q    Type
REMARK                         _______ _______ _______ _____ _____    ______ ____
ROOT
ATOM      1  S   UNL     1      -5.637 -36.135  -8.128  0.00  0.00    +0.000 S 
ATOM      2  S   UNL     1      -7.003 -35.439  -6.746  0.00  0.00    +0.000 S 
ATOM      3  O   UNL     1      -5.127 -32.410  -6.076  0.00  0.00    +0.000 OA
ATOM      4  O   UNL     1      -3.334 -37.338  -5.704  0.00  0.00    +0.000 OA
ATOM      5  N   UNL     1      -4.043 -34.191  -7.044  0.00  0.00    +0.000 N 
ATOM      6  N   UNL     1      -4.898 -35.738  -4.980  0.00  0.00    +0.000 N 
ATOM      7  C   UNL     1      -4.080 -35.665  -7.299  0.00  0.00    +0.000 C 
ATOM      8  C   UNL     1      -3.030 -33.573  -7.778  0.00  0.00    +0.000 A 
ATOM      9  C   UNL     1      -2.913 -35.835  -8.160  0.00  0.00    +0.000 C 
ATOM     10  C   UNL     1      -5.861 -34.697  -5.468  0.00  0.00    +0.000 C 
ATOM     11  C   UNL     1      -2.216 -34.651  -8.440  0.00  0.00    +0.000 A 
ATOM     12  C   UNL     1      -4.988 -33.626  -6.197  0.00  0.00    +0.000 C 
ATOM     13  C   UNL     1      -4.020 -36.339  -5.928  0.00  0.00    +0.000 C 
ATOM     14  C   UNL     1      -2.936 -32.173  -8.255  0.00  0.00    +0.000 A 
ATOM     15  C   UNL     1      -1.671 -34.275  -9.561  0.00  0.00    +0.000 A 
ATOM     16  C   UNL     1      -2.172 -32.080  -9.470  0.00  0.00    +0.000 A 
ATOM     17  C   UNL     1      -5.040 -36.194  -3.598  0.00  0.00    +0.000 C 
ATOM     18  C   UNL     1      -1.587 -32.865 -10.167  0.00  0.00    +0.000 A 
ENDROOT
BRANCH  14  19
ATOM     19  O   UNL     1      -3.855 -31.216  -7.935  0.00  0.00    +0.000 OA
ATOM     20  H   UNL     1      -3.516 -30.555  -7.297  0.00  0.00    +0.000 HD
ENDBRANCH  14  19
BRANCH  10  21
ATOM     21  C   UNL     1      -6.688 -34.064  -4.405  0.00  0.00    +0.000 C 
BRANCH  21  22
ATOM     22  O   UNL     1      -7.445 -33.495  -3.463  0.00  0.00    +0.000 OA
ATOM     23  H   UNL     1      -6.910 -32.932  -2.872  0.00  0.00    +0.000 HD
ENDBRANCH  21  22
ENDBRANCH  10  21
TORSDOF 3
ENDMDL
MODEL 2
REMARK VINA RESULT:      -5.2      2.358      5.548
REMARK  Name = 6223_Gliotoxin.pdbqt.pdb
REMARK  3 active torsions:
REMARK  status: ('A' for Active; 'I' for Inactive)
REMARK    1  A    between atoms: C_10  and  C_21
REMARK    2  A    between atoms: C_14  and  O_19
REMARK    3  A    between atoms: C_21  and  O_22
REMARK                            x       y       z     vdW  Elec       q    Type
REMARK                         _______ _______ _______ _____ _____    ______ ____
ROOT
ATOM      1  S   UNL     1      -4.042 -36.443  -6.023  0.00  0.00    +0.000 S 
ATOM      2  S   UNL     1      -3.119 -34.629  -6.366  0.00  0.00    +0.000 S 
ATOM      3  O   UNL     1      -6.039 -32.703  -5.413  0.00  0.00    +0.000 OA
ATOM      4  O   UNL     1      -5.839 -36.455  -9.090  0.00  0.00    +0.000 OA
ATOM      5  N   UNL     1      -6.311 -34.911  -5.992  0.00  0.00    +0.000 N 
ATOM      6  N   UNL     1      -5.042 -34.375  -8.334  0.00  0.00    +0.000 N 
ATOM      7  C   UNL     1      -5.702 -36.085  -6.692  0.00  0.00    +0.000 C 
ATOM      8  C   UNL     1      -7.443 -35.283  -5.265  0.00  0.00    +0.000 A 
ATOM      9  C   UNL     1      -6.670 -37.135  -6.384  0.00  0.00    +0.000 C 
ATOM     10  C   UNL     1      -4.523 -33.658  -7.123  0.00  0.00    +0.000 C 
ATOM     11  C   UNL     1      -7.749 -36.720  -5.591  0.00  0.00    +0.000 A 
ATOM     12  C   UNL     1      -5.699 -33.668  -6.094  0.00  0.00    +0.000 C 
ATOM     13  C   UNL     1      -5.574 -35.686  -8.164  0.00  0.00    +0.000 C 
ATOM     14  C   UNL     1      -8.037 -34.651  -4.064  0.00  0.00    +0.000 A 
ATOM     15  C   UNL     1      -8.336 -37.358  -4.620  0.00  0.00    +0.000 A 
ATOM     16  C   UNL     1      -8.713 -35.617  -3.241  0.00  0.00    +0.000 A 
ATOM     17  C   UNL     1      -4.811 -33.753  -9.638  0.00  0.00    +0.000 C 
ATOM     18  C   UNL     1      -8.918 -36.800  -3.312  0.00  0.00    +0.000 A 
ENDROOT
BRANCH  14  19
ATOM     19  O   UNL     1      -7.570 -33.485  -3.529  0.00  0.00    +0.000 OA
ATOM     20  H   UNL     1      -7.233 -33.589  -2.616  0.00  0.00    +0.000 HD
ENDBRANCH  14  19
BRANCH  10  21
ATOM     21  C   UNL     1      -4.057 -32.268  -7.373  0.00  0.00    +0.000 C 
BRANCH  21  22
ATOM     22  O   UNL     1      -3.632 -31.019  -7.580  0.00  0.00    +0.000 OA
ATOM     23  H   UNL     1      -3.961 -30.669  -8.429  0.00  0.00    +0.000 HD
ENDBRANCH  21  22
ENDBRANCH  10  21
TORSDOF 3
ENDMDL
MODEL 3
REMARK VINA RESULT:      -5.1      2.340      3.563
REMARK  Name = 6223_Gliotoxin.pdbqt.pdb
REMARK  3 active torsions:
REMARK  status: ('A' for Active; 'I' for Inactive)
REMARK    1  A    between atoms: C_10  and  C_21
REMARK    2  A    between atoms: C_14  and  O_19
REMARK    3  A    between atoms: C_21  and  O_22
REMARK                            x       y       z     vdW  Elec       q    Type
REMARK                         _______ _______ _______ _____ _____    ______ ____
ROOT
ATOM      1  S   UNL     1      -7.293 -36.635  -4.468  0.00  0.00    +0.000 S 
ATOM      2  S   UNL     1      -8.771 -35.319  -3.882  0.00  0.00    +0.000 S 
ATOM      3  O   UNL     1      -6.747 -32.388  -4.555  0.00  0.00    +0.000 OA
ATOM      4  O   UNL     1      -5.464 -36.415  -1.429  0.00  0.00    +0.000 OA
ATOM      5  N   UNL     1      -5.700 -34.416  -4.284  0.00  0.00    +0.000 N 
ATOM      6  N   UNL     1      -6.966 -34.666  -1.893  0.00  0.00    +0.000 N 
ATOM      7  C   UNL     1      -5.831 -35.808  -3.753  0.00  0.00    +0.000 C 
ATOM      8  C   UNL     1      -4.545 -34.271  -5.053  0.00  0.00    +0.000 A 
ATOM      9  C   UNL     1      -4.575 -36.405  -4.200  0.00  0.00    +0.000 C 
ATOM     10  C   UNL     1      -7.757 -34.026  -2.995  0.00  0.00    +0.000 C 
ATOM     11  C   UNL     1      -3.745 -35.540  -4.927  0.00  0.00    +0.000 A 
ATOM     12  C   UNL     1      -6.700 -33.491  -4.013  0.00  0.00    +0.000 C 
ATOM     13  C   UNL     1      -6.021 -35.674  -2.241  0.00  0.00    +0.000 C 
ATOM     14  C   UNL     1      -4.262 -33.321  -6.155  0.00  0.00    +0.000 A 
ATOM     15  C   UNL     1      -3.018 -35.800  -5.975  0.00  0.00    +0.000 A 
ATOM     16  C   UNL     1      -3.332 -33.875  -7.102  0.00  0.00    +0.000 A 
ATOM     17  C   UNL     1      -7.339 -34.339  -0.517  0.00  0.00    +0.000 C 
ATOM     18  C   UNL     1      -2.727 -34.909  -7.193  0.00  0.00    +0.000 A 
ENDROOT
BRANCH  14  19
ATOM     19  O   UNL     1      -5.129 -32.334  -6.525  0.00  0.00    +0.000 OA
ATOM     20  H   UNL     1      -4.872 -31.889  -7.358  0.00  0.00    +0.000 HD
ENDBRANCH  14  19
BRANCH  10  21
ATOM     21  C   UNL     1      -8.665 -32.931  -2.558  0.00  0.00    +0.000 C 
BRANCH  21  22
ATOM     22  O   UNL     1      -9.485 -31.959  -2.150  0.00  0.00    +0.000 OA
ATOM     23  H   UNL     1      -9.207 -31.092  -2.500  0.00  0.00    +0.000 HD
ENDBRANCH  21  22
ENDBRANCH  10  21
TORSDOF 3
ENDMDL
MODEL 4
REMARK VINA RESULT:      -4.9     11.448     13.276
REMARK  Name = 6223_Gliotoxin.pdbqt.pdb
REMARK  3 active torsions:
REMARK  status: ('A' for Active; 'I' for Inactive)
REMARK    1  A    between atoms: C_10  and  C_21
REMARK    2  A    between atoms: C_14  and  O_19
REMARK    3  A    between atoms: C_21  and  O_22
REMARK                            x       y       z     vdW  Elec       q    Type
REMARK                         _______ _______ _______ _____ _____    ______ ____
ROOT
ATOM      1  S   UNL     1      -6.396 -28.535 -18.274  0.00  0.00    +0.000 S 
ATOM      2  S   UNL     1      -7.019 -30.305 -17.415  0.00  0.00    +0.000 S 
ATOM      3  O   UNL     1     -10.349 -29.056 -16.712  0.00  0.00    +0.000 OA
ATOM      4  O   UNL     1      -5.814 -26.882 -15.182  0.00  0.00    +0.000 OA
ATOM      5  N   UNL     1      -8.660 -27.546 -17.096  0.00  0.00    +0.000 N 
ATOM      6  N   UNL     1      -7.228 -28.761 -15.132  0.00  0.00    +0.000 N 
ATOM      7  C   UNL     1      -7.179 -27.339 -17.140  0.00  0.00    +0.000 C 
ATOM      8  C   UNL     1      -9.343 -26.446 -17.617  0.00  0.00    +0.000 A 
ATOM      9  C   UNL     1      -7.097 -25.965 -17.628  0.00  0.00    +0.000 C 
ATOM     10  C   UNL     1      -8.055 -29.662 -16.000  0.00  0.00    +0.000 C 
ATOM     11  C   UNL     1      -8.336 -25.360 -17.880  0.00  0.00    +0.000 A 
ATOM     12  C   UNL     1      -9.163 -28.749 -16.617  0.00  0.00    +0.000 C 
ATOM     13  C   UNL     1      -6.669 -27.589 -15.719  0.00  0.00    +0.000 C 
ATOM     14  C   UNL     1     -10.684 -26.384 -18.246  0.00  0.00    +0.000 A 
ATOM     15  C   UNL     1      -8.670 -24.569 -18.858  0.00  0.00    +0.000 A 
ATOM     16  C   UNL     1     -10.762 -25.326 -19.216  0.00  0.00    +0.000 A 
ATOM     17  C   UNL     1      -6.904 -29.232 -13.786  0.00  0.00    +0.000 C 
ATOM     18  C   UNL     1     -10.005 -24.482 -19.616  0.00  0.00    +0.000 A 
ENDROOT
BRANCH  14  19
ATOM     19  O   UNL     1     -11.520 -27.461 -18.319  0.00  0.00    +0.000 OA
ATOM     20  H   UNL     1     -11.117 -28.230 -18.770  0.00  0.00    +0.000 HD
ENDBRANCH  14  19
BRANCH  10  21
ATOM     21  C   UNL     1      -8.664 -30.822 -15.295  0.00  0.00    +0.000 C 
BRANCH  21  22
ATOM     22  O   UNL     1      -9.203 -31.857 -14.645  0.00  0.00    +0.000 OA
ATOM     23  H   UNL     1      -9.519 -31.593 -13.761  0.00  0.00    +0.000 HD
ENDBRANCH  21  22
ENDBRANCH  10  21
TORSDOF 3
ENDMDL
MODEL 5
REMARK VINA RESULT:      -4.9     17.256     19.184
REMARK  Name = 6223_Gliotoxin.pdbqt.pdb
REMARK  3 active torsions:
REMARK  status: ('A' for Active; 'I' for Inactive)
REMARK    1  A    between atoms: C_10  and  C_21
REMARK    2  A    between atoms: C_14  and  O_19
REMARK    3  A    between atoms: C_21  and  O_22
REMARK                            x       y       z     vdW  Elec       q    Type
REMARK                         _______ _______ _______ _____ _____    ______ ____
ROOT
ATOM      1  S   UNL     1      -3.485 -17.135 -14.334  0.00  0.00    +0.000 S 
ATOM      2  S   UNL     1      -4.298 -18.336 -15.803  0.00  0.00    +0.000 S 
ATOM      3  O   UNL     1      -1.280 -20.308 -16.182  0.00  0.00    +0.000 OA
ATOM      4  O   UNL     1      -1.664 -15.081 -16.590  0.00  0.00    +0.000 OA
ATOM      5  N   UNL     1      -1.131 -18.238 -15.193  0.00  0.00    +0.000 N 
ATOM      6  N   UNL     1      -2.345 -17.186 -17.385  0.00  0.00    +0.000 N 
ATOM      7  C   UNL     1      -1.800 -16.914 -15.001  0.00  0.00    +0.000 C 
ATOM      8  C   UNL     1      -0.030 -18.379 -14.348  0.00  0.00    +0.000 A 
ATOM      9  C   UNL     1      -0.898 -16.274 -14.048  0.00  0.00    +0.000 C 
ATOM     10  C   UNL     1      -2.833 -18.534 -16.943  0.00  0.00    +0.000 C 
ATOM     11  C   UNL     1       0.195 -17.060 -13.660  0.00  0.00    +0.000 A 
ATOM     12  C   UNL     1      -1.670 -19.145 -16.098  0.00  0.00    +0.000 C 
ATOM     13  C   UNL     1      -1.892 -16.275 -16.388  0.00  0.00    +0.000 C 
ATOM     14  C   UNL     1       0.589 -19.614 -13.810  0.00  0.00    +0.000 A 
ATOM     15  C   UNL     1       0.736 -17.176 -12.482  0.00  0.00    +0.000 A 
ATOM     16  C   UNL     1       1.200 -19.380 -12.529  0.00  0.00    +0.000 A 
ATOM     17  C   UNL     1      -2.528 -16.830 -18.792  0.00  0.00    +0.000 C 
ATOM     18  C   UNL     1       1.337 -18.424 -11.814  0.00  0.00    +0.000 A 
ENDROOT
BRANCH  14  19
ATOM     19  O   UNL     1       0.185 -20.866 -14.172  0.00  0.00    +0.000 OA
ATOM     20  H   UNL     1      -0.654 -21.137 -13.747  0.00  0.00    +0.000 HD
ENDBRANCH  14  19
BRANCH  10  21
ATOM     21  C   UNL     1      -3.216 -19.453 -18.049  0.00  0.00    +0.000 C 
BRANCH  21  22
ATOM     22  O   UNL     1      -3.542 -20.284 -19.042  0.00  0.00    +0.000 OA
ATOM     23  H   UNL     1      -4.213 -20.932 -18.755  0.00  0.00    +0.000 HD
ENDBRANCH  21  22
ENDBRANCH  10  21
TORSDOF 3
ENDMDL
MODEL 6
REMARK VINA RESULT:      -4.8     18.663     21.037
REMARK  Name = 6223_Gliotoxin.pdbqt.pdb
REMARK  3 active torsions:
REMARK  status: ('A' for Active; 'I' for Inactive)
REMARK    1  A    between atoms: C_10  and  C_21
REMARK    2  A    between atoms: C_14  and  O_19
REMARK    3  A    between atoms: C_21  and  O_22
REMARK                            x       y       z     vdW  Elec       q    Type
REMARK                         _______ _______ _______ _____ _____    ______ ____
ROOT
ATOM      1  S   UNL     1      -5.247 -14.592 -17.296  0.00  0.00    +0.000 S 
ATOM      2  S   UNL     1      -4.230 -16.379 -17.483  0.00  0.00    +0.000 S 
ATOM      3  O   UNL     1      -6.902 -18.318 -15.984  0.00  0.00    +0.000 OA
ATOM      4  O   UNL     1      -4.486 -14.165 -13.851  0.00  0.00    +0.000 OA
ATOM      5  N   UNL     1      -6.840 -16.051 -15.614  0.00  0.00    +0.000 N 
ATOM      6  N   UNL     1      -4.290 -16.342 -14.720  0.00  0.00    +0.000 N 
ATOM      7  C   UNL     1      -5.989 -14.821 -15.644  0.00  0.00    +0.000 C 
ATOM      8  C   UNL     1      -8.184 -15.735 -15.412  0.00  0.00    +0.000 A 
ATOM      9  C   UNL     1      -6.969 -13.787 -15.321  0.00  0.00    +0.000 C 
ATOM     10  C   UNL     1      -4.688 -17.212 -15.875  0.00  0.00    +0.000 C 
ATOM     11  C   UNL     1      -8.272 -14.261 -15.120  0.00  0.00    +0.000 A 
ATOM     12  C   UNL     1      -6.247 -17.290 -15.824  0.00  0.00    +0.000 C 
ATOM     13  C   UNL     1      -4.873 -15.046 -14.621  0.00  0.00    +0.000 C 
ATOM     14  C   UNL     1      -9.396 -16.487 -15.812  0.00  0.00    +0.000 A 
ATOM     15  C   UNL     1      -9.399 -13.726 -15.492  0.00  0.00    +0.000 A 
ATOM     16  C   UNL     1     -10.507 -15.607 -16.053  0.00  0.00    +0.000 A 
ATOM     17  C   UNL     1      -3.200 -16.812 -13.865  0.00  0.00    +0.000 C 
ATOM     18  C   UNL     1     -10.679 -14.418 -15.987  0.00  0.00    +0.000 A 
ENDROOT
BRANCH  14  19
ATOM     19  O   UNL     1      -9.346 -17.721 -16.394  0.00  0.00    +0.000 OA
ATOM     20  H   UNL     1      -9.110 -18.433 -15.765  0.00  0.00    +0.000 HD
ENDBRANCH  14  19
BRANCH  10  21
ATOM     21  C   UNL     1      -4.094 -18.576 -15.863  0.00  0.00    +0.000 C 
BRANCH  21  22
ATOM     22  O   UNL     1      -3.571 -19.804 -15.837  0.00  0.00    +0.000 OA
ATOM     23  H   UNL     1      -3.543 -20.196 -16.730  0.00  0.00    +0.000 HD
ENDBRANCH  21  22
ENDBRANCH  10  21
TORSDOF 3
ENDMDL
MODEL 7
REMARK VINA RESULT:      -4.7      2.216      3.138
REMARK  Name = 6223_Gliotoxin.pdbqt.pdb
REMARK  3 active torsions:
REMARK  status: ('A' for Active; 'I' for Inactive)
REMARK    1  A    between atoms: C_10  and  C_21
REMARK    2  A    between atoms: C_14  and  O_19
REMARK    3  A    between atoms: C_21  and  O_22
REMARK                            x       y       z     vdW  Elec       q    Type
REMARK                         _______ _______ _______ _____ _____    ______ ____
ROOT
ATOM      1  S   UNL     1      -4.791 -37.911  -5.383  0.00  0.00    +0.000 S 
ATOM      2  S   UNL     1      -5.761 -37.923  -3.560  0.00  0.00    +0.000 S 
ATOM      3  O   UNL     1      -5.859 -34.306  -3.331  0.00  0.00    +0.000 OA
ATOM      4  O   UNL     1      -1.574 -37.275  -4.013  0.00  0.00    +0.000 OA
ATOM      5  N   UNL     1      -4.346 -35.283  -4.759  0.00  0.00    +0.000 N 
ATOM      6  N   UNL     1      -3.426 -36.747  -2.663  0.00  0.00    +0.000 N 
ATOM      7  C   UNL     1      -3.616 -36.542  -5.107  0.00  0.00    +0.000 C 
ATOM      8  C   UNL     1      -4.179 -34.309  -5.744  0.00  0.00    +0.000 A 
ATOM      9  C   UNL     1      -2.924 -36.142  -6.330  0.00  0.00    +0.000 C 
ATOM     10  C   UNL     1      -4.906 -36.504  -2.699  0.00  0.00    +0.000 C 
ATOM     11  C   UNL     1      -3.169 -34.822  -6.734  0.00  0.00    +0.000 A 
ATOM     12  C   UNL     1      -5.100 -35.237  -3.593  0.00  0.00    +0.000 C 
ATOM     13  C   UNL     1      -2.734 -36.874  -3.902  0.00  0.00    +0.000 C 
ATOM     14  C   UNL     1      -5.064 -33.177  -6.106  0.00  0.00    +0.000 A 
ATOM     15  C   UNL     1      -3.342 -34.360  -7.939  0.00  0.00    +0.000 A 
ATOM     16  C   UNL     1      -4.943 -32.837  -7.497  0.00  0.00    +0.000 A 
ATOM     17  C   UNL     1      -2.818 -37.013  -1.360  0.00  0.00    +0.000 C 
ATOM     18  C   UNL     1      -4.284 -33.244  -8.417  0.00  0.00    +0.000 A 
ENDROOT
BRANCH  14  19
ATOM     19  O   UNL     1      -6.197 -32.868  -5.409  0.00  0.00    +0.000 OA
ATOM     20  H   UNL     1      -6.500 -33.594  -4.827  0.00  0.00    +0.000 HD
ENDBRANCH  14  19
BRANCH  10  21
ATOM     21  C   UNL     1      -5.539 -36.308  -1.368  0.00  0.00    +0.000 C 
BRANCH  21  22
ATOM     22  O   UNL     1      -6.117 -36.117  -0.179  0.00  0.00    +0.000 OA
ATOM     23  H   UNL     1      -6.701 -36.863   0.055  0.00  0.00    +0.000 HD
ENDBRANCH  21  22
ENDBRANCH  10  21
TORSDOF 3
ENDMDL
MODEL 8
REMARK VINA RESULT:      -4.6     18.317     20.151
REMARK  Name = 6223_Gliotoxin.pdbqt.pdb
REMARK  3 active torsions:
REMARK  status: ('A' for Active; 'I' for Inactive)
REMARK    1  A    between atoms: C_10  and  C_21
REMARK    2  A    between atoms: C_14  and  O_19
REMARK    3  A    between atoms: C_21  and  O_22
REMARK                            x       y       z     vdW  Elec       q    Type
REMARK                         _______ _______ _______ _____ _____    ______ ____
ROOT
ATOM      1  S   UNL     1      -6.751 -16.283 -18.263  0.00  0.00    +0.000 S 
ATOM      2  S   UNL     1      -6.707 -14.385 -17.452  0.00  0.00    +0.000 S 
ATOM      3  O   UNL     1      -4.667 -15.391 -14.629  0.00  0.00    +0.000 OA
ATOM      4  O   UNL     1      -9.265 -17.497 -16.064  0.00  0.00    +0.000 OA
ATOM      5  N   UNL     1      -5.817 -17.005 -15.793  0.00  0.00    +0.000 N 
ATOM      6  N   UNL     1      -8.092 -15.577 -15.378  0.00  0.00    +0.000 N 
ATOM      7  C   UNL     1      -6.942 -17.273 -16.742  0.00  0.00    +0.000 C 
ATOM      8  C   UNL     1      -5.028 -18.141 -15.605  0.00  0.00    +0.000 A 
ATOM      9  C   UNL     1      -6.781 -18.705 -16.980  0.00  0.00    +0.000 C 
ATOM     10  C   UNL     1      -6.848 -14.778 -15.632  0.00  0.00    +0.000 C 
ATOM     11  C   UNL     1      -5.704 -19.292 -16.301  0.00  0.00    +0.000 A 
ATOM     12  C   UNL     1      -5.660 -15.727 -15.272  0.00  0.00    +0.000 C 
ATOM     13  C   UNL     1      -8.222 -16.842 -16.022  0.00  0.00    +0.000 C 
ATOM     14  C   UNL     1      -3.601 -18.240 -15.221  0.00  0.00    +0.000 A 
ATOM     15  C   UNL     1      -4.874 -20.201 -16.723  0.00  0.00    +0.000 A 
ATOM     16  C   UNL     1      -2.990 -19.422 -15.765  0.00  0.00    +0.000 A 
ATOM     17  C   UNL     1      -9.167 -14.931 -14.627  0.00  0.00    +0.000 C 
ATOM     18  C   UNL     1      -3.371 -20.344 -16.436  0.00  0.00    +0.000 A 
ENDROOT
BRANCH  14  19
ATOM     19  O   UNL     1      -2.844 -17.154 -14.889  0.00  0.00    +0.000 OA
ATOM     20  H   UNL     1      -2.670 -16.560 -15.647  0.00  0.00    +0.000 HD
ENDBRANCH  14  19
BRANCH  10  21
ATOM     21  C   UNL     1      -6.755 -13.507 -14.865  0.00  0.00    +0.000 C 
BRANCH  21  22
ATOM     22  O   UNL     1      -6.659 -12.374 -14.164  0.00  0.00    +0.000 OA
ATOM     23  H   UNL     1      -7.446 -11.812 -14.292  0.00  0.00    +0.000 HD
ENDBRANCH  21  22
ENDBRANCH  10  21
TORSDOF 3
ENDMDL
MODEL 9
REMARK VINA RESULT:      -4.5     21.598     23.407
REMARK  Name = 6223_Gliotoxin.pdbqt.pdb
REMARK  3 active torsions:
REMARK  status: ('A' for Active; 'I' for Inactive)
REMARK    1  A    between atoms: C_10  and  C_21
REMARK    2  A    between atoms: C_14  and  O_19
REMARK    3  A    between atoms: C_21  and  O_22
REMARK                            x       y       z     vdW  Elec       q    Type
REMARK                         _______ _______ _______ _____ _____    ______ ____
ROOT
ATOM      1  S   UNL     1     -18.786 -14.851 -12.403  0.00  0.00    +0.000 S 
ATOM      2  S   UNL     1     -18.043 -15.105 -14.312  0.00  0.00    +0.000 S 
ATOM      3  O   UNL     1     -15.560 -17.531 -13.269  0.00  0.00    +0.000 OA
ATOM      4  O   UNL     1     -16.180 -12.677 -11.347  0.00  0.00    +0.000 OA
ATOM      5  N   UNL     1     -16.481 -16.141 -11.687  0.00  0.00    +0.000 N 
ATOM      6  N   UNL     1     -15.743 -14.025 -13.224  0.00  0.00    +0.000 N 
ATOM      7  C   UNL     1     -17.228 -14.867 -11.452  0.00  0.00    +0.000 C 
ATOM      8  C   UNL     1     -16.393 -16.902 -10.520  0.00  0.00    +0.000 A 
ATOM      9  C   UNL     1     -17.452 -14.928 -10.010  0.00  0.00    +0.000 C 
ATOM     10  C   UNL     1     -16.215 -15.244 -13.961  0.00  0.00    +0.000 C 
ATOM     11  C   UNL     1     -16.940 -16.075  -9.388  0.00  0.00    +0.000 A 
ATOM     12  C   UNL     1     -16.025 -16.434 -12.966  0.00  0.00    +0.000 C 
ATOM     13  C   UNL     1     -16.324 -13.740 -11.954  0.00  0.00    +0.000 C 
ATOM     14  C   UNL     1     -16.240 -18.368 -10.364  0.00  0.00    +0.000 A 
ATOM     15  C   UNL     1     -17.467 -16.787  -8.434  0.00  0.00    +0.000 A 
ATOM     16  C   UNL     1     -16.845 -18.833  -9.145  0.00  0.00    +0.000 A 
ATOM     17  C   UNL     1     -14.845 -13.114 -13.932  0.00  0.00    +0.000 C 
ATOM     18  C   UNL     1     -17.422 -18.310  -8.229  0.00  0.00    +0.000 A 
ENDROOT
BRANCH  14  19
ATOM     19  O   UNL     1     -16.063 -19.213 -11.421  0.00  0.00    +0.000 OA
ATOM     20  H   UNL     1     -16.546 -18.931 -12.224  0.00  0.00    +0.000 HD
ENDBRANCH  14  19
BRANCH  10  21
ATOM     21  C   UNL     1     -15.506 -15.513 -15.241  0.00  0.00    +0.000 C 
BRANCH  21  22
ATOM     22  O   UNL     1     -14.877 -15.771 -16.390  0.00  0.00    +0.000 OA
ATOM     23  H   UNL     1     -14.898 -14.999 -16.986  0.00  0.00    +0.000 HD
ENDBRANCH  21  22
ENDBRANCH  10  21
TORSDOF 3
ENDMDL
