MODEL 1
REMARK VINA RESULT:      -4.6      0.000      0.000
REMARK  Name = 6256_Trifluridine.pdbqt.pdb
REMARK  5 active torsions:
REMARK  status: ('A' for Active; 'I' for Inactive)
REMARK    1  A    between atoms: N_3  and  C1*_11
REMARK    2  A    between atoms: C_7  and  C_23
REMARK    3  A    between atoms: C3*_12  and  O3*_15
REMARK    4  A    between atoms: C4*_14  and  C5*_17
REMARK    5  A    between atoms: C5*_17  and  O5*_18
REMARK                            x       y       z     vdW  Elec       q    Type
REMARK                         _______ _______ _______ _____ _____    ______ ____
ROOT
ATOM      1  O   UNL     1      -2.557 -37.612  -7.254  0.00  0.00    +0.000 OA
ATOM      2  O   UNL     1      -2.675 -34.245 -10.371  0.00  0.00    +0.000 OA
ATOM      3  N   UNL     1      -3.095 -35.427  -6.514  0.00  0.00    +0.000 N 
ATOM      4  N   UNL     1      -2.639 -35.886  -8.767  0.00  0.00    +0.000 N 
ATOM      5  C   UNL     1      -3.256 -34.172  -6.978  0.00  0.00    +0.000 A 
ATOM      6  C   UNL     1      -2.752 -36.419  -7.460  0.00  0.00    +0.000 A 
ATOM      7  C   UNL     1      -3.173 -33.597  -8.133  0.00  0.00    +0.000 A 
ATOM      8  C   UNL     1      -2.814 -34.566  -9.199  0.00  0.00    +0.000 A 
ATOM      9  H   UNL     1      -2.393 -36.557  -9.482  0.00  0.00    +0.000 HD
ENDROOT
BRANCH   3  11
ATOM     10  O4* UNL     1      -4.527 -35.870  -4.615  0.00  0.00    +0.000 OA
ATOM     11  C1* UNL     1      -3.263 -35.669  -5.180  0.00  0.00    +0.000 A 
ATOM     12  C3* UNL     1      -2.922 -35.985  -2.949  0.00  0.00    +0.000 A 
ATOM     13  C2* UNL     1      -2.280 -35.727  -4.173  0.00  0.00    +0.000 A 
ATOM     14  C4* UNL     1      -4.332 -36.064  -3.241  0.00  0.00    +0.000 A 
BRANCH  12  15
ATOM     15  O3* UNL     1      -2.480 -35.530  -1.739  0.00  0.00    +0.000 OA
ATOM     16  H3* UNL     1      -2.341 -36.267  -1.119  0.00  0.00    +0.000 HD
ENDBRANCH  12  15
BRANCH  14  17
ATOM     17  C5* UNL     1      -5.399 -36.096  -2.323  0.00  0.00    +0.000 C 
BRANCH  17  18
ATOM     18  O5* UNL     1      -6.404 -36.124  -1.453  0.00  0.00    +0.000 OA
ATOM     19  H5* UNL     1      -7.168 -36.588  -1.837  0.00  0.00    +0.000 HD
ENDBRANCH  17  18
ENDBRANCH  14  17
ENDBRANCH   3  11
BRANCH   7  23
ATOM     20  F   UNL     1      -4.399 -31.999  -9.346  0.00  0.00    +0.000 F 
ATOM     21  F   UNL     1      -3.605 -31.410  -7.412  0.00  0.00    +0.000 F 
ATOM     22  F   UNL     1      -2.253 -31.659  -9.092  0.00  0.00    +0.000 F 
ATOM     23  C   UNL     1      -3.353 -32.187  -8.502  0.00  0.00    +0.000 C 
ENDBRANCH   7  23
TORSDOF 5
ENDMDL
MODEL 2
REMARK VINA RESULT:      -4.5     14.235     15.695
REMARK  Name = 6256_Trifluridine.pdbqt.pdb
REMARK  5 active torsions:
REMARK  status: ('A' for Active; 'I' for Inactive)
REMARK    1  A    between atoms: N_3  and  C1*_11
REMARK    2  A    between atoms: C_7  and  C_23
REMARK    3  A    between atoms: C3*_12  and  O3*_15
REMARK    4  A    between atoms: C4*_14  and  C5*_17
REMARK    5  A    between atoms: C5*_17  and  O5*_18
REMARK                            x       y       z     vdW  Elec       q    Type
REMARK                         _______ _______ _______ _____ _____    ______ ____
ROOT
ATOM      1  O   UNL     1      -6.049 -30.109  10.701  0.00  0.00    +0.000 OA
ATOM      2  O   UNL     1      -9.443 -27.872   8.570  0.00  0.00    +0.000 OA
ATOM      3  N   UNL     1      -6.583 -30.748   8.484  0.00  0.00    +0.000 N 
ATOM      4  N   UNL     1      -7.733 -29.022   9.580  0.00  0.00    +0.000 N 
ATOM      5  C   UNL     1      -7.428 -30.441   7.479  0.00  0.00    +0.000 A 
ATOM      6  C   UNL     1      -6.707 -29.995   9.674  0.00  0.00    +0.000 A 
ATOM      7  C   UNL     1      -8.383 -29.588   7.303  0.00  0.00    +0.000 A 
ATOM      8  C   UNL     1      -8.589 -28.745   8.508  0.00  0.00    +0.000 A 
ATOM      9  H   UNL     1      -7.863 -28.457  10.407  0.00  0.00    +0.000 HD
ENDROOT
BRANCH   3  11
ATOM     10  O4* UNL     1      -4.298 -31.537   8.415  0.00  0.00    +0.000 OA
ATOM     11  C1* UNL     1      -5.676 -31.752   8.307  0.00  0.00    +0.000 A 
ATOM     12  C3* UNL     1      -4.680 -33.757   7.880  0.00  0.00    +0.000 A 
ATOM     13  C2* UNL     1      -5.919 -33.099   7.972  0.00  0.00    +0.000 A 
ATOM     14  C4* UNL     1      -3.673 -32.763   8.153  0.00  0.00    +0.000 A 
BRANCH  12  15
ATOM     15  O3* UNL     1      -4.426 -34.802   7.036  0.00  0.00    +0.000 OA
ATOM     16  H3* UNL     1      -3.475 -34.870   6.842  0.00  0.00    +0.000 HD
ENDBRANCH  12  15
BRANCH  14  17
ATOM     17  C5* UNL     1      -2.280 -32.879   7.975  0.00  0.00    +0.000 C 
BRANCH  17  18
ATOM     18  O5* UNL     1      -0.966 -32.988   7.803  0.00  0.00    +0.000 OA
ATOM     19  H5* UNL     1      -0.555 -33.377   8.594  0.00  0.00    +0.000 HD
ENDBRANCH  17  18
ENDBRANCH  14  17
ENDBRANCH   3  11
BRANCH   7  23
ATOM     20  F   UNL     1     -10.536 -29.758   6.374  0.00  0.00    +0.000 F 
ATOM     21  F   UNL     1      -9.315 -28.057   5.794  0.00  0.00    +0.000 F 
ATOM     22  F   UNL     1      -8.825 -30.032   5.038  0.00  0.00    +0.000 F 
ATOM     23  C   UNL     1      -9.256 -29.373   6.141  0.00  0.00    +0.000 C 
ENDBRANCH   7  23
TORSDOF 5
ENDMDL
MODEL 3
REMARK VINA RESULT:      -4.3     19.813     22.222
REMARK  Name = 6256_Trifluridine.pdbqt.pdb
REMARK  5 active torsions:
REMARK  status: ('A' for Active; 'I' for Inactive)
REMARK    1  A    between atoms: N_3  and  C1*_11
REMARK    2  A    between atoms: C_7  and  C_23
REMARK    3  A    between atoms: C3*_12  and  O3*_15
REMARK    4  A    between atoms: C4*_14  and  C5*_17
REMARK    5  A    between atoms: C5*_17  and  O5*_18
REMARK                            x       y       z     vdW  Elec       q    Type
REMARK                         _______ _______ _______ _____ _____    ______ ____
ROOT
ATOM      1  O   UNL     1      -2.614 -14.068 -15.296  0.00  0.00    +0.000 OA
ATOM      2  O   UNL     1      -3.619 -18.333 -16.661  0.00  0.00    +0.000 OA
ATOM      3  N   UNL     1      -4.845 -14.822 -15.042  0.00  0.00    +0.000 N 
ATOM      4  N   UNL     1      -3.177 -16.195 -15.954  0.00  0.00    +0.000 N 
ATOM      5  C   UNL     1      -5.618 -15.904 -15.263  0.00  0.00    +0.000 A 
ATOM      6  C   UNL     1      -3.483 -14.925 -15.406  0.00  0.00    +0.000 A 
ATOM      7  C   UNL     1      -5.434 -17.086 -15.753  0.00  0.00    +0.000 A 
ATOM      8  C   UNL     1      -4.023 -17.290 -16.167  0.00  0.00    +0.000 A 
ATOM      9  H   UNL     1      -2.214 -16.319 -16.233  0.00  0.00    +0.000 HD
ENDROOT
BRANCH   3  11
ATOM     10  O4* UNL     1      -4.834 -13.044 -13.403  0.00  0.00    +0.000 OA
ATOM     11  C1* UNL     1      -5.407 -13.705 -14.495  0.00  0.00    +0.000 A 
ATOM     12  C3* UNL     1      -6.787 -11.957 -14.009  0.00  0.00    +0.000 A 
ATOM     13  C2* UNL     1      -6.602 -13.057 -14.866  0.00  0.00    +0.000 A 
ATOM     14  C4* UNL     1      -5.675 -11.967 -13.093  0.00  0.00    +0.000 A 
BRANCH  12  15
ATOM     15  O3* UNL     1      -8.009 -11.480 -13.627  0.00  0.00    +0.000 OA
ATOM     16  H3* UNL     1      -7.928 -10.891 -12.857  0.00  0.00    +0.000 HD
ENDBRANCH  12  15
BRANCH  14  17
ATOM     17  C5* UNL     1      -5.520 -11.200 -11.922  0.00  0.00    +0.000 C 
BRANCH  17  18
ATOM     18  O5* UNL     1      -5.370 -10.475 -10.816  0.00  0.00    +0.000 OA
ATOM     19  H5* UNL     1      -4.948 -11.008 -10.120  0.00  0.00    +0.000 HD
ENDBRANCH  17  18
ENDBRANCH  14  17
ENDBRANCH   3  11
BRANCH   7  23
ATOM     20  F   UNL     1      -5.970 -19.350 -15.414  0.00  0.00    +0.000 F 
ATOM     21  F   UNL     1      -7.597 -17.912 -15.394  0.00  0.00    +0.000 F 
ATOM     22  F   UNL     1      -6.637 -18.413 -17.275  0.00  0.00    +0.000 F 
ATOM     23  C   UNL     1      -6.389 -18.182 -15.962  0.00  0.00    +0.000 C 
ENDBRANCH   7  23
TORSDOF 5
ENDMDL
MODEL 4
REMARK VINA RESULT:      -4.3     16.256     18.092
REMARK  Name = 6256_Trifluridine.pdbqt.pdb
REMARK  5 active torsions:
REMARK  status: ('A' for Active; 'I' for Inactive)
REMARK    1  A    between atoms: N_3  and  C1*_11
REMARK    2  A    between atoms: C_7  and  C_23
REMARK    3  A    between atoms: C3*_12  and  O3*_15
REMARK    4  A    between atoms: C4*_14  and  C5*_17
REMARK    5  A    between atoms: C5*_17  and  O5*_18
REMARK                            x       y       z     vdW  Elec       q    Type
REMARK                         _______ _______ _______ _____ _____    ______ ____
ROOT
ATOM      1  O   UNL     1       1.400 -18.241 -16.874  0.00  0.00    +0.000 OA
ATOM      2  O   UNL     1      -2.745 -18.808 -18.760  0.00  0.00    +0.000 OA
ATOM      3  N   UNL     1      -0.255 -19.366 -15.607  0.00  0.00    +0.000 N 
ATOM      4  N   UNL     1      -0.691 -18.562 -17.766  0.00  0.00    +0.000 N 
ATOM      5  C   UNL     1      -1.539 -19.769 -15.682  0.00  0.00    +0.000 A 
ATOM      6  C   UNL     1       0.269 -18.691 -16.733  0.00  0.00    +0.000 A 
ATOM      7  C   UNL     1      -2.480 -19.696 -16.565  0.00  0.00    +0.000 A 
ATOM      8  C   UNL     1      -2.022 -18.997 -17.792  0.00  0.00    +0.000 A 
ATOM      9  H   UNL     1      -0.366 -18.084 -18.594  0.00  0.00    +0.000 HD
ENDROOT
BRANCH   3  11
ATOM     10  O4* UNL     1       1.341 -20.700 -14.373  0.00  0.00    +0.000 OA
ATOM     11  C1* UNL     1       0.457 -19.621 -14.470  0.00  0.00    +0.000 A 
ATOM     12  C3* UNL     1       1.312 -19.559 -12.359  0.00  0.00    +0.000 A 
ATOM     13  C2* UNL     1       0.424 -18.925 -13.245  0.00  0.00    +0.000 A 
ATOM     14  C4* UNL     1       1.874 -20.675 -13.078  0.00  0.00    +0.000 A 
BRANCH  12  15
ATOM     15  O3* UNL     1       1.138 -19.611 -11.005  0.00  0.00    +0.000 OA
ATOM     16  H3* UNL     1       1.979 -19.797 -10.552  0.00  0.00    +0.000 HD
ENDBRANCH  12  15
BRANCH  14  17
ATOM     17  C5* UNL     1       2.648 -21.730 -12.557  0.00  0.00    +0.000 C 
BRANCH  17  18
ATOM     18  O5* UNL     1       3.380 -22.724 -12.062  0.00  0.00    +0.000 OA
ATOM     19  H5* UNL     1       4.144 -22.369 -11.576  0.00  0.00    +0.000 HD
ENDBRANCH  17  18
ENDBRANCH  14  17
ENDBRANCH   3  11
BRANCH   7  23
ATOM     20  F   UNL     1      -4.122 -21.161 -17.393  0.00  0.00    +0.000 F 
ATOM     21  F   UNL     1      -4.180 -20.668 -15.279  0.00  0.00    +0.000 F 
ATOM     22  F   UNL     1      -4.765 -19.174 -16.741  0.00  0.00    +0.000 F 
ATOM     23  C   UNL     1      -3.871 -20.165 -16.506  0.00  0.00    +0.000 C 
ENDBRANCH   7  23
TORSDOF 5
ENDMDL
MODEL 5
REMARK VINA RESULT:      -4.1     18.586     19.949
REMARK  Name = 6256_Trifluridine.pdbqt.pdb
REMARK  5 active torsions:
REMARK  status: ('A' for Active; 'I' for Inactive)
REMARK    1  A    between atoms: N_3  and  C1*_11
REMARK    2  A    between atoms: C_7  and  C_23
REMARK    3  A    between atoms: C3*_12  and  O3*_15
REMARK    4  A    between atoms: C4*_14  and  C5*_17
REMARK    5  A    between atoms: C5*_17  and  O5*_18
REMARK                            x       y       z     vdW  Elec       q    Type
REMARK                         _______ _______ _______ _____ _____    ______ ____
ROOT
ATOM      1  O   UNL     1      -4.183 -20.136 -17.562  0.00  0.00    +0.000 OA
ATOM      2  O   UNL     1       0.090 -19.877 -15.907  0.00  0.00    +0.000 OA
ATOM      3  N   UNL     1      -3.690 -18.411 -16.015  0.00  0.00    +0.000 N 
ATOM      4  N   UNL     1      -2.061 -19.950 -16.704  0.00  0.00    +0.000 N 
ATOM      5  C   UNL     1      -2.673 -17.922 -15.278  0.00  0.00    +0.000 A 
ATOM      6  C   UNL     1      -3.410 -19.536 -16.823  0.00  0.00    +0.000 A 
ATOM      7  C   UNL     1      -1.430 -18.228 -15.102  0.00  0.00    +0.000 A 
ATOM      8  C   UNL     1      -1.038 -19.406 -15.917  0.00  0.00    +0.000 A 
ATOM      9  H   UNL     1      -1.809 -20.753 -17.262  0.00  0.00    +0.000 HD
ENDROOT
BRANCH   3  11
ATOM     10  O4* UNL     1      -5.058 -16.423 -15.853  0.00  0.00    +0.000 OA
ATOM     11  C1* UNL     1      -4.915 -17.812 -15.938  0.00  0.00    +0.000 A 
ATOM     12  C3* UNL     1      -7.153 -17.407 -15.801  0.00  0.00    +0.000 A 
ATOM     13  C2* UNL     1      -6.185 -18.421 -15.897  0.00  0.00    +0.000 A 
ATOM     14  C4* UNL     1      -6.431 -16.160 -15.767  0.00  0.00    +0.000 A 
BRANCH  12  15
ATOM     15  O3* UNL     1      -8.348 -17.546 -15.153  0.00  0.00    +0.000 OA
ATOM     16  H3* UNL     1      -8.834 -16.703 -15.132  0.00  0.00    +0.000 HD
ENDBRANCH  12  15
BRANCH  14  17
ATOM     17  C5* UNL     1      -6.939 -14.882 -15.466  0.00  0.00    +0.000 C 
BRANCH  17  18
ATOM     18  O5* UNL     1      -7.415 -13.673 -15.179  0.00  0.00    +0.000 OA
ATOM     19  H5* UNL     1      -7.524 -13.574 -14.218  0.00  0.00    +0.000 HD
ENDBRANCH  17  18
ENDBRANCH  14  17
ENDBRANCH   3  11
BRANCH   7  23
ATOM     20  F   UNL     1       0.679 -17.205 -14.920  0.00  0.00    +0.000 F 
ATOM     21  F   UNL     1      -0.901 -16.504 -13.606  0.00  0.00    +0.000 F 
ATOM     22  F   UNL     1       0.002 -18.446 -13.251  0.00  0.00    +0.000 F 
ATOM     23  C   UNL     1      -0.418 -17.612 -14.234  0.00  0.00    +0.000 C 
ENDBRANCH   7  23
TORSDOF 5
ENDMDL
MODEL 6
REMARK VINA RESULT:      -3.8     18.140     20.576
REMARK  Name = 6256_Trifluridine.pdbqt.pdb
REMARK  5 active torsions:
REMARK  status: ('A' for Active; 'I' for Inactive)
REMARK    1  A    between atoms: N_3  and  C1*_11
REMARK    2  A    between atoms: C_7  and  C_23
REMARK    3  A    between atoms: C3*_12  and  O3*_15
REMARK    4  A    between atoms: C4*_14  and  C5*_17
REMARK    5  A    between atoms: C5*_17  and  O5*_18
REMARK                            x       y       z     vdW  Elec       q    Type
REMARK                         _______ _______ _______ _____ _____    ______ ____
ROOT
ATOM      1  O   UNL     1      -5.942 -18.990 -15.654  0.00  0.00    +0.000 OA
ATOM      2  O   UNL     1      -1.692 -20.691 -15.973  0.00  0.00    +0.000 OA
ATOM      3  N   UNL     1      -4.124 -17.479 -15.507  0.00  0.00    +0.000 N 
ATOM      4  N   UNL     1      -3.792 -19.780 -15.814  0.00  0.00    +0.000 N 
ATOM      5  C   UNL     1      -2.777 -17.454 -15.537  0.00  0.00    +0.000 A 
ATOM      6  C   UNL     1      -4.742 -18.742 -15.654  0.00  0.00    +0.000 A 
ATOM      7  C   UNL     1      -1.839 -18.333 -15.671  0.00  0.00    +0.000 A 
ATOM      8  C   UNL     1      -2.395 -19.700 -15.834  0.00  0.00    +0.000 A 
ATOM      9  H   UNL     1      -4.184 -20.705 -15.922  0.00  0.00    +0.000 HD
ENDROOT
BRANCH   3  11
ATOM     10  O4* UNL     1      -4.267 -15.232 -14.625  0.00  0.00    +0.000 OA
ATOM     11  C1* UNL     1      -4.807 -16.310 -15.333  0.00  0.00    +0.000 A 
ATOM     12  C3* UNL     1      -6.396 -14.676 -15.345  0.00  0.00    +0.000 A 
ATOM     13  C2* UNL     1      -6.108 -15.985 -15.768  0.00  0.00    +0.000 A 
ATOM     14  C4* UNL     1      -5.235 -14.219 -14.624  0.00  0.00    +0.000 A 
BRANCH  12  15
ATOM     15  O3* UNL     1      -7.647 -14.233 -15.018  0.00  0.00    +0.000 OA
ATOM     16  H3* UNL     1      -8.128 -13.933 -15.808  0.00  0.00    +0.000 HD
ENDBRANCH  12  15
BRANCH  14  17
ATOM     17  C5* UNL     1      -5.117 -13.061 -13.831  0.00  0.00    +0.000 C 
BRANCH  17  18
ATOM     18  O5* UNL     1      -5.003 -11.969 -13.080  0.00  0.00    +0.000 OA
ATOM     19  H5* UNL     1      -5.439 -11.216 -13.515  0.00  0.00    +0.000 HD
ENDBRANCH  17  18
ENDBRANCH  14  17
ENDBRANCH   3  11
BRANCH   7  23
ATOM     20  F   UNL     1      -0.003 -16.875 -15.495  0.00  0.00    +0.000 F 
ATOM     21  F   UNL     1       0.198 -18.862 -14.642  0.00  0.00    +0.000 F 
ATOM     22  F   UNL     1       0.203 -18.619 -16.800  0.00  0.00    +0.000 F 
ATOM     23  C   UNL     1      -0.380 -18.168 -15.661  0.00  0.00    +0.000 C 
ENDBRANCH   7  23
TORSDOF 5
ENDMDL
MODEL 7
REMARK VINA RESULT:      -3.8     12.002     12.892
REMARK  Name = 6256_Trifluridine.pdbqt.pdb
REMARK  5 active torsions:
REMARK  status: ('A' for Active; 'I' for Inactive)
REMARK    1  A    between atoms: N_3  and  C1*_11
REMARK    2  A    between atoms: C_7  and  C_23
REMARK    3  A    between atoms: C3*_12  and  O3*_15
REMARK    4  A    between atoms: C4*_14  and  C5*_17
REMARK    5  A    between atoms: C5*_17  and  O5*_18
REMARK                            x       y       z     vdW  Elec       q    Type
REMARK                         _______ _______ _______ _____ _____    ______ ____
ROOT
ATOM      1  O   UNL     1       6.140 -27.223  -4.607  0.00  0.00    +0.000 OA
ATOM      2  O   UNL     1       4.927 -22.814  -4.210  0.00  0.00    +0.000 OA
ATOM      3  N   UNL     1       5.276 -26.488  -2.527  0.00  0.00    +0.000 N 
ATOM      4  N   UNL     1       5.509 -25.030  -4.349  0.00  0.00    +0.000 N 
ATOM      5  C   UNL     1       4.805 -25.381  -1.919  0.00  0.00    +0.000 A 
ATOM      6  C   UNL     1       5.683 -26.353  -3.874  0.00  0.00    +0.000 A 
ATOM      7  C   UNL     1       4.615 -24.149  -2.262  0.00  0.00    +0.000 A 
ATOM      8  C   UNL     1       5.015 -23.908  -3.672  0.00  0.00    +0.000 A 
ATOM      9  H   UNL     1       5.787 -24.880  -5.308  0.00  0.00    +0.000 HD
ENDROOT
BRANCH   3  11
ATOM     10  O4* UNL     1       4.382 -28.664  -1.966  0.00  0.00    +0.000 OA
ATOM     11  C1* UNL     1       5.342 -27.656  -1.823  0.00  0.00    +0.000 A 
ATOM     12  C3* UNL     1       5.947 -29.322  -0.391  0.00  0.00    +0.000 A 
ATOM     13  C2* UNL     1       6.293 -28.043  -0.859  0.00  0.00    +0.000 A 
ATOM     14  C4* UNL     1       4.742 -29.695  -1.089  0.00  0.00    +0.000 A 
BRANCH  12  15
ATOM     15  O3* UNL     1       6.191 -29.768   0.877  0.00  0.00    +0.000 OA
ATOM     16  H3* UNL     1       6.553 -29.056   1.433  0.00  0.00    +0.000 HD
ENDBRANCH  12  15
BRANCH  14  17
ATOM     17  C5* UNL     1       3.894 -30.787  -0.817  0.00  0.00    +0.000 C 
BRANCH  17  18
ATOM     18  O5* UNL     1       3.096 -31.820  -0.562  0.00  0.00    +0.000 OA
ATOM     19  H5* UNL     1       3.461 -32.631  -0.955  0.00  0.00    +0.000 HD
ENDBRANCH  17  18
ENDBRANCH  14  17
ENDBRANCH   3  11
BRANCH   7  23
ATOM     20  F   UNL     1       2.860 -22.638  -1.857  0.00  0.00    +0.000 F 
ATOM     21  F   UNL     1       4.019 -23.322  -0.152  0.00  0.00    +0.000 F 
ATOM     22  F   UNL     1       4.907 -21.926  -1.558  0.00  0.00    +0.000 F 
ATOM     23  C   UNL     1       4.106 -23.017  -1.477  0.00  0.00    +0.000 C 
ENDBRANCH   7  23
TORSDOF 5
ENDMDL
MODEL 8
REMARK VINA RESULT:      -3.7     18.498     19.936
REMARK  Name = 6256_Trifluridine.pdbqt.pdb
REMARK  5 active torsions:
REMARK  status: ('A' for Active; 'I' for Inactive)
REMARK    1  A    between atoms: N_3  and  C1*_11
REMARK    2  A    between atoms: C_7  and  C_23
REMARK    3  A    between atoms: C3*_12  and  O3*_15
REMARK    4  A    between atoms: C4*_14  and  C5*_17
REMARK    5  A    between atoms: C5*_17  and  O5*_18
REMARK                            x       y       z     vdW  Elec       q    Type
REMARK                         _______ _______ _______ _____ _____    ______ ____
ROOT
ATOM      1  O   UNL     1     -16.860 -19.723   2.456  0.00  0.00    +0.000 OA
ATOM      2  O   UNL     1     -16.183 -16.455  -0.695  0.00  0.00    +0.000 OA
ATOM      3  N   UNL     1     -15.090 -20.017   0.910  0.00  0.00    +0.000 N 
ATOM      4  N   UNL     1     -16.467 -18.119   0.861  0.00  0.00    +0.000 N 
ATOM      5  C   UNL     1     -14.502 -19.408  -0.139  0.00  0.00    +0.000 A 
ATOM      6  C   UNL     1     -16.185 -19.350   1.503  0.00  0.00    +0.000 A 
ATOM      7  C   UNL     1     -14.686 -18.306  -0.790  0.00  0.00    +0.000 A 
ATOM      8  C   UNL     1     -15.823 -17.530  -0.234  0.00  0.00    +0.000 A 
ATOM      9  H   UNL     1     -17.244 -17.603   1.247  0.00  0.00    +0.000 HD
ENDROOT
BRANCH   3  11
ATOM     10  O4* UNL     1     -15.410 -22.373   1.353  0.00  0.00    +0.000 OA
ATOM     11  C1* UNL     1     -14.612 -21.224   1.331  0.00  0.00    +0.000 A 
ATOM     12  C3* UNL     1     -13.300 -22.899   2.150  0.00  0.00    +0.000 A 
ATOM     13  C2* UNL     1     -13.328 -21.532   1.823  0.00  0.00    +0.000 A 
ATOM     14  C4* UNL     1     -14.615 -23.411   1.856  0.00  0.00    +0.000 A 
BRANCH  12  15
ATOM     15  O3* UNL     1     -12.546 -23.432   3.156  0.00  0.00    +0.000 OA
ATOM     16  H3* UNL     1     -12.695 -24.391   3.233  0.00  0.00    +0.000 HD
ENDBRANCH  12  15
BRANCH  14  17
ATOM     17  C5* UNL     1     -15.146 -24.667   2.209  0.00  0.00    +0.000 C 
BRANCH  17  18
ATOM     18  O5* UNL     1     -15.644 -25.855   2.540  0.00  0.00    +0.000 OA
ATOM     19  H5* UNL     1     -16.005 -25.829   3.442  0.00  0.00    +0.000 HD
ENDBRANCH  17  18
ENDBRANCH  14  17
ENDBRANCH   3  11
BRANCH   7  23
ATOM     20  F   UNL     1     -14.794 -17.532  -3.007  0.00  0.00    +0.000 F 
ATOM     21  F   UNL     1     -13.378 -16.573  -1.669  0.00  0.00    +0.000 F 
ATOM     22  F   UNL     1     -12.981 -18.584  -2.383  0.00  0.00    +0.000 F 
ATOM     23  C   UNL     1     -13.972 -17.765  -1.953  0.00  0.00    +0.000 C 
ENDBRANCH   7  23
TORSDOF 5
ENDMDL
MODEL 9
REMARK VINA RESULT:      -3.6     22.104     23.127
REMARK  Name = 6256_Trifluridine.pdbqt.pdb
REMARK  5 active torsions:
REMARK  status: ('A' for Active; 'I' for Inactive)
REMARK    1  A    between atoms: N_3  and  C1*_11
REMARK    2  A    between atoms: C_7  and  C_23
REMARK    3  A    between atoms: C3*_12  and  O3*_15
REMARK    4  A    between atoms: C4*_14  and  C5*_17
REMARK    5  A    between atoms: C5*_17  and  O5*_18
REMARK                            x       y       z     vdW  Elec       q    Type
REMARK                         _______ _______ _______ _____ _____    ______ ____
ROOT
ATOM      1  O   UNL     1     -19.882 -18.942  -6.784  0.00  0.00    +0.000 OA
ATOM      2  O   UNL     1     -18.086 -19.178 -11.001  0.00  0.00    +0.000 OA
ATOM      3  N   UNL     1     -18.107 -17.469  -7.323  0.00  0.00    +0.000 N 
ATOM      4  N   UNL     1     -18.947 -19.008  -8.881  0.00  0.00    +0.000 N 
ATOM      5  C   UNL     1     -17.284 -17.147  -8.340  0.00  0.00    +0.000 A 
ATOM      6  C   UNL     1     -19.049 -18.495  -7.564  0.00  0.00    +0.000 A 
ATOM      7  C   UNL     1     -17.114 -17.553  -9.556  0.00  0.00    +0.000 A 
ATOM      8  C   UNL     1     -18.067 -18.638  -9.904  0.00  0.00    +0.000 A 
ATOM      9  H   UNL     1     -19.599 -19.746  -9.103  0.00  0.00    +0.000 HD
ENDROOT
BRANCH   3  11
ATOM     10  O4* UNL     1     -18.350 -15.463  -5.994  0.00  0.00    +0.000 OA
ATOM     11  C1* UNL     1     -17.987 -16.807  -6.135  0.00  0.00    +0.000 A 
ATOM     12  C3* UNL     1     -17.535 -16.247  -3.973  0.00  0.00    +0.000 A 
ATOM     13  C2* UNL     1     -17.480 -17.290  -4.913  0.00  0.00    +0.000 A 
ATOM     14  C4* UNL     1     -18.076 -15.105  -4.667  0.00  0.00    +0.000 A 
BRANCH  12  15
ATOM     15  O3* UNL     1     -16.646 -16.089  -2.947  0.00  0.00    +0.000 OA
ATOM     16  H3* UNL     1     -16.311 -16.950  -2.641  0.00  0.00    +0.000 HD
ENDBRANCH  12  15
BRANCH  14  17
ATOM     17  C5* UNL     1     -18.128 -13.771  -4.218  0.00  0.00    +0.000 C 
BRANCH  17  18
ATOM     18  O5* UNL     1     -18.180 -12.511  -3.796  0.00  0.00    +0.000 OA
ATOM     19  H5* UNL     1     -17.509 -11.976  -4.255  0.00  0.00    +0.000 HD
ENDBRANCH  17  18
ENDBRANCH  14  17
ENDBRANCH   3  11
BRANCH   7  23
ATOM     20  F   UNL     1     -15.218 -18.076 -10.843  0.00  0.00    +0.000 F 
ATOM     21  F   UNL     1     -16.749 -16.836 -11.756  0.00  0.00    +0.000 F 
ATOM     22  F   UNL     1     -15.477 -15.998 -10.208  0.00  0.00    +0.000 F 
ATOM     23  C   UNL     1     -16.144 -17.123 -10.570  0.00  0.00    +0.000 C 
ENDBRANCH   7  23
TORSDOF 5
ENDMDL
