MODEL 1
REMARK VINA RESULT:      -4.4      0.000      0.000
REMARK  Name = 6323266_Tipiracil.pdbqt.pdb
REMARK  2 active torsions:
REMARK  status: ('A' for Active; 'I' for Inactive)
REMARK    1  A    between atoms: C_6  and  C_12
REMARK    2  A    between atoms: C_12  and  N_13
REMARK                            x       y       z     vdW  Elec       q    Type
REMARK                         _______ _______ _______ _____ _____    ______ ____
ROOT
ATOM      1 CL   UNL     1      -6.959 -32.244   6.279  0.00  0.00    +0.000 Cl
ATOM      2  O   UNL     1      -8.055 -34.218   4.298  0.00  0.00    +0.000 OA
ATOM      3  O   UNL     1      -5.107 -37.572   5.054  0.00  0.00    +0.000 OA
ATOM      4  N   UNL     1      -4.898 -35.652   6.245  0.00  0.00    +0.000 N 
ATOM      5  N   UNL     1      -6.585 -35.891   4.689  0.00  0.00    +0.000 N 
ATOM      6  C   UNL     1      -5.316 -34.384   6.560  0.00  0.00    +0.000 A 
ATOM      7  C   UNL     1      -6.372 -33.829   5.951  0.00  0.00    +0.000 A 
ATOM      8  C   UNL     1      -7.083 -34.635   4.919  0.00  0.00    +0.000 A 
ATOM      9  C   UNL     1      -5.505 -36.443   5.314  0.00  0.00    +0.000 A 
ATOM     10  H   UNL     1      -4.091 -36.050   6.720  0.00  0.00    +0.000 HD
ATOM     11  H   UNL     1      -7.051 -36.455   3.993  0.00  0.00    +0.000 HD
ENDROOT
BRANCH   6  12
ATOM     12  C   UNL     1      -4.556 -33.720   7.560  0.00  0.00    +0.000 C 
BRANCH  12  13
ATOM     13  N   UNL     1      -3.884 -33.047   8.655  0.00  0.00    +0.000 N 
ATOM     14  N   UNL     1      -1.594 -33.118   7.735  0.00  0.00    +0.000 NA
ATOM     15  C   UNL     1      -4.477 -31.808   9.159  0.00  0.00    +0.000 C 
ATOM     16  C   UNL     1      -3.680 -30.532   9.409  0.00  0.00    +0.000 C 
ATOM     17  C   UNL     1      -2.458 -31.277   8.870  0.00  0.00    +0.000 C 
ATOM     18  C   UNL     1      -2.589 -32.630   8.374  0.00  0.00    +0.000 C 
ATOM     19  H   UNL     1      -0.807 -32.460   7.728  0.00  0.00    +0.000 HD
ENDBRANCH  12  13
ENDBRANCH   6  12
TORSDOF 2
ENDMDL
MODEL 2
REMARK VINA RESULT:      -4.4     11.832     13.527
REMARK  Name = 6323266_Tipiracil.pdbqt.pdb
REMARK  2 active torsions:
REMARK  status: ('A' for Active; 'I' for Inactive)
REMARK    1  A    between atoms: C_6  and  C_12
REMARK    2  A    between atoms: C_12  and  N_13
REMARK                            x       y       z     vdW  Elec       q    Type
REMARK                         _______ _______ _______ _____ _____    ______ ____
ROOT
ATOM      1 CL   UNL     1      -6.227 -34.040  -8.098  0.00  0.00    +0.000 Cl
ATOM      2  O   UNL     1      -3.390 -33.053  -8.102  0.00  0.00    +0.000 OA
ATOM      3  O   UNL     1      -2.481 -33.732  -3.717  0.00  0.00    +0.000 OA
ATOM      4  N   UNL     1      -4.543 -34.272  -4.496  0.00  0.00    +0.000 N 
ATOM      5  N   UNL     1      -2.942 -33.405  -5.913  0.00  0.00    +0.000 N 
ATOM      6  C   UNL     1      -5.454 -34.360  -5.518  0.00  0.00    +0.000 A 
ATOM      7  C   UNL     1      -5.145 -33.972  -6.762  0.00  0.00    +0.000 A 
ATOM      8  C   UNL     1      -3.773 -33.441  -7.003  0.00  0.00    +0.000 A 
ATOM      9  C   UNL     1      -3.273 -33.800  -4.651  0.00  0.00    +0.000 A 
ATOM     10  H   UNL     1      -4.805 -34.570  -3.559  0.00  0.00    +0.000 HD
ATOM     11  H   UNL     1      -2.008 -33.049  -6.054  0.00  0.00    +0.000 HD
ENDROOT
BRANCH   6  12
ATOM     12  C   UNL     1      -6.727 -34.881  -5.159  0.00  0.00    +0.000 C 
BRANCH  12  13
ATOM     13  N   UNL     1      -8.026 -35.328  -4.697  0.00  0.00    +0.000 N 
ATOM     14  N   UNL     1      -9.068 -35.672  -6.909  0.00  0.00    +0.000 NA
ATOM     15  C   UNL     1      -8.062 -36.357  -3.657  0.00  0.00    +0.000 C 
ATOM     16  C   UNL     1      -8.943 -37.599  -3.728  0.00  0.00    +0.000 C 
ATOM     17  C   UNL     1      -9.394 -37.111  -5.106  0.00  0.00    +0.000 C 
ATOM     18  C   UNL     1      -8.824 -35.909  -5.675  0.00  0.00    +0.000 C 
ATOM     19  H   UNL     1      -9.705 -36.378  -7.296  0.00  0.00    +0.000 HD
ENDBRANCH  12  13
ENDBRANCH   6  12
TORSDOF 2
ENDMDL
MODEL 3
REMARK VINA RESULT:      -4.3     25.481     26.294
REMARK  Name = 6323266_Tipiracil.pdbqt.pdb
REMARK  2 active torsions:
REMARK  status: ('A' for Active; 'I' for Inactive)
REMARK    1  A    between atoms: C_6  and  C_12
REMARK    2  A    between atoms: C_12  and  N_13
REMARK                            x       y       z     vdW  Elec       q    Type
REMARK                         _______ _______ _______ _____ _____    ______ ____
ROOT
ATOM      1 CL   UNL     1       0.646 -16.647 -12.487  0.00  0.00    +0.000 Cl
ATOM      2  O   UNL     1       2.638 -18.162 -10.826  0.00  0.00    +0.000 OA
ATOM      3  O   UNL     1       2.328 -22.149 -12.953  0.00  0.00    +0.000 OA
ATOM      4  N   UNL     1       1.049 -20.424 -13.686  0.00  0.00    +0.000 N 
ATOM      5  N   UNL     1       2.484 -20.147 -11.901  0.00  0.00    +0.000 N 
ATOM      6  C   UNL     1       0.632 -19.120 -13.602  0.00  0.00    +0.000 A 
ATOM      7  C   UNL     1       1.119 -18.292 -12.668  0.00  0.00    +0.000 A 
ATOM      8  C   UNL     1       2.134 -18.834 -11.721  0.00  0.00    +0.000 A 
ATOM      9  C   UNL     1       1.976 -20.979 -12.854  0.00  0.00    +0.000 A 
ATOM     10  H   UNL     1       0.661 -21.033 -14.402  0.00  0.00    +0.000 HD
ATOM     11  H   UNL     1       3.171 -20.534 -11.270  0.00  0.00    +0.000 HD
ENDROOT
BRANCH   6  12
ATOM     12  C   UNL     1      -0.340 -18.726 -14.561  0.00  0.00    +0.000 C 
BRANCH  12  13
ATOM     13  N   UNL     1      -1.409 -18.295 -15.441  0.00  0.00    +0.000 N 
ATOM     14  N   UNL     1      -1.998 -20.510 -16.360  0.00  0.00    +0.000 NA
ATOM     15  C   UNL     1      -2.420 -17.391 -14.892  0.00  0.00    +0.000 C 
ATOM     16  C   UNL     1      -3.921 -17.599 -15.066  0.00  0.00    +0.000 C 
ATOM     17  C   UNL     1      -3.582 -18.894 -15.805  0.00  0.00    +0.000 C 
ATOM     18  C   UNL     1      -2.205 -19.320 -15.934  0.00  0.00    +0.000 C 
ATOM     19  H   UNL     1      -2.883 -20.968 -16.605  0.00  0.00    +0.000 HD
ENDBRANCH  12  13
ENDBRANCH   6  12
TORSDOF 2
ENDMDL
MODEL 4
REMARK VINA RESULT:      -4.3      9.918     10.621
REMARK  Name = 6323266_Tipiracil.pdbqt.pdb
REMARK  2 active torsions:
REMARK  status: ('A' for Active; 'I' for Inactive)
REMARK    1  A    between atoms: C_6  and  C_12
REMARK    2  A    between atoms: C_12  and  N_13
REMARK                            x       y       z     vdW  Elec       q    Type
REMARK                         _______ _______ _______ _____ _____    ______ ____
ROOT
ATOM      1 CL   UNL     1       5.721 -32.904   1.567  0.00  0.00    +0.000 Cl
ATOM      2  O   UNL     1       4.164 -31.944  -0.816  0.00  0.00    +0.000 OA
ATOM      3  O   UNL     1       1.522 -28.951   1.323  0.00  0.00    +0.000 OA
ATOM      4  N   UNL     1       3.035 -30.127   2.537  0.00  0.00    +0.000 N 
ATOM      5  N   UNL     1       2.856 -30.444   0.259  0.00  0.00    +0.000 N 
ATOM      6  C   UNL     1       4.037 -31.060   2.627  0.00  0.00    +0.000 A 
ATOM      7  C   UNL     1       4.476 -31.715   1.544  0.00  0.00    +0.000 A 
ATOM      8  C   UNL     1       3.841 -31.396   0.234  0.00  0.00    +0.000 A 
ATOM      9  C   UNL     1       2.416 -29.788   1.370  0.00  0.00    +0.000 A 
ATOM     10  H   UNL     1       2.717 -29.646   3.376  0.00  0.00    +0.000 HD
ATOM     11  H   UNL     1       2.413 -30.213  -0.618  0.00  0.00    +0.000 HD
ENDROOT
BRANCH   6  12
ATOM     12  C   UNL     1       4.559 -31.274   3.931  0.00  0.00    +0.000 C 
BRANCH  12  13
ATOM     13  N   UNL     1       5.075 -31.618   5.242  0.00  0.00    +0.000 N 
ATOM     14  N   UNL     1       5.145 -29.336   6.182  0.00  0.00    +0.000 NA
ATOM     15  C   UNL     1       4.441 -32.728   5.953  0.00  0.00    +0.000 C 
ATOM     16  C   UNL     1       4.009 -32.658   7.414  0.00  0.00    +0.000 C 
ATOM     17  C   UNL     1       4.476 -31.202   7.406  0.00  0.00    +0.000 C 
ATOM     18  C   UNL     1       4.981 -30.606   6.188  0.00  0.00    +0.000 C 
ATOM     19  H   UNL     1       4.936 -28.938   7.105  0.00  0.00    +0.000 HD
ENDBRANCH  12  13
ENDBRANCH   6  12
TORSDOF 2
ENDMDL
MODEL 5
REMARK VINA RESULT:      -4.1     20.025     21.733
REMARK  Name = 6323266_Tipiracil.pdbqt.pdb
REMARK  2 active torsions:
REMARK  status: ('A' for Active; 'I' for Inactive)
REMARK    1  A    between atoms: C_6  and  C_12
REMARK    2  A    between atoms: C_12  and  N_13
REMARK                            x       y       z     vdW  Elec       q    Type
REMARK                         _______ _______ _______ _____ _____    ______ ____
ROOT
ATOM      1 CL   UNL     1      -7.701 -31.712 -16.693  0.00  0.00    +0.000 Cl
ATOM      2  O   UNL     1      -7.708 -34.632 -15.986  0.00  0.00    +0.000 OA
ATOM      3  O   UNL     1      -6.843 -34.210 -11.560  0.00  0.00    +0.000 OA
ATOM      4  N   UNL     1      -6.992 -32.330 -12.823  0.00  0.00    +0.000 N 
ATOM      5  N   UNL     1      -7.286 -34.411 -13.775  0.00  0.00    +0.000 N 
ATOM      6  C   UNL     1      -7.195 -31.708 -14.028  0.00  0.00    +0.000 A 
ATOM      7  C   UNL     1      -7.443 -32.411 -15.141  0.00  0.00    +0.000 A 
ATOM      8  C   UNL     1      -7.495 -33.896 -15.028  0.00  0.00    +0.000 A 
ATOM      9  C   UNL     1      -7.030 -33.683 -12.651  0.00  0.00    +0.000 A 
ATOM     10  H   UNL     1      -6.802 -31.774 -11.992  0.00  0.00    +0.000 HD
ATOM     11  H   UNL     1      -7.317 -35.415 -13.676  0.00  0.00    +0.000 HD
ENDROOT
BRANCH   6  12
ATOM     12  C   UNL     1      -7.119 -30.289 -14.004  0.00  0.00    +0.000 C 
BRANCH  12  13
ATOM     13  N   UNL     1      -6.915 -28.854 -13.961  0.00  0.00    +0.000 N 
ATOM     14  N   UNL     1      -4.789 -28.783 -15.215  0.00  0.00    +0.000 NA
ATOM     15  C   UNL     1      -8.046 -27.994 -14.308  0.00  0.00    +0.000 C 
ATOM     16  C   UNL     1      -7.948 -26.818 -15.273  0.00  0.00    +0.000 C 
ATOM     17  C   UNL     1      -6.484 -27.208 -15.484  0.00  0.00    +0.000 C 
ATOM     18  C   UNL     1      -5.941 -28.379 -14.830  0.00  0.00    +0.000 C 
ATOM     19  H   UNL     1      -4.396 -28.146 -15.917  0.00  0.00    +0.000 HD
ENDBRANCH  12  13
ENDBRANCH   6  12
TORSDOF 2
ENDMDL
MODEL 6
REMARK VINA RESULT:      -3.9     22.699     23.888
REMARK  Name = 6323266_Tipiracil.pdbqt.pdb
REMARK  2 active torsions:
REMARK  status: ('A' for Active; 'I' for Inactive)
REMARK    1  A    between atoms: C_6  and  C_12
REMARK    2  A    between atoms: C_12  and  N_13
REMARK                            x       y       z     vdW  Elec       q    Type
REMARK                         _______ _______ _______ _____ _____    ______ ____
ROOT
ATOM      1 CL   UNL     1     -16.391 -14.315  -4.735  0.00  0.00    +0.000 Cl
ATOM      2  O   UNL     1     -17.042 -13.898  -7.638  0.00  0.00    +0.000 OA
ATOM      3  O   UNL     1     -18.114 -18.178  -8.664  0.00  0.00    +0.000 OA
ATOM      4  N   UNL     1     -17.487 -17.694  -6.537  0.00  0.00    +0.000 N 
ATOM      5  N   UNL     1     -17.585 -16.036  -8.138  0.00  0.00    +0.000 N 
ATOM      6  C   UNL     1     -17.079 -16.799  -5.581  0.00  0.00    +0.000 A 
ATOM      7  C   UNL     1     -16.906 -15.503  -5.870  0.00  0.00    +0.000 A 
ATOM      8  C   UNL     1     -17.175 -15.060  -7.267  0.00  0.00    +0.000 A 
ATOM      9  C   UNL     1     -17.752 -17.354  -7.831  0.00  0.00    +0.000 A 
ATOM     10  H   UNL     1     -17.607 -18.674  -6.292  0.00  0.00    +0.000 HD
ATOM     11  H   UNL     1     -17.773 -15.758  -9.091  0.00  0.00    +0.000 HD
ENDROOT
BRANCH   6  12
ATOM     12  C   UNL     1     -16.855 -17.345  -4.288  0.00  0.00    +0.000 C 
BRANCH  12  13
ATOM     13  N   UNL     1     -16.573 -17.789  -2.937  0.00  0.00    +0.000 N 
ATOM     14  N   UNL     1     -15.132 -19.710  -3.511  0.00  0.00    +0.000 NA
ATOM     15  C   UNL     1     -16.164 -16.780  -1.960  0.00  0.00    +0.000 C 
ATOM     16  C   UNL     1     -14.967 -16.943  -1.029  0.00  0.00    +0.000 C 
ATOM     17  C   UNL     1     -14.702 -18.280  -1.724  0.00  0.00    +0.000 C 
ATOM     18  C   UNL     1     -15.533 -18.703  -2.830  0.00  0.00    +0.000 C 
ATOM     19  H   UNL     1     -14.276 -20.106  -3.106  0.00  0.00    +0.000 HD
ENDBRANCH  12  13
ENDBRANCH   6  12
TORSDOF 2
ENDMDL
MODEL 7
REMARK VINA RESULT:      -3.9     10.638     11.532
REMARK  Name = 6323266_Tipiracil.pdbqt.pdb
REMARK  2 active torsions:
REMARK  status: ('A' for Active; 'I' for Inactive)
REMARK    1  A    between atoms: C_6  and  C_12
REMARK    2  A    between atoms: C_12  and  N_13
REMARK                            x       y       z     vdW  Elec       q    Type
REMARK                         _______ _______ _______ _____ _____    ______ ____
ROOT
ATOM      1 CL   UNL     1      -6.888 -37.118  -4.620  0.00  0.00    +0.000 Cl
ATOM      2  O   UNL     1      -4.014 -37.884  -5.048  0.00  0.00    +0.000 OA
ATOM      3  O   UNL     1      -2.147 -33.859  -4.136  0.00  0.00    +0.000 OA
ATOM      4  N   UNL     1      -4.404 -34.064  -4.013  0.00  0.00    +0.000 N 
ATOM      5  N   UNL     1      -3.090 -35.873  -4.581  0.00  0.00    +0.000 N 
ATOM      6  C   UNL     1      -5.548 -34.813  -4.117  0.00  0.00    +0.000 A 
ATOM      7  C   UNL     1      -5.503 -36.107  -4.459  0.00  0.00    +0.000 A 
ATOM      8  C   UNL     1      -4.166 -36.711  -4.722  0.00  0.00    +0.000 A 
ATOM      9  C   UNL     1      -3.151 -34.555  -4.236  0.00  0.00    +0.000 A 
ATOM     10  H   UNL     1      -4.465 -33.081  -3.754  0.00  0.00    +0.000 HD
ATOM     11  H   UNL     1      -2.174 -36.262  -4.754  0.00  0.00    +0.000 HD
ENDROOT
BRANCH   6  12
ATOM     12  C   UNL     1      -6.759 -34.122  -3.842  0.00  0.00    +0.000 C 
BRANCH  12  13
ATOM     13  N   UNL     1      -8.057 -33.521  -3.606  0.00  0.00    +0.000 N 
ATOM     14  N   UNL     1      -9.131 -35.462  -2.523  0.00  0.00    +0.000 NA
ATOM     15  C   UNL     1      -8.091 -32.186  -3.009  0.00  0.00    +0.000 C 
ATOM     16  C   UNL     1      -8.987 -31.809  -1.834  0.00  0.00    +0.000 C 
ATOM     17  C   UNL     1      -9.450 -33.266  -1.814  0.00  0.00    +0.000 C 
ATOM     18  C   UNL     1      -8.874 -34.226  -2.731  0.00  0.00    +0.000 C 
ATOM     19  H   UNL     1      -9.781 -35.571  -1.736  0.00  0.00    +0.000 HD
ENDBRANCH  12  13
ENDBRANCH   6  12
TORSDOF 2
ENDMDL
MODEL 8
REMARK VINA RESULT:      -3.9     17.179     18.482
REMARK  Name = 6323266_Tipiracil.pdbqt.pdb
REMARK  2 active torsions:
REMARK  status: ('A' for Active; 'I' for Inactive)
REMARK    1  A    between atoms: C_6  and  C_12
REMARK    2  A    between atoms: C_12  and  N_13
REMARK                            x       y       z     vdW  Elec       q    Type
REMARK                         _______ _______ _______ _____ _____    ______ ____
ROOT
ATOM      1 CL   UNL     1      -0.669 -18.067   0.111  0.00  0.00    +0.000 Cl
ATOM      2  O   UNL     1       0.260 -16.581  -2.329  0.00  0.00    +0.000 OA
ATOM      3  O   UNL     1      -3.805 -15.330  -3.889  0.00  0.00    +0.000 OA
ATOM      4  N   UNL     1      -3.702 -16.548  -1.977  0.00  0.00    +0.000 N 
ATOM      5  N   UNL     1      -1.774 -15.952  -3.095  0.00  0.00    +0.000 N 
ATOM      6  C   UNL     1      -2.984 -17.204  -1.010  0.00  0.00    +0.000 A 
ATOM      7  C   UNL     1      -1.646 -17.261  -1.054  0.00  0.00    +0.000 A 
ATOM      8  C   UNL     1      -0.960 -16.583  -2.191  0.00  0.00    +0.000 A 
ATOM      9  C   UNL     1      -3.135 -15.907  -3.039  0.00  0.00    +0.000 A 
ATOM     10  H   UNL     1      -4.717 -16.523  -1.922  0.00  0.00    +0.000 HD
ATOM     11  H   UNL     1      -1.329 -15.487  -3.873  0.00  0.00    +0.000 HD
ENDROOT
BRANCH   6  12
ATOM     12  C   UNL     1      -3.755 -17.809   0.020  0.00  0.00    +0.000 C 
BRANCH  12  13
ATOM     13  N   UNL     1      -4.634 -18.342   1.042  0.00  0.00    +0.000 N 
ATOM     14  N   UNL     1      -3.284 -20.319   1.646  0.00  0.00    +0.000 NA
ATOM     15  C   UNL     1      -5.142 -17.415   2.054  0.00  0.00    +0.000 C 
ATOM     16  C   UNL     1      -5.122 -17.704   3.550  0.00  0.00    +0.000 C 
ATOM     17  C   UNL     1      -4.413 -19.017   3.213  0.00  0.00    +0.000 C 
ATOM     18  C   UNL     1      -4.067 -19.326   1.842  0.00  0.00    +0.000 C 
ATOM     19  H   UNL     1      -3.065 -20.791   2.531  0.00  0.00    +0.000 HD
ENDBRANCH  12  13
ENDBRANCH   6  12
TORSDOF 2
ENDMDL
MODEL 9
REMARK VINA RESULT:      -3.8     29.122     30.071
REMARK  Name = 6323266_Tipiracil.pdbqt.pdb
REMARK  2 active torsions:
REMARK  status: ('A' for Active; 'I' for Inactive)
REMARK    1  A    between atoms: C_6  and  C_12
REMARK    2  A    between atoms: C_12  and  N_13
REMARK                            x       y       z     vdW  Elec       q    Type
REMARK                         _______ _______ _______ _____ _____    ______ ____
ROOT
ATOM      1 CL   UNL     1      -1.913 -10.303 -13.146  0.00  0.00    +0.000 Cl
ATOM      2  O   UNL     1      -0.949  -9.546 -10.403  0.00  0.00    +0.000 OA
ATOM      3  O   UNL     1      -4.834 -10.199  -8.168  0.00  0.00    +0.000 OA
ATOM      4  N   UNL     1      -4.787 -10.589 -10.403  0.00  0.00    +0.000 N 
ATOM      5  N   UNL     1      -2.891  -9.885  -9.294  0.00  0.00    +0.000 N 
ATOM      6  C   UNL     1      -4.119 -10.626 -11.600  0.00  0.00    +0.000 A 
ATOM      7  C   UNL     1      -2.825 -10.292 -11.686  0.00  0.00    +0.000 A 
ATOM      8  C   UNL     1      -2.130  -9.878 -10.434  0.00  0.00    +0.000 A 
ATOM      9  C   UNL     1      -4.209 -10.223  -9.222  0.00  0.00    +0.000 A 
ATOM     10  H   UNL     1      -5.771 -10.844 -10.365  0.00  0.00    +0.000 HD
ATOM     11  H   UNL     1      -2.439  -9.608  -8.434  0.00  0.00    +0.000 HD
ENDROOT
BRANCH   6  12
ATOM     12  C   UNL     1      -4.893 -11.036 -12.720  0.00  0.00    +0.000 C 
BRANCH  12  13
ATOM     13  N   UNL     1      -5.571 -11.488 -13.919  0.00  0.00    +0.000 N 
ATOM     14  N   UNL     1      -4.760 -13.820 -13.901  0.00  0.00    +0.000 NA
ATOM     15  C   UNL     1      -6.991 -11.164 -14.061  0.00  0.00    +0.000 C 
ATOM     16  C   UNL     1      -8.052 -12.181 -14.468  0.00  0.00    +0.000 C 
ATOM     17  C   UNL     1      -6.939 -13.230 -14.477  0.00  0.00    +0.000 C 
ATOM     18  C   UNL     1      -5.593 -12.866 -14.090  0.00  0.00    +0.000 C 
ATOM     19  H   UNL     1      -5.189 -14.727 -14.121  0.00  0.00    +0.000 HD
ENDBRANCH  12  13
ENDBRANCH   6  12
TORSDOF 2
ENDMDL
