MODEL 1
REMARK VINA RESULT:      -5.5      0.000      0.000
REMARK  Name = 6325056_Deoxyelephantopin.pdbqt.pdb
REMARK  3 active torsions:
REMARK  status: ('A' for Active; 'I' for Inactive)
REMARK    1  A    between atoms: C_6  and  O_20
REMARK    2  A    between atoms: O_20  and  C_22
REMARK    3  A    between atoms: C_22  and  C_23
REMARK                            x       y       z     vdW  Elec       q    Type
REMARK                         _______ _______ _______ _____ _____    ______ ____
ROOT
ATOM      1  O   UNL     1      -3.907 -18.134   0.070  0.00  0.00    +0.000 OA
ATOM      2  O   UNL     1      -5.879 -12.101  -1.427  0.00  0.00    +0.000 OA
ATOM      3  O   UNL     1      -3.795 -19.872   1.567  0.00  0.00    +0.000 OA
ATOM      4  O   UNL     1      -7.771 -12.246  -0.088  0.00  0.00    +0.000 OA
ATOM      5  C   UNL     1      -5.293 -16.657   1.282  0.00  0.00    +0.000 C 
ATOM      6  C   UNL     1      -6.143 -15.520   1.637  0.00  0.00    +0.000 C 
ATOM      7  C   UNL     1      -4.539 -16.884   0.063  0.00  0.00    +0.000 C 
ATOM      8  C   UNL     1      -5.841 -14.178   1.284  0.00  0.00    +0.000 C 
ATOM      9  C   UNL     1      -5.074 -17.860   2.058  0.00  0.00    +0.000 C 
ATOM     10  C   UNL     1      -5.588 -12.870   0.764  0.00  0.00    +0.000 C 
ATOM     11  C   UNL     1      -4.311 -16.015  -1.030  0.00  0.00    +0.000 C 
ATOM     12  C   UNL     1      -4.558 -12.532  -1.185  0.00  0.00    +0.000 C 
ATOM     13  C   UNL     1      -4.187 -13.718  -1.885  0.00  0.00    +0.000 C 
ATOM     14  C   UNL     1      -4.017 -15.107  -2.089  0.00  0.00    +0.000 C 
ATOM     15  C   UNL     1      -4.336 -12.569   0.207  0.00  0.00    +0.000 C 
ATOM     16  C   UNL     1      -4.205 -18.766   1.260  0.00  0.00    +0.000 C 
ATOM     17  C   UNL     1      -6.567 -12.344  -0.246  0.00  0.00    +0.000 C 
ATOM     18  C   UNL     1      -5.500 -18.099   3.304  0.00  0.00    +0.000 C 
ATOM     19  C   UNL     1      -3.286 -15.595  -3.298  0.00  0.00    +0.000 C 
ENDROOT
BRANCH   6  20
ATOM     20  O   UNL     1      -7.177 -15.684   2.575  0.00  0.00    +0.000 OA
BRANCH  20  22
ATOM     21  O   UNL     1      -8.780 -17.026   1.613  0.00  0.00    +0.000 OA
ATOM     22  C   UNL     1      -8.422 -15.932   2.041  0.00  0.00    +0.000 C 
BRANCH  22  23
ATOM     23  C   UNL     1      -9.256 -14.676   2.074  0.00  0.00    +0.000 C 
ATOM     24  C   UNL     1      -9.043 -13.565   3.088  0.00  0.00    +0.000 C 
ATOM     25  C   UNL     1     -10.206 -14.434   1.162  0.00  0.00    +0.000 C 
ENDBRANCH  22  23
ENDBRANCH  20  22
ENDBRANCH   6  20
TORSDOF 3
ENDMDL
MODEL 2
REMARK VINA RESULT:      -5.5     14.774     16.653
REMARK  Name = 6325056_Deoxyelephantopin.pdbqt.pdb
REMARK  3 active torsions:
REMARK  status: ('A' for Active; 'I' for Inactive)
REMARK    1  A    between atoms: C_6  and  O_20
REMARK    2  A    between atoms: O_20  and  C_22
REMARK    3  A    between atoms: C_22  and  C_23
REMARK                            x       y       z     vdW  Elec       q    Type
REMARK                         _______ _______ _______ _____ _____    ______ ____
ROOT
ATOM      1  O   UNL     1      -8.063 -17.953 -16.546  0.00  0.00    +0.000 OA
ATOM      2  O   UNL     1      -1.788 -16.426 -15.638  0.00  0.00    +0.000 OA
ATOM      3  O   UNL     1     -10.288 -17.486 -16.219  0.00  0.00    +0.000 OA
ATOM      4  O   UNL     1      -2.217 -14.145 -15.570  0.00  0.00    +0.000 OA
ATOM      5  C   UNL     1      -7.107 -16.036 -15.556  0.00  0.00    +0.000 C 
ATOM      6  C   UNL     1      -6.139 -15.026 -15.127  0.00  0.00    +0.000 C 
ATOM      7  C   UNL     1      -6.866 -17.297 -16.234  0.00  0.00    +0.000 C 
ATOM      8  C   UNL     1      -4.858 -15.343 -14.603  0.00  0.00    +0.000 C 
ATOM      9  C   UNL     1      -8.549 -15.961 -15.459  0.00  0.00    +0.000 C 
ATOM     10  C   UNL     1      -3.521 -15.700 -14.242  0.00  0.00    +0.000 C 
ATOM     11  C   UNL     1      -5.642 -17.943 -16.524  0.00  0.00    +0.000 C 
ATOM     12  C   UNL     1      -2.497 -17.503 -15.064  0.00  0.00    +0.000 C 
ATOM     13  C   UNL     1      -3.268 -18.263 -15.993  0.00  0.00    +0.000 C 
ATOM     14  C   UNL     1      -4.410 -18.629 -16.741  0.00  0.00    +0.000 C 
ATOM     15  C   UNL     1      -3.210 -17.035 -13.942  0.00  0.00    +0.000 C 
ATOM     16  C   UNL     1      -9.114 -17.179 -16.099  0.00  0.00    +0.000 C 
ATOM     17  C   UNL     1      -2.432 -15.281 -15.187  0.00  0.00    +0.000 C 
ATOM     18  C   UNL     1      -9.263 -15.014 -14.839  0.00  0.00    +0.000 C 
ATOM     19  C   UNL     1      -4.398 -19.886 -17.548  0.00  0.00    +0.000 C 
ENDROOT
BRANCH   6  20
ATOM     20  O   UNL     1      -6.543 -13.688 -14.977  0.00  0.00    +0.000 OA
BRANCH  20  22
ATOM     21  O   UNL     1      -5.184 -12.537 -16.434  0.00  0.00    +0.000 OA
ATOM     22  C   UNL     1      -5.589 -12.746 -15.294  0.00  0.00    +0.000 C 
BRANCH  22  23
ATOM     23  C   UNL     1      -5.141 -12.026 -14.047  0.00  0.00    +0.000 C 
ATOM     24  C   UNL     1      -3.757 -11.419 -13.891  0.00  0.00    +0.000 C 
ATOM     25  C   UNL     1      -5.968 -11.822 -13.013  0.00  0.00    +0.000 C 
ENDBRANCH  22  23
ENDBRANCH  20  22
ENDBRANCH   6  20
TORSDOF 3
ENDMDL
MODEL 3
REMARK VINA RESULT:      -5.4     19.699     21.720
REMARK  Name = 6325056_Deoxyelephantopin.pdbqt.pdb
REMARK  3 active torsions:
REMARK  status: ('A' for Active; 'I' for Inactive)
REMARK    1  A    between atoms: C_6  and  O_20
REMARK    2  A    between atoms: O_20  and  C_22
REMARK    3  A    between atoms: C_22  and  C_23
REMARK                            x       y       z     vdW  Elec       q    Type
REMARK                         _______ _______ _______ _____ _____    ______ ____
ROOT
ATOM      1  O   UNL     1      -3.880 -27.856 -18.175  0.00  0.00    +0.000 OA
ATOM      2  O   UNL     1      -9.754 -25.591 -19.875  0.00  0.00    +0.000 OA
ATOM      3  O   UNL     1      -2.324 -28.319 -16.550  0.00  0.00    +0.000 OA
ATOM      4  O   UNL     1     -10.729 -26.234 -17.868  0.00  0.00    +0.000 OA
ATOM      5  C   UNL     1      -5.677 -27.155 -16.814  0.00  0.00    +0.000 C 
ATOM      6  C   UNL     1      -7.007 -26.736 -16.370  0.00  0.00    +0.000 C 
ATOM      7  C   UNL     1      -5.201 -27.389 -18.165  0.00  0.00    +0.000 C 
ATOM      8  C   UNL     1      -7.808 -25.801 -17.076  0.00  0.00    +0.000 C 
ATOM      9  C   UNL     1      -4.546 -27.503 -15.979  0.00  0.00    +0.000 C 
ATOM     10  C   UNL     1      -8.647 -24.990 -17.903  0.00  0.00    +0.000 C 
ATOM     11  C   UNL     1      -5.840 -27.138 -19.402  0.00  0.00    +0.000 C 
ATOM     12  C   UNL     1      -8.502 -24.992 -20.129  0.00  0.00    +0.000 C 
ATOM     13  C   UNL     1      -7.523 -25.879 -20.668  0.00  0.00    +0.000 C 
ATOM     14  C   UNL     1      -6.457 -26.807 -20.644  0.00  0.00    +0.000 C 
ATOM     15  C   UNL     1      -8.093 -24.283 -18.982  0.00  0.00    +0.000 C 
ATOM     16  C   UNL     1      -3.440 -27.946 -16.870  0.00  0.00    +0.000 C 
ATOM     17  C   UNL     1      -9.859 -25.654 -18.493  0.00  0.00    +0.000 C 
ATOM     18  C   UNL     1      -4.463 -27.379 -14.650  0.00  0.00    +0.000 C 
ATOM     19  C   UNL     1      -5.809 -27.228 -21.924  0.00  0.00    +0.000 C 
ENDROOT
BRANCH   6  20
ATOM     20  O   UNL     1      -7.445 -27.056 -15.073  0.00  0.00    +0.000 OA
BRANCH  20  22
ATOM     21  O   UNL     1      -9.369 -28.278 -15.393  0.00  0.00    +0.000 OA
ATOM     22  C   UNL     1      -8.216 -28.193 -14.976  0.00  0.00    +0.000 C 
BRANCH  22  23
ATOM     23  C   UNL     1      -7.434 -29.291 -14.301  0.00  0.00    +0.000 C 
ATOM     24  C   UNL     1      -6.848 -30.475 -15.052  0.00  0.00    +0.000 C 
ATOM     25  C   UNL     1      -7.151 -29.255 -12.993  0.00  0.00    +0.000 C 
ENDBRANCH  22  23
ENDBRANCH  20  22
ENDBRANCH   6  20
TORSDOF 3
ENDMDL
MODEL 4
REMARK VINA RESULT:      -5.3      2.931      6.129
REMARK  Name = 6325056_Deoxyelephantopin.pdbqt.pdb
REMARK  3 active torsions:
REMARK  status: ('A' for Active; 'I' for Inactive)
REMARK    1  A    between atoms: C_6  and  O_20
REMARK    2  A    between atoms: O_20  and  C_22
REMARK    3  A    between atoms: C_22  and  C_23
REMARK                            x       y       z     vdW  Elec       q    Type
REMARK                         _______ _______ _______ _____ _____    ______ ____
ROOT
ATOM      1  O   UNL     1      -4.658 -17.691   2.239  0.00  0.00    +0.000 OA
ATOM      2  O   UNL     1      -2.786 -13.722  -2.585  0.00  0.00    +0.000 OA
ATOM      3  O   UNL     1      -4.610 -19.756   3.244  0.00  0.00    +0.000 OA
ATOM      4  O   UNL     1      -0.743 -14.792  -2.850  0.00  0.00    +0.000 OA
ATOM      5  C   UNL     1      -3.104 -18.060   0.502  0.00  0.00    +0.000 C 
ATOM      6  C   UNL     1      -2.196 -17.840  -0.625  0.00  0.00    +0.000 C 
ATOM      7  C   UNL     1      -4.010 -17.120   1.137  0.00  0.00    +0.000 C 
ATOM      8  C   UNL     1      -2.517 -17.020  -1.739  0.00  0.00    +0.000 C 
ATOM      9  C   UNL     1      -3.245 -19.267   1.288  0.00  0.00    +0.000 C 
ATOM     10  C   UNL     1      -2.811 -16.056  -2.754  0.00  0.00    +0.000 C 
ATOM     11  C   UNL     1      -4.360 -15.805   0.750  0.00  0.00    +0.000 C 
ATOM     12  C   UNL     1      -4.074 -14.258  -2.371  0.00  0.00    +0.000 C 
ATOM     13  C   UNL     1      -4.551 -14.130  -1.033  0.00  0.00    +0.000 C 
ATOM     14  C   UNL     1      -4.770 -14.512   0.311  0.00  0.00    +0.000 C 
ATOM     15  C   UNL     1      -4.118 -15.566  -2.895  0.00  0.00    +0.000 C 
ATOM     16  C   UNL     1      -4.223 -18.993   2.375  0.00  0.00    +0.000 C 
ATOM     17  C   UNL     1      -1.959 -14.819  -2.777  0.00  0.00    +0.000 C 
ATOM     18  C   UNL     1      -2.669 -20.451   1.050  0.00  0.00    +0.000 C 
ATOM     19  C   UNL     1      -5.656 -13.683   1.183  0.00  0.00    +0.000 C 
ENDROOT
BRANCH   6  20
ATOM     20  O   UNL     1      -1.055 -18.647  -0.772  0.00  0.00    +0.000 OA
BRANCH  20  22
ATOM     21  O   UNL     1       0.304 -18.541   1.082  0.00  0.00    +0.000 OA
ATOM     22  C   UNL     1       0.058 -18.224  -0.079  0.00  0.00    +0.000 C 
BRANCH  22  23
ATOM     23  C   UNL     1       0.907 -17.340  -0.957  0.00  0.00    +0.000 C 
ATOM     24  C   UNL     1       1.235 -17.676  -2.403  0.00  0.00    +0.000 C 
ATOM     25  C   UNL     1       1.377 -16.161  -0.530  0.00  0.00    +0.000 C 
ENDBRANCH  22  23
ENDBRANCH  20  22
ENDBRANCH   6  20
TORSDOF 3
ENDMDL
MODEL 5
REMARK VINA RESULT:      -5.2     19.175     22.076
REMARK  Name = 6325056_Deoxyelephantopin.pdbqt.pdb
REMARK  3 active torsions:
REMARK  status: ('A' for Active; 'I' for Inactive)
REMARK    1  A    between atoms: C_6  and  O_20
REMARK    2  A    between atoms: O_20  and  C_22
REMARK    3  A    between atoms: C_22  and  C_23
REMARK                            x       y       z     vdW  Elec       q    Type
REMARK                         _______ _______ _______ _____ _____    ______ ____
ROOT
ATOM      1  O   UNL     1      -2.212 -37.574  -4.854  0.00  0.00    +0.000 OA
ATOM      2  O   UNL     1      -2.677 -35.896 -11.139  0.00  0.00    +0.000 OA
ATOM      3  O   UNL     1      -2.283 -36.993  -2.633  0.00  0.00    +0.000 OA
ATOM      4  O   UNL     1      -4.210 -34.206 -10.710  0.00  0.00    +0.000 OA
ATOM      5  C   UNL     1      -2.843 -35.515  -5.821  0.00  0.00    +0.000 C 
ATOM      6  C   UNL     1      -3.245 -34.499  -6.795  0.00  0.00    +0.000 C 
ATOM      7  C   UNL     1      -2.455 -36.895  -6.055  0.00  0.00    +0.000 C 
ATOM      8  C   UNL     1      -2.659 -34.373  -8.081  0.00  0.00    +0.000 C 
ATOM      9  C   UNL     1      -2.813 -35.382  -4.380  0.00  0.00    +0.000 C 
ATOM     10  C   UNL     1      -2.163 -34.390  -9.423  0.00  0.00    +0.000 C 
ATOM     11  C   UNL     1      -2.225 -37.572  -7.275  0.00  0.00    +0.000 C 
ATOM     12  C   UNL     1      -1.509 -36.266 -10.437  0.00  0.00    +0.000 C 
ATOM     13  C   UNL     1      -1.642 -37.452  -9.656  0.00  0.00    +0.000 C 
ATOM     14  C   UNL     1      -1.915 -38.225  -8.504  0.00  0.00    +0.000 C 
ATOM     15  C   UNL     1      -1.022 -35.144  -9.737  0.00  0.00    +0.000 C 
ATOM     16  C   UNL     1      -2.421 -36.698  -3.808  0.00  0.00    +0.000 C 
ATOM     17  C   UNL     1      -3.143 -34.756 -10.501  0.00  0.00    +0.000 C 
ATOM     18  C   UNL     1      -3.019 -34.265  -3.674  0.00  0.00    +0.000 C 
ATOM     19  C   UNL     1      -1.621 -39.690  -8.507  0.00  0.00    +0.000 C 
ENDROOT
BRANCH   6  20
ATOM     20  O   UNL     1      -4.064 -33.430  -6.392  0.00  0.00    +0.000 OA
BRANCH  20  22
ATOM     21  O   UNL     1      -5.827 -33.281  -7.864  0.00  0.00    +0.000 OA
ATOM     22  C   UNL     1      -5.391 -33.540  -6.745  0.00  0.00    +0.000 C 
BRANCH  22  23
ATOM     23  C   UNL     1      -6.198 -34.026  -5.568  0.00  0.00    +0.000 C 
ATOM     24  C   UNL     1      -6.581 -35.484  -5.369  0.00  0.00    +0.000 C 
ATOM     25  C   UNL     1      -6.578 -33.203  -4.582  0.00  0.00    +0.000 C 
ENDBRANCH  22  23
ENDBRANCH  20  22
ENDBRANCH   6  20
TORSDOF 3
ENDMDL
MODEL 6
REMARK VINA RESULT:      -5.2      1.883      5.068
REMARK  Name = 6325056_Deoxyelephantopin.pdbqt.pdb
REMARK  3 active torsions:
REMARK  status: ('A' for Active; 'I' for Inactive)
REMARK    1  A    between atoms: C_6  and  O_20
REMARK    2  A    between atoms: O_20  and  C_22
REMARK    3  A    between atoms: C_22  and  C_23
REMARK                            x       y       z     vdW  Elec       q    Type
REMARK                         _______ _______ _______ _____ _____    ______ ____
ROOT
ATOM      1  O   UNL     1      -6.165 -13.924   1.858  0.00  0.00    +0.000 OA
ATOM      2  O   UNL     1      -1.534 -15.271  -2.531  0.00  0.00    +0.000 OA
ATOM      3  O   UNL     1      -7.925 -14.613   3.165  0.00  0.00    +0.000 OA
ATOM      4  O   UNL     1      -1.295 -17.462  -1.800  0.00  0.00    +0.000 OA
ATOM      5  C   UNL     1      -5.518 -16.000   0.940  0.00  0.00    +0.000 C 
ATOM      6  C   UNL     1      -4.769 -17.032   0.223  0.00  0.00    +0.000 C 
ATOM      7  C   UNL     1      -5.267 -14.571   1.000  0.00  0.00    +0.000 C 
ATOM      8  C   UNL     1      -4.193 -16.832  -1.059  0.00  0.00    +0.000 C 
ATOM      9  C   UNL     1      -6.651 -16.194   1.820  0.00  0.00    +0.000 C 
ATOM     10  C   UNL     1      -3.487 -16.535  -2.267  0.00  0.00    +0.000 C 
ATOM     11  C   UNL     1      -4.337 -13.788   0.277  0.00  0.00    +0.000 C 
ATOM     12  C   UNL     1      -2.699 -14.500  -2.728  0.00  0.00    +0.000 C 
ATOM     13  C   UNL     1      -2.935 -13.519  -1.718  0.00  0.00    +0.000 C 
ATOM     14  C   UNL     1      -3.455 -12.994  -0.514  0.00  0.00    +0.000 C 
ATOM     15  C   UNL     1      -3.784 -15.364  -2.981  0.00  0.00    +0.000 C 
ATOM     16  C   UNL     1      -7.023 -14.868   2.385  0.00  0.00    +0.000 C 
ATOM     17  C   UNL     1      -1.987 -16.539  -2.191  0.00  0.00    +0.000 C 
ATOM     18  C   UNL     1      -7.310 -17.337   2.039  0.00  0.00    +0.000 C 
ATOM     19  C   UNL     1      -3.300 -11.539  -0.210  0.00  0.00    +0.000 C 
ENDROOT
BRANCH   6  20
ATOM     20  O   UNL     1      -4.810 -18.364   0.669  0.00  0.00    +0.000 OA
BRANCH  20  22
ATOM     21  O   UNL     1      -2.825 -19.521   0.528  0.00  0.00    +0.000 OA
ATOM     22  C   UNL     1      -3.625 -18.851   1.177  0.00  0.00    +0.000 C 
BRANCH  22  23
ATOM     23  C   UNL     1      -3.470 -18.432   2.616  0.00  0.00    +0.000 C 
ATOM     24  C   UNL     1      -4.417 -18.880   3.718  0.00  0.00    +0.000 C 
ATOM     25  C   UNL     1      -2.440 -17.681   3.027  0.00  0.00    +0.000 C 
ENDBRANCH  22  23
ENDBRANCH  20  22
ENDBRANCH   6  20
TORSDOF 3
ENDMDL
MODEL 7
REMARK VINA RESULT:      -5.2     20.003     21.726
REMARK  Name = 6325056_Deoxyelephantopin.pdbqt.pdb
REMARK  3 active torsions:
REMARK  status: ('A' for Active; 'I' for Inactive)
REMARK    1  A    between atoms: C_6  and  O_20
REMARK    2  A    between atoms: O_20  and  C_22
REMARK    3  A    between atoms: C_22  and  C_23
REMARK                            x       y       z     vdW  Elec       q    Type
REMARK                         _______ _______ _______ _____ _____    ______ ____
ROOT
ATOM      1  O   UNL     1      -3.530 -26.894 -19.145  0.00  0.00    +0.000 OA
ATOM      2  O   UNL     1      -9.837 -26.672 -17.500  0.00  0.00    +0.000 OA
ATOM      3  O   UNL     1      -1.333 -27.205 -18.552  0.00  0.00    +0.000 OA
ATOM      4  O   UNL     1      -9.586 -28.241 -15.807  0.00  0.00    +0.000 OA
ATOM      5  C   UNL     1      -4.571 -27.414 -17.091  0.00  0.00    +0.000 C 
ATOM      6  C   UNL     1      -5.587 -27.706 -16.080  0.00  0.00    +0.000 C 
ATOM      7  C   UNL     1      -4.754 -27.004 -18.472  0.00  0.00    +0.000 C 
ATOM      8  C   UNL     1      -6.803 -26.984 -15.961  0.00  0.00    +0.000 C 
ATOM      9  C   UNL     1      -3.136 -27.540 -16.951  0.00  0.00    +0.000 C 
ATOM     10  C   UNL     1      -8.083 -26.345 -15.985  0.00  0.00    +0.000 C 
ATOM     11  C   UNL     1      -5.939 -26.644 -19.156  0.00  0.00    +0.000 C 
ATOM     12  C   UNL     1      -9.011 -25.588 -17.866  0.00  0.00    +0.000 C 
ATOM     13  C   UNL     1      -8.242 -25.806 -19.048  0.00  0.00    +0.000 C 
ATOM     14  C   UNL     1      -7.123 -26.203 -19.815  0.00  0.00    +0.000 C 
ATOM     15  C   UNL     1      -8.268 -25.178 -16.742  0.00  0.00    +0.000 C 
ATOM     16  C   UNL     1      -2.518 -27.214 -18.264  0.00  0.00    +0.000 C 
ATOM     17  C   UNL     1      -9.259 -27.203 -16.355  0.00  0.00    +0.000 C 
ATOM     18  C   UNL     1      -2.461 -27.820 -15.829  0.00  0.00    +0.000 C 
ATOM     19  C   UNL     1      -7.087 -25.912 -21.281  0.00  0.00    +0.000 C 
ENDROOT
BRANCH   6  20
ATOM     20  O   UNL     1      -5.281 -28.563 -15.008  0.00  0.00    +0.000 OA
BRANCH  20  22
ATOM     21  O   UNL     1      -5.482 -30.657 -15.941  0.00  0.00    +0.000 OA
ATOM     22  C   UNL     1      -5.815 -29.830 -15.096  0.00  0.00    +0.000 C 
BRANCH  22  23
ATOM     23  C   UNL     1      -6.840 -30.033 -14.010  0.00  0.00    +0.000 C 
ATOM     24  C   UNL     1      -7.612 -31.330 -13.830  0.00  0.00    +0.000 C 
ATOM     25  C   UNL     1      -7.091 -29.095 -13.089  0.00  0.00    +0.000 C 
ENDBRANCH  22  23
ENDBRANCH  20  22
ENDBRANCH   6  20
TORSDOF 3
ENDMDL
MODEL 8
REMARK VINA RESULT:      -5.1     18.619     22.486
REMARK  Name = 6325056_Deoxyelephantopin.pdbqt.pdb
REMARK  3 active torsions:
REMARK  status: ('A' for Active; 'I' for Inactive)
REMARK    1  A    between atoms: C_6  and  O_20
REMARK    2  A    between atoms: O_20  and  C_22
REMARK    3  A    between atoms: C_22  and  C_23
REMARK                            x       y       z     vdW  Elec       q    Type
REMARK                         _______ _______ _______ _____ _____    ______ ____
ROOT
ATOM      1  O   UNL     1      -4.609 -32.178  -6.533  0.00  0.00    +0.000 OA
ATOM      2  O   UNL     1      -4.245 -37.842  -3.322  0.00  0.00    +0.000 OA
ATOM      3  O   UNL     1      -3.904 -30.815  -8.243  0.00  0.00    +0.000 OA
ATOM      4  O   UNL     1      -3.658 -39.034  -5.226  0.00  0.00    +0.000 OA
ATOM      5  C   UNL     1      -3.385 -34.128  -7.052  0.00  0.00    +0.000 C 
ATOM      6  C   UNL     1      -2.891 -35.505  -7.044  0.00  0.00    +0.000 C 
ATOM      7  C   UNL     1      -4.330 -33.496  -6.150  0.00  0.00    +0.000 C 
ATOM      8  C   UNL     1      -2.616 -36.231  -5.855  0.00  0.00    +0.000 C 
ATOM      9  C   UNL     1      -3.085 -33.097  -8.024  0.00  0.00    +0.000 C 
ATOM     10  C   UNL     1      -2.514 -36.978  -4.639  0.00  0.00    +0.000 C 
ATOM     11  C   UNL     1      -4.906 -33.991  -4.956  0.00  0.00    +0.000 C 
ATOM     12  C   UNL     1      -3.814 -36.576  -2.872  0.00  0.00    +0.000 C 
ATOM     13  C   UNL     1      -4.768 -35.530  -3.051  0.00  0.00    +0.000 C 
ATOM     14  C   UNL     1      -5.417 -34.463  -3.712  0.00  0.00    +0.000 C 
ATOM     15  C   UNL     1      -2.536 -36.311  -3.405  0.00  0.00    +0.000 C 
ATOM     16  C   UNL     1      -3.880 -31.891  -7.669  0.00  0.00    +0.000 C 
ATOM     17  C   UNL     1      -3.490 -38.105  -4.457  0.00  0.00    +0.000 C 
ATOM     18  C   UNL     1      -2.197 -33.170  -9.022  0.00  0.00    +0.000 C 
ATOM     19  C   UNL     1      -6.458 -33.667  -2.993  0.00  0.00    +0.000 C 
ENDROOT
BRANCH   6  20
ATOM     20  O   UNL     1      -2.420 -36.087  -8.234  0.00  0.00    +0.000 OA
BRANCH  20  22
ATOM     21  O   UNL     1      -4.264 -37.387  -8.684  0.00  0.00    +0.000 OA
ATOM     22  C   UNL     1      -3.045 -37.257  -8.605  0.00  0.00    +0.000 C 
BRANCH  22  23
ATOM     23  C   UNL     1      -2.018 -38.320  -8.900  0.00  0.00    +0.000 C 
ATOM     24  C   UNL     1      -1.145 -38.951  -7.827  0.00  0.00    +0.000 C 
ATOM     25  C   UNL     1      -1.853 -38.822 -10.130  0.00  0.00    +0.000 C 
ENDBRANCH  22  23
ENDBRANCH  20  22
ENDBRANCH   6  20
TORSDOF 3
ENDMDL
MODEL 9
REMARK VINA RESULT:      -5.0     20.116     22.397
REMARK  Name = 6325056_Deoxyelephantopin.pdbqt.pdb
REMARK  3 active torsions:
REMARK  status: ('A' for Active; 'I' for Inactive)
REMARK    1  A    between atoms: C_6  and  O_20
REMARK    2  A    between atoms: O_20  and  C_22
REMARK    3  A    between atoms: C_22  and  C_23
REMARK                            x       y       z     vdW  Elec       q    Type
REMARK                         _______ _______ _______ _____ _____    ______ ____
ROOT
ATOM      1  O   UNL     1     -11.310 -27.834 -18.599  0.00  0.00    +0.000 OA
ATOM      2  O   UNL     1      -5.885 -29.162 -15.233  0.00  0.00    +0.000 OA
ATOM      3  O   UNL     1     -12.739 -26.301 -19.538  0.00  0.00    +0.000 OA
ATOM      4  O   UNL     1      -4.777 -27.280 -16.021  0.00  0.00    +0.000 OA
ATOM      5  C   UNL     1      -9.607 -26.381 -17.852  0.00  0.00    +0.000 C 
ATOM      6  C   UNL     1      -8.345 -25.878 -17.309  0.00  0.00    +0.000 C 
ATOM      7  C   UNL     1     -10.075 -27.752 -17.944  0.00  0.00    +0.000 C 
ATOM      8  C   UNL     1      -7.710 -26.429 -16.165  0.00  0.00    +0.000 C 
ATOM      9  C   UNL     1     -10.652 -25.611 -18.491  0.00  0.00    +0.000 C 
ATOM     10  C   UNL     1      -7.022 -27.120 -15.117  0.00  0.00    +0.000 C 
ATOM     11  C   UNL     1      -9.510 -28.935 -17.411  0.00  0.00    +0.000 C 
ATOM     12  C   UNL     1      -7.219 -29.319 -14.799  0.00  0.00    +0.000 C 
ATOM     13  C   UNL     1      -8.066 -29.990 -15.731  0.00  0.00    +0.000 C 
ATOM     14  C   UNL     1      -8.980 -30.110 -16.802  0.00  0.00    +0.000 C 
ATOM     15  C   UNL     1      -7.702 -28.075 -14.346  0.00  0.00    +0.000 C 
ATOM     16  C   UNL     1     -11.700 -26.559 -18.955  0.00  0.00    +0.000 C 
ATOM     17  C   UNL     1      -5.739 -27.806 -15.491  0.00  0.00    +0.000 C 
ATOM     18  C   UNL     1     -10.722 -24.278 -18.588  0.00  0.00    +0.000 C 
ATOM     19  C   UNL     1      -9.587 -31.440 -17.114  0.00  0.00    +0.000 C 
ENDROOT
BRANCH   6  20
ATOM     20  O   UNL     1      -7.833 -24.647 -17.754  0.00  0.00    +0.000 OA
BRANCH  20  22
ATOM     21  O   UNL     1      -6.027 -25.473 -18.917  0.00  0.00    +0.000 OA
ATOM     22  C   UNL     1      -6.993 -24.718 -18.844  0.00  0.00    +0.000 C 
BRANCH  22  23
ATOM     23  C   UNL     1      -7.446 -23.750 -19.907  0.00  0.00    +0.000 C 
ATOM     24  C   UNL     1      -8.040 -24.194 -21.234  0.00  0.00    +0.000 C 
ATOM     25  C   UNL     1      -7.410 -22.425 -19.719  0.00  0.00    +0.000 C 
ENDBRANCH  22  23
ENDBRANCH  20  22
ENDBRANCH   6  20
TORSDOF 3
ENDMDL
