MODEL 1
REMARK VINA RESULT:      -5.2      0.000      0.000
REMARK  Name = 641785_Cardamonin.pdbqt.pdb
REMARK  6 active torsions:
REMARK  status: ('A' for Active; 'I' for Inactive)
REMARK    1  A    between atoms: C_1  and  C_14
REMARK    2  A    between atoms: C_2  and  O_7
REMARK    3  A    between atoms: C_3  and  O_9
REMARK    4  A    between atoms: C_6  and  O_11
REMARK    5  A    between atoms: C_14  and  C_15
REMARK    6  A    between atoms: C_16  and  C_17
REMARK                            x       y       z     vdW  Elec       q    Type
REMARK                         _______ _______ _______ _____ _____    ______ ____
ROOT
ATOM      1  C   UNL     1     -15.057 -17.862  -1.325  0.00  0.00    +0.000 A 
ATOM      2  C   UNL     1     -15.034 -17.029  -0.190  0.00  0.00    +0.000 A 
ATOM      3  C   UNL     1     -13.942 -18.685  -1.586  0.00  0.00    +0.000 A 
ATOM      4  C   UNL     1     -13.897 -17.020   0.631  0.00  0.00    +0.000 A 
ATOM      5  C   UNL     1     -12.816 -18.657  -0.765  0.00  0.00    +0.000 A 
ATOM      6  C   UNL     1     -12.799 -17.818   0.337  0.00  0.00    +0.000 A 
ENDROOT
BRANCH   2   7
ATOM      7  O   UNL     1     -16.157 -16.301   0.127  0.00  0.00    +0.000 OA
ATOM      8  C   UNL     1     -15.977 -15.262   1.048  0.00  0.00    +0.000 C 
ENDBRANCH   2   7
BRANCH   3   9
ATOM      9  O   UNL     1     -13.874 -19.556  -2.644  0.00  0.00    +0.000 OA
ATOM     10  H   UNL     1     -13.284 -20.308  -2.416  0.00  0.00    +0.000 HD
ENDBRANCH   3   9
BRANCH   6  11
ATOM     11  O   UNL     1     -11.691 -17.800   1.130  0.00  0.00    +0.000 OA
ATOM     12  H   UNL     1     -11.037 -17.192   0.742  0.00  0.00    +0.000 HD
ENDBRANCH   6  11
BRANCH   1  14
ATOM     13  O   UNL     1     -17.103 -18.740  -2.093  0.00  0.00    +0.000 OA
ATOM     14  C   UNL     1     -16.201 -17.928  -2.270  0.00  0.00    +0.000 C 
BRANCH  14  15
ATOM     15  C   UNL     1     -16.230 -17.093  -3.445  0.00  0.00    +0.000 C 
ATOM     16  C   UNL     1     -16.255 -16.382  -4.415  0.00  0.00    +0.000 C 
BRANCH  16  17
ATOM     17  C   UNL     1     -16.286 -15.544  -5.568  0.00  0.00    +0.000 A 
ATOM     18  C   UNL     1     -15.367 -14.503  -5.694  0.00  0.00    +0.000 A 
ATOM     19  C   UNL     1     -17.233 -15.766  -6.564  0.00  0.00    +0.000 A 
ATOM     20  C   UNL     1     -15.398 -13.683  -6.820  0.00  0.00    +0.000 A 
ATOM     21  C   UNL     1     -17.263 -14.945  -7.690  0.00  0.00    +0.000 A 
ATOM     22  C   UNL     1     -16.346 -13.905  -7.816  0.00  0.00    +0.000 A 
ENDBRANCH  16  17
ENDBRANCH  14  15
ENDBRANCH   1  14
TORSDOF 6
ENDMDL
MODEL 2
REMARK VINA RESULT:      -5.0      3.292      7.150
REMARK  Name = 641785_Cardamonin.pdbqt.pdb
REMARK  6 active torsions:
REMARK  status: ('A' for Active; 'I' for Inactive)
REMARK    1  A    between atoms: C_1  and  C_14
REMARK    2  A    between atoms: C_2  and  O_7
REMARK    3  A    between atoms: C_3  and  O_9
REMARK    4  A    between atoms: C_6  and  O_11
REMARK    5  A    between atoms: C_14  and  C_15
REMARK    6  A    between atoms: C_16  and  C_17
REMARK                            x       y       z     vdW  Elec       q    Type
REMARK                         _______ _______ _______ _____ _____    ______ ____
ROOT
ATOM      1  C   UNL     1     -13.887 -17.973  -0.155  0.00  0.00    +0.000 A 
ATOM      2  C   UNL     1     -15.026 -17.164  -0.332  0.00  0.00    +0.000 A 
ATOM      3  C   UNL     1     -13.469 -18.800  -1.218  0.00  0.00    +0.000 A 
ATOM      4  C   UNL     1     -15.725 -17.222  -1.547  0.00  0.00    +0.000 A 
ATOM      5  C   UNL     1     -14.182 -18.852  -2.415  0.00  0.00    +0.000 A 
ATOM      6  C   UNL     1     -15.312 -18.066  -2.569  0.00  0.00    +0.000 A 
ENDROOT
BRANCH   2   7
ATOM      7  O   UNL     1     -15.379 -16.280   0.661  0.00  0.00    +0.000 OA
ATOM      8  C   UNL     1     -16.518 -15.504   0.417  0.00  0.00    +0.000 C 
ENDBRANCH   2   7
BRANCH   3   9
ATOM      9  O   UNL     1     -12.357 -19.602  -1.163  0.00  0.00    +0.000 OA
ATOM     10  H   UNL     1     -11.615 -19.111  -0.746  0.00  0.00    +0.000 HD
ENDBRANCH   3   9
BRANCH   6  11
ATOM     11  O   UNL     1     -16.000 -18.129  -3.743  0.00  0.00    +0.000 OA
ATOM     12  H   UNL     1     -15.371 -18.300  -4.467  0.00  0.00    +0.000 HD
ENDBRANCH   6  11
BRANCH   1  14
ATOM     13  O   UNL     1     -13.486 -18.641   2.068  0.00  0.00    +0.000 OA
ATOM     14  C   UNL     1     -13.090 -18.003   1.098  0.00  0.00    +0.000 C 
BRANCH  14  15
ATOM     15  C   UNL     1     -11.882 -17.224   1.218  0.00  0.00    +0.000 C 
ATOM     16  C   UNL     1     -10.884 -16.560   1.312  0.00  0.00    +0.000 C 
BRANCH  16  17
ATOM     17  C   UNL     1      -9.697 -15.778   1.423  0.00  0.00    +0.000 A 
ATOM     18  C   UNL     1      -8.489 -16.392   1.748  0.00  0.00    +0.000 A 
ATOM     19  C   UNL     1      -9.747 -14.402   1.210  0.00  0.00    +0.000 A 
ATOM     20  C   UNL     1      -7.330 -15.629   1.860  0.00  0.00    +0.000 A 
ATOM     21  C   UNL     1      -8.587 -13.640   1.321  0.00  0.00    +0.000 A 
ATOM     22  C   UNL     1      -7.379 -14.253   1.646  0.00  0.00    +0.000 A 
ENDBRANCH  16  17
ENDBRANCH  14  15
ENDBRANCH   1  14
TORSDOF 6
ENDMDL
MODEL 3
REMARK VINA RESULT:      -4.9     16.459     18.059
REMARK  Name = 641785_Cardamonin.pdbqt.pdb
REMARK  6 active torsions:
REMARK  status: ('A' for Active; 'I' for Inactive)
REMARK    1  A    between atoms: C_1  and  C_14
REMARK    2  A    between atoms: C_2  and  O_7
REMARK    3  A    between atoms: C_3  and  O_9
REMARK    4  A    between atoms: C_6  and  O_11
REMARK    5  A    between atoms: C_14  and  C_15
REMARK    6  A    between atoms: C_16  and  C_17
REMARK                            x       y       z     vdW  Elec       q    Type
REMARK                         _______ _______ _______ _____ _____    ______ ____
ROOT
ATOM      1  C   UNL     1      -0.187 -18.433 -14.248  0.00  0.00    +0.000 A 
ATOM      2  C   UNL     1      -0.018 -17.162 -13.666  0.00  0.00    +0.000 A 
ATOM      3  C   UNL     1       0.452 -19.542 -13.656  0.00  0.00    +0.000 A 
ATOM      4  C   UNL     1       0.799 -17.029 -12.534  0.00  0.00    +0.000 A 
ATOM      5  C   UNL     1       1.270 -19.390 -12.537  0.00  0.00    +0.000 A 
ATOM      6  C   UNL     1       1.443 -18.131 -11.986  0.00  0.00    +0.000 A 
ENDROOT
BRANCH   2   7
ATOM      7  O   UNL     1      -0.721 -16.095 -14.177  0.00  0.00    +0.000 OA
ATOM      8  C   UNL     1       0.006 -15.208 -14.980  0.00  0.00    +0.000 C 
ENDBRANCH   2   7
BRANCH   3   9
ATOM      9  O   UNL     1       0.329 -20.826 -14.123  0.00  0.00    +0.000 OA
ATOM     10  H   UNL     1       0.595 -20.862 -15.068  0.00  0.00    +0.000 HD
ENDBRANCH   3   9
BRANCH   6  11
ATOM     11  O   UNL     1       2.245 -17.998 -10.894  0.00  0.00    +0.000 OA
ATOM     12  H   UNL     1       2.522 -18.883 -10.597  0.00  0.00    +0.000 HD
ENDBRANCH   6  11
BRANCH   1  14
ATOM     13  O   UNL     1      -0.513 -19.189 -16.455  0.00  0.00    +0.000 OA
ATOM     14  C   UNL     1      -1.012 -18.676 -15.459  0.00  0.00    +0.000 C 
BRANCH  14  15
ATOM     15  C   UNL     1      -2.388 -18.247 -15.508  0.00  0.00    +0.000 C 
ATOM     16  C   UNL     1      -3.533 -17.880 -15.532  0.00  0.00    +0.000 C 
BRANCH  16  17
ATOM     17  C   UNL     1      -4.891 -17.450 -15.566  0.00  0.00    +0.000 A 
ATOM     18  C   UNL     1      -5.905 -18.371 -15.822  0.00  0.00    +0.000 A 
ATOM     19  C   UNL     1      -5.203 -16.110 -15.345  0.00  0.00    +0.000 A 
ATOM     20  C   UNL     1      -7.233 -17.951 -15.857  0.00  0.00    +0.000 A 
ATOM     21  C   UNL     1      -6.531 -15.691 -15.380  0.00  0.00    +0.000 A 
ATOM     22  C   UNL     1      -7.545 -16.611 -15.636  0.00  0.00    +0.000 A 
ENDBRANCH  16  17
ENDBRANCH  14  15
ENDBRANCH   1  14
TORSDOF 6
ENDMDL
MODEL 4
REMARK VINA RESULT:      -4.8     12.241     14.671
REMARK  Name = 641785_Cardamonin.pdbqt.pdb
REMARK  6 active torsions:
REMARK  status: ('A' for Active; 'I' for Inactive)
REMARK    1  A    between atoms: C_1  and  C_14
REMARK    2  A    between atoms: C_2  and  O_7
REMARK    3  A    between atoms: C_3  and  O_9
REMARK    4  A    between atoms: C_6  and  O_11
REMARK    5  A    between atoms: C_14  and  C_15
REMARK    6  A    between atoms: C_16  and  C_17
REMARK                            x       y       z     vdW  Elec       q    Type
REMARK                         _______ _______ _______ _____ _____    ______ ____
ROOT
ATOM      1  C   UNL     1      -5.645  -7.453  -8.954  0.00  0.00    +0.000 A 
ATOM      2  C   UNL     1      -6.003  -7.658 -10.300  0.00  0.00    +0.000 A 
ATOM      3  C   UNL     1      -4.840  -8.416  -8.311  0.00  0.00    +0.000 A 
ATOM      4  C   UNL     1      -5.573  -8.821 -10.955  0.00  0.00    +0.000 A 
ATOM      5  C   UNL     1      -4.431  -9.572  -8.974  0.00  0.00    +0.000 A 
ATOM      6  C   UNL     1      -4.806  -9.770 -10.292  0.00  0.00    +0.000 A 
ENDROOT
BRANCH   2   7
ATOM      7  O   UNL     1      -6.700  -6.674 -10.963  0.00  0.00    +0.000 OA
ATOM      8  C   UNL     1      -5.967  -5.917 -11.885  0.00  0.00    +0.000 C 
ENDBRANCH   2   7
BRANCH   3   9
ATOM      9  O   UNL     1      -4.409  -8.300  -7.014  0.00  0.00    +0.000 OA
ATOM     10  H   UNL     1      -3.551  -7.820  -6.992  0.00  0.00    +0.000 HD
ENDBRANCH   3   9
BRANCH   6  11
ATOM     11  O   UNL     1      -4.399 -10.905 -10.926  0.00  0.00    +0.000 OA
ATOM     12  H   UNL     1      -4.978 -11.640 -10.657  0.00  0.00    +0.000 HD
ENDBRANCH   6  11
BRANCH   1  14
ATOM     13  O   UNL     1      -5.307  -5.315  -8.025  0.00  0.00    +0.000 OA
ATOM     14  C   UNL     1      -6.067  -6.267  -8.165  0.00  0.00    +0.000 C 
BRANCH  14  15
ATOM     15  C   UNL     1      -7.343  -6.250  -7.493  0.00  0.00    +0.000 C 
ATOM     16  C   UNL     1      -8.412  -6.222  -6.944  0.00  0.00    +0.000 C 
BRANCH  16  17
ATOM     17  C   UNL     1      -9.678  -6.193  -6.289  0.00  0.00    +0.000 A 
ATOM     18  C   UNL     1     -10.783  -6.799  -6.884  0.00  0.00    +0.000 A 
ATOM     19  C   UNL     1      -9.809  -5.557  -5.056  0.00  0.00    +0.000 A 
ATOM     20  C   UNL     1     -12.020  -6.769  -6.245  0.00  0.00    +0.000 A 
ATOM     21  C   UNL     1     -11.046  -5.528  -4.417  0.00  0.00    +0.000 A 
ATOM     22  C   UNL     1     -12.151  -6.133  -5.012  0.00  0.00    +0.000 A 
ENDBRANCH  16  17
ENDBRANCH  14  15
ENDBRANCH   1  14
TORSDOF 6
ENDMDL
MODEL 5
REMARK VINA RESULT:      -4.8      2.970      6.725
REMARK  Name = 641785_Cardamonin.pdbqt.pdb
REMARK  6 active torsions:
REMARK  status: ('A' for Active; 'I' for Inactive)
REMARK    1  A    between atoms: C_1  and  C_14
REMARK    2  A    between atoms: C_2  and  O_7
REMARK    3  A    between atoms: C_3  and  O_9
REMARK    4  A    between atoms: C_6  and  O_11
REMARK    5  A    between atoms: C_14  and  C_15
REMARK    6  A    between atoms: C_16  and  C_17
REMARK                            x       y       z     vdW  Elec       q    Type
REMARK                         _______ _______ _______ _____ _____    ______ ____
ROOT
ATOM      1  C   UNL     1     -16.922 -15.036  -4.287  0.00  0.00    +0.000 A 
ATOM      2  C   UNL     1     -18.018 -14.572  -3.535  0.00  0.00    +0.000 A 
ATOM      3  C   UNL     1     -16.277 -14.144  -5.169  0.00  0.00    +0.000 A 
ATOM      4  C   UNL     1     -18.454 -13.250  -3.702  0.00  0.00    +0.000 A 
ATOM      5  C   UNL     1     -16.730 -12.836  -5.330  0.00  0.00    +0.000 A 
ATOM      6  C   UNL     1     -17.822 -12.398  -4.599  0.00  0.00    +0.000 A 
ENDROOT
BRANCH   2   7
ATOM      7  O   UNL     1     -18.586 -15.405  -2.599  0.00  0.00    +0.000 OA
ATOM      8  C   UNL     1     -18.405 -15.038  -1.260  0.00  0.00    +0.000 C 
ENDBRANCH   2   7
BRANCH   3   9
ATOM      9  O   UNL     1     -15.182 -14.483  -5.923  0.00  0.00    +0.000 OA
ATOM     10  H   UNL     1     -14.491 -14.875  -5.346  0.00  0.00    +0.000 HD
ENDBRANCH   3   9
BRANCH   6  11
ATOM     11  O   UNL     1     -18.254 -11.118  -4.768  0.00  0.00    +0.000 OA
ATOM     12  H   UNL     1     -17.630 -10.514  -4.326  0.00  0.00    +0.000 HD
ENDBRANCH   6  11
BRANCH   1  14
ATOM     13  O   UNL     1     -16.758 -17.272  -5.009  0.00  0.00    +0.000 OA
ATOM     14  C   UNL     1     -16.397 -16.423  -4.201  0.00  0.00    +0.000 C 
BRANCH  14  15
ATOM     15  C   UNL     1     -15.517 -16.809  -3.125  0.00  0.00    +0.000 C 
ATOM     16  C   UNL     1     -14.769 -17.129  -2.241  0.00  0.00    +0.000 C 
BRANCH  16  17
ATOM     17  C   UNL     1     -13.887 -17.512  -1.187  0.00  0.00    +0.000 A 
ATOM     18  C   UNL     1     -13.351 -16.540  -0.343  0.00  0.00    +0.000 A 
ATOM     19  C   UNL     1     -13.562 -18.854  -1.005  0.00  0.00    +0.000 A 
ATOM     20  C   UNL     1     -12.489 -16.913   0.685  0.00  0.00    +0.000 A 
ATOM     21  C   UNL     1     -12.699 -19.225   0.024  0.00  0.00    +0.000 A 
ATOM     22  C   UNL     1     -12.163 -18.255   0.867  0.00  0.00    +0.000 A 
ENDBRANCH  16  17
ENDBRANCH  14  15
ENDBRANCH   1  14
TORSDOF 6
ENDMDL
MODEL 6
REMARK VINA RESULT:      -4.7      7.083     10.118
REMARK  Name = 641785_Cardamonin.pdbqt.pdb
REMARK  6 active torsions:
REMARK  status: ('A' for Active; 'I' for Inactive)
REMARK    1  A    between atoms: C_1  and  C_14
REMARK    2  A    between atoms: C_2  and  O_7
REMARK    3  A    between atoms: C_3  and  O_9
REMARK    4  A    between atoms: C_6  and  O_11
REMARK    5  A    between atoms: C_14  and  C_15
REMARK    6  A    between atoms: C_16  and  C_17
REMARK                            x       y       z     vdW  Elec       q    Type
REMARK                         _______ _______ _______ _____ _____    ______ ____
ROOT
ATOM      1  C   UNL     1      -5.935 -13.431   0.235  0.00  0.00    +0.000 A 
ATOM      2  C   UNL     1      -5.054 -14.334   0.860  0.00  0.00    +0.000 A 
ATOM      3  C   UNL     1      -5.666 -13.024  -1.087  0.00  0.00    +0.000 A 
ATOM      4  C   UNL     1      -3.924 -14.783   0.162  0.00  0.00    +0.000 A 
ATOM      5  C   UNL     1      -4.532 -13.472  -1.763  0.00  0.00    +0.000 A 
ATOM      6  C   UNL     1      -3.663 -14.345  -1.130  0.00  0.00    +0.000 A 
ENDROOT
BRANCH   2   7
ATOM      7  O   UNL     1      -5.366 -14.814   2.111  0.00  0.00    +0.000 OA
ATOM      8  C   UNL     1      -5.607 -16.190   2.198  0.00  0.00    +0.000 C 
ENDBRANCH   2   7
BRANCH   3   9
ATOM      9  O   UNL     1      -6.474 -12.173  -1.799  0.00  0.00    +0.000 OA
ATOM     10  H   UNL     1      -7.369 -12.569  -1.894  0.00  0.00    +0.000 HD
ENDBRANCH   3   9
BRANCH   6  11
ATOM     11  O   UNL     1      -2.559 -14.774  -1.802  0.00  0.00    +0.000 OA
ATOM     12  H   UNL     1      -2.234 -14.050  -2.368  0.00  0.00    +0.000 HD
ENDBRANCH   6  11
BRANCH   1  14
ATOM     13  O   UNL     1      -7.115 -11.770   1.417  0.00  0.00    +0.000 OA
ATOM     14  C   UNL     1      -7.146 -12.879   0.895  0.00  0.00    +0.000 C 
BRANCH  14  15
ATOM     15  C   UNL     1      -8.350 -13.667   0.997  0.00  0.00    +0.000 C 
ATOM     16  C   UNL     1      -9.355 -14.322   1.063  0.00  0.00    +0.000 C 
BRANCH  16  17
ATOM     17  C   UNL     1     -10.548 -15.099   1.148  0.00  0.00    +0.000 A 
ATOM     18  C   UNL     1     -10.482 -16.431   1.554  0.00  0.00    +0.000 A 
ATOM     19  C   UNL     1     -11.776 -14.527   0.824  0.00  0.00    +0.000 A 
ATOM     20  C   UNL     1     -11.646 -17.190   1.636  0.00  0.00    +0.000 A 
ATOM     21  C   UNL     1     -12.940 -15.288   0.906  0.00  0.00    +0.000 A 
ATOM     22  C   UNL     1     -12.874 -16.618   1.312  0.00  0.00    +0.000 A 
ENDBRANCH  16  17
ENDBRANCH  14  15
ENDBRANCH   1  14
TORSDOF 6
ENDMDL
MODEL 7
REMARK VINA RESULT:      -4.7      2.622      3.954
REMARK  Name = 641785_Cardamonin.pdbqt.pdb
REMARK  6 active torsions:
REMARK  status: ('A' for Active; 'I' for Inactive)
REMARK    1  A    between atoms: C_1  and  C_14
REMARK    2  A    between atoms: C_2  and  O_7
REMARK    3  A    between atoms: C_3  and  O_9
REMARK    4  A    between atoms: C_6  and  O_11
REMARK    5  A    between atoms: C_14  and  C_15
REMARK    6  A    between atoms: C_16  and  C_17
REMARK                            x       y       z     vdW  Elec       q    Type
REMARK                         _______ _______ _______ _____ _____    ______ ____
ROOT
ATOM      1  C   UNL     1     -16.231 -19.831  -1.707  0.00  0.00    +0.000 A 
ATOM      2  C   UNL     1     -17.588 -20.207  -1.731  0.00  0.00    +0.000 A 
ATOM      3  C   UNL     1     -15.500 -20.000  -0.514  0.00  0.00    +0.000 A 
ATOM      4  C   UNL     1     -18.180 -20.712  -0.564  0.00  0.00    +0.000 A 
ATOM      5  C   UNL     1     -16.106 -20.495   0.640  0.00  0.00    +0.000 A 
ATOM      6  C   UNL     1     -17.446 -20.842   0.609  0.00  0.00    +0.000 A 
ENDROOT
BRANCH   2   7
ATOM      7  O   UNL     1     -18.279 -20.141  -2.918  0.00  0.00    +0.000 OA
ATOM      8  C   UNL     1     -19.599 -20.607  -2.888  0.00  0.00    +0.000 C 
ENDBRANCH   2   7
BRANCH   3   9
ATOM      9  O   UNL     1     -14.167 -19.697  -0.392  0.00  0.00    +0.000 OA
ATOM     10  H   UNL     1     -14.051 -18.722  -0.362  0.00  0.00    +0.000 HD
ENDBRANCH   3   9
BRANCH   6  11
ATOM     11  O   UNL     1     -18.026 -21.323   1.743  0.00  0.00    +0.000 OA
ATOM     12  H   UNL     1     -18.394 -22.206   1.559  0.00  0.00    +0.000 HD
ENDBRANCH   6  11
BRANCH   1  14
ATOM     13  O   UNL     1     -14.605 -19.889  -3.410  0.00  0.00    +0.000 OA
ATOM     14  C   UNL     1     -15.518 -19.265  -2.881  0.00  0.00    +0.000 C 
BRANCH  14  15
ATOM     15  C   UNL     1     -15.837 -17.945  -3.366  0.00  0.00    +0.000 C 
ATOM     16  C   UNL     1     -16.109 -16.840  -3.753  0.00  0.00    +0.000 C 
BRANCH  16  17
ATOM     17  C   UNL     1     -16.431 -15.531  -4.219  0.00  0.00    +0.000 A 
ATOM     18  C   UNL     1     -17.553 -14.872  -3.718  0.00  0.00    +0.000 A 
ATOM     19  C   UNL     1     -15.627 -14.915  -5.175  0.00  0.00    +0.000 A 
ATOM     20  C   UNL     1     -17.869 -13.595  -4.174  0.00  0.00    +0.000 A 
ATOM     21  C   UNL     1     -15.944 -13.637  -5.631  0.00  0.00    +0.000 A 
ATOM     22  C   UNL     1     -17.065 -12.979  -5.130  0.00  0.00    +0.000 A 
ENDBRANCH  16  17
ENDBRANCH  14  15
ENDBRANCH   1  14
TORSDOF 6
ENDMDL
MODEL 8
REMARK VINA RESULT:      -4.5     18.171     21.048
REMARK  Name = 641785_Cardamonin.pdbqt.pdb
REMARK  6 active torsions:
REMARK  status: ('A' for Active; 'I' for Inactive)
REMARK    1  A    between atoms: C_1  and  C_14
REMARK    2  A    between atoms: C_2  and  O_7
REMARK    3  A    between atoms: C_3  and  O_9
REMARK    4  A    between atoms: C_6  and  O_11
REMARK    5  A    between atoms: C_14  and  C_15
REMARK    6  A    between atoms: C_16  and  C_17
REMARK                            x       y       z     vdW  Elec       q    Type
REMARK                         _______ _______ _______ _____ _____    ______ ____
ROOT
ATOM      1  C   UNL     1      -4.568 -32.584   8.625  0.00  0.00    +0.000 A 
ATOM      2  C   UNL     1      -4.237 -31.310   9.123  0.00  0.00    +0.000 A 
ATOM      3  C   UNL     1      -3.527 -33.456   8.243  0.00  0.00    +0.000 A 
ATOM      4  C   UNL     1      -2.888 -30.933   9.201  0.00  0.00    +0.000 A 
ATOM      5  C   UNL     1      -2.192 -33.061   8.316  0.00  0.00    +0.000 A 
ATOM      6  C   UNL     1      -1.881 -31.797   8.790  0.00  0.00    +0.000 A 
ENDROOT
BRANCH   2   7
ATOM      7  O   UNL     1      -5.241 -30.495   9.594  0.00  0.00    +0.000 OA
ATOM      8  C   UNL     1      -4.830 -29.375  10.328  0.00  0.00    +0.000 C 
ENDBRANCH   2   7
BRANCH   3   9
ATOM      9  O   UNL     1      -3.737 -34.729   7.775  0.00  0.00    +0.000 OA
ATOM     10  H   UNL     1      -3.557 -35.377   8.491  0.00  0.00    +0.000 HD
ENDBRANCH   3   9
BRANCH   6  11
ATOM     11  O   UNL     1      -0.573 -31.424   8.855  0.00  0.00    +0.000 OA
ATOM     12  H   UNL     1      -0.526 -30.458   8.963  0.00  0.00    +0.000 HD
ENDBRANCH   6  11
BRANCH   1  14
ATOM     13  O   UNL     1      -6.522 -33.633   9.418  0.00  0.00    +0.000 OA
ATOM     14  C   UNL     1      -5.964 -33.071   8.482  0.00  0.00    +0.000 C 
BRANCH  14  15
ATOM     15  C   UNL     1      -6.655 -32.956   7.222  0.00  0.00    +0.000 C 
ATOM     16  C   UNL     1      -7.245 -32.871   6.178  0.00  0.00    +0.000 C 
BRANCH  16  17
ATOM     17  C   UNL     1      -7.940 -32.767   4.937  0.00  0.00    +0.000 A 
ATOM     18  C   UNL     1      -8.103 -33.897   4.136  0.00  0.00    +0.000 A 
ATOM     19  C   UNL     1      -8.451 -31.539   4.526  0.00  0.00    +0.000 A 
ATOM     20  C   UNL     1      -8.780 -33.796   2.923  0.00  0.00    +0.000 A 
ATOM     21  C   UNL     1      -9.128 -31.439   3.312  0.00  0.00    +0.000 A 
ATOM     22  C   UNL     1      -9.291 -32.567   2.512  0.00  0.00    +0.000 A 
ENDBRANCH  16  17
ENDBRANCH  14  15
ENDBRANCH   1  14
TORSDOF 6
ENDMDL
MODEL 9
REMARK VINA RESULT:      -4.5      3.812      6.311
REMARK  Name = 641785_Cardamonin.pdbqt.pdb
REMARK  6 active torsions:
REMARK  status: ('A' for Active; 'I' for Inactive)
REMARK    1  A    between atoms: C_1  and  C_14
REMARK    2  A    between atoms: C_2  and  O_7
REMARK    3  A    between atoms: C_3  and  O_9
REMARK    4  A    between atoms: C_6  and  O_11
REMARK    5  A    between atoms: C_14  and  C_15
REMARK    6  A    between atoms: C_16  and  C_17
REMARK                            x       y       z     vdW  Elec       q    Type
REMARK                         _______ _______ _______ _____ _____    ______ ____
ROOT
ATOM      1  C   UNL     1     -15.830 -18.546  -1.230  0.00  0.00    +0.000 A 
ATOM      2  C   UNL     1     -16.773 -18.428  -0.191  0.00  0.00    +0.000 A 
ATOM      3  C   UNL     1     -15.674 -19.793  -1.868  0.00  0.00    +0.000 A 
ATOM      4  C   UNL     1     -17.511 -19.557   0.196  0.00  0.00    +0.000 A 
ATOM      5  C   UNL     1     -16.408 -20.907  -1.464  0.00  0.00    +0.000 A 
ATOM      6  C   UNL     1     -17.319 -20.782  -0.428  0.00  0.00    +0.000 A 
ENDROOT
BRANCH   2   7
ATOM      7  O   UNL     1     -17.003 -17.191   0.366  0.00  0.00    +0.000 OA
ATOM      8  C   UNL     1     -18.085 -16.473  -0.158  0.00  0.00    +0.000 C 
ENDBRANCH   2   7
BRANCH   3   9
ATOM      9  O   UNL     1     -14.808 -20.008  -2.911  0.00  0.00    +0.000 OA
ATOM     10  H   UNL     1     -15.316 -20.225  -3.723  0.00  0.00    +0.000 HD
ENDBRANCH   3   9
BRANCH   6  11
ATOM     11  O   UNL     1     -18.029 -21.879  -0.043  0.00  0.00    +0.000 OA
ATOM     12  H   UNL     1     -18.428 -21.706   0.828  0.00  0.00    +0.000 HD
ENDBRANCH   6  11
BRANCH   1  14
ATOM     13  O   UNL     1     -15.168 -16.925  -2.805  0.00  0.00    +0.000 OA
ATOM     14  C   UNL     1     -14.983 -17.419  -1.699  0.00  0.00    +0.000 C 
BRANCH  14  15
ATOM     15  C   UNL     1     -13.887 -16.940  -0.893  0.00  0.00    +0.000 C 
ATOM     16  C   UNL     1     -12.965 -16.533  -0.237  0.00  0.00    +0.000 C 
BRANCH  16  17
ATOM     17  C   UNL     1     -11.874 -16.055   0.547  0.00  0.00    +0.000 A 
ATOM     18  C   UNL     1     -11.153 -16.940   1.346  0.00  0.00    +0.000 A 
ATOM     19  C   UNL     1     -11.533 -14.705   0.514  0.00  0.00    +0.000 A 
ATOM     20  C   UNL     1     -10.088 -16.473   2.113  0.00  0.00    +0.000 A 
ATOM     21  C   UNL     1     -10.468 -14.239   1.282  0.00  0.00    +0.000 A 
ATOM     22  C   UNL     1      -9.747 -15.123   2.080  0.00  0.00    +0.000 A 
ENDBRANCH  16  17
ENDBRANCH  14  15
ENDBRANCH   1  14
TORSDOF 6
ENDMDL
