REMARK  Name = 6440856_Goniothalamin.pdbqt.pdb
REMARK  2 active torsions:
REMARK  status: ('A' for Active; 'I' for Inactive)
REMARK    1  A    between atoms: C_1  and  C_5
REMARK    2  A    between atoms: C_2  and  C_10
REMARK                            x       y       z     vdW  Elec       q    Type
REMARK                         _______ _______ _______ _____ _____    ______ ____
ROOT
ATOM      1  C   UNL     1       0.257   0.169   0.044  0.00  0.00    +0.000 C 
ATOM      2  C   UNL     1      -0.941   0.089   0.041  0.00  0.00    +0.000 C 
ENDROOT
BRANCH   1   5
ATOM      3  O   UNL     1       2.434  -0.908  -0.306  0.00  0.00    +0.000 OA
ATOM      4  O   UNL     1       4.588  -1.722  -0.578  0.00  0.00    +0.000 OA
ATOM      5  C   UNL     1       1.668   0.259   0.048  0.00  0.00    +0.000 A 
ATOM      6  C   UNL     1       2.432   1.413   0.373  0.00  0.00    +0.000 A 
ATOM      7  C   UNL     1       3.932   1.592   0.401  0.00  0.00    +0.000 A 
ATOM      8  C   UNL     1       4.320   0.506   0.078  0.00  0.00    +0.000 A 
ATOM      9  C   UNL     1       3.830  -0.806  -0.298  0.00  0.00    +0.000 A 
ENDBRANCH   1   5
BRANCH   2  10
ATOM     10  C   UNL     1      -2.364  -0.006   0.037  0.00  0.00    +0.000 A 
ATOM     11  C   UNL     1      -3.010  -0.814   0.970  0.00  0.00    +0.000 A 
ATOM     12  C   UNL     1      -3.106   0.710  -0.900  0.00  0.00    +0.000 A 
ATOM     13  C   UNL     1      -4.400  -0.907   0.965  0.00  0.00    +0.000 A 
ATOM     14  C   UNL     1      -4.496   0.617  -0.904  0.00  0.00    +0.000 A 
ATOM     15  C   UNL     1      -5.142  -0.191   0.029  0.00  0.00    +0.000 A 
ENDBRANCH   2  10
TORSDOF 2
