MODEL 1
REMARK VINA RESULT:      -5.2      0.000      0.000
REMARK  Name = 6440856_Goniothalamin.pdbqt.pdb
REMARK  2 active torsions:
REMARK  status: ('A' for Active; 'I' for Inactive)
REMARK    1  A    between atoms: C_1  and  C_5
REMARK    2  A    between atoms: C_2  and  C_10
REMARK                            x       y       z     vdW  Elec       q    Type
REMARK                         _______ _______ _______ _____ _____    ______ ____
ROOT
ATOM      1  C   UNL     1      -6.199 -33.049  -5.384  0.00  0.00    +0.000 C 
ATOM      2  C   UNL     1      -6.734 -33.045  -4.309  0.00  0.00    +0.000 C 
ENDROOT
BRANCH   1   5
ATOM      3  O   UNL     1      -4.502 -32.119  -6.893  0.00  0.00    +0.000 OA
ATOM      4  O   UNL     1      -2.973 -31.393  -8.478  0.00  0.00    +0.000 OA
ATOM      5  C   UNL     1      -5.567 -33.057  -6.648  0.00  0.00    +0.000 A 
ATOM      6  C   UNL     1      -5.880 -33.919  -7.735  0.00  0.00    +0.000 A 
ATOM      7  C   UNL     1      -5.257 -33.993  -9.109  0.00  0.00    +0.000 A 
ATOM      8  C   UNL     1      -4.425 -33.133  -9.054  0.00  0.00    +0.000 A 
ATOM      9  C   UNL     1      -3.885 -32.137  -8.149  0.00  0.00    +0.000 A 
ENDBRANCH   1   5
BRANCH   2  10
ATOM     10  C   UNL     1      -7.369 -33.040  -3.032  0.00  0.00    +0.000 A 
ATOM     11  C   UNL     1      -8.503 -32.259  -2.822  0.00  0.00    +0.000 A 
ATOM     12  C   UNL     1      -6.855 -33.818  -1.996  0.00  0.00    +0.000 A 
ATOM     13  C   UNL     1      -9.123 -32.254  -1.575  0.00  0.00    +0.000 A 
ATOM     14  C   UNL     1      -7.476 -33.813  -0.749  0.00  0.00    +0.000 A 
ATOM     15  C   UNL     1      -8.610 -33.032  -0.540  0.00  0.00    +0.000 A 
ENDBRANCH   2  10
TORSDOF 2
ENDMDL
MODEL 2
REMARK VINA RESULT:      -4.8      2.409      7.007
REMARK  Name = 6440856_Goniothalamin.pdbqt.pdb
REMARK  2 active torsions:
REMARK  status: ('A' for Active; 'I' for Inactive)
REMARK    1  A    between atoms: C_1  and  C_5
REMARK    2  A    between atoms: C_2  and  C_10
REMARK                            x       y       z     vdW  Elec       q    Type
REMARK                         _______ _______ _______ _____ _____    ______ ____
ROOT
ATOM      1  C   UNL     1      -6.376 -33.184  -4.704  0.00  0.00    +0.000 C 
ATOM      2  C   UNL     1      -5.837 -33.134  -5.776  0.00  0.00    +0.000 C 
ENDROOT
BRANCH   1   5
ATOM      3  O   UNL     1      -8.131 -32.369  -3.195  0.00  0.00    +0.000 OA
ATOM      4  O   UNL     1      -9.708 -31.751  -1.612  0.00  0.00    +0.000 OA
ATOM      5  C   UNL     1      -7.014 -33.243  -3.444  0.00  0.00    +0.000 A 
ATOM      6  C   UNL     1      -6.660 -34.100  -2.366  0.00  0.00    +0.000 A 
ATOM      7  C   UNL     1      -7.286 -34.226  -0.997  0.00  0.00    +0.000 A 
ATOM      8  C   UNL     1      -8.164 -33.414  -1.048  0.00  0.00    +0.000 A 
ATOM      9  C   UNL     1      -8.754 -32.438  -1.943  0.00  0.00    +0.000 A 
ENDBRANCH   1   5
BRANCH   2  10
ATOM     10  C   UNL     1      -5.196 -33.076  -7.049  0.00  0.00    +0.000 A 
ATOM     11  C   UNL     1      -4.065 -32.281  -7.223  0.00  0.00    +0.000 A 
ATOM     12  C   UNL     1      -5.703 -33.814  -8.116  0.00  0.00    +0.000 A 
ATOM     13  C   UNL     1      -3.441 -32.224  -8.467  0.00  0.00    +0.000 A 
ATOM     14  C   UNL     1      -5.077 -33.756  -9.360  0.00  0.00    +0.000 A 
ATOM     15  C   UNL     1      -3.946 -32.962  -9.534  0.00  0.00    +0.000 A 
ENDBRANCH   2  10
TORSDOF 2
ENDMDL
MODEL 3
REMARK VINA RESULT:      -4.6     11.630     13.661
REMARK  Name = 6440856_Goniothalamin.pdbqt.pdb
REMARK  2 active torsions:
REMARK  status: ('A' for Active; 'I' for Inactive)
REMARK    1  A    between atoms: C_1  and  C_5
REMARK    2  A    between atoms: C_2  and  C_10
REMARK                            x       y       z     vdW  Elec       q    Type
REMARK                         _______ _______ _______ _____ _____    ______ ____
ROOT
ATOM      1  C   UNL     1       4.419 -28.826  -1.667  0.00  0.00    +0.000 C 
ATOM      2  C   UNL     1       4.746 -27.960  -2.432  0.00  0.00    +0.000 C 
ENDROOT
BRANCH   1   5
ATOM      3  O   UNL     1       4.452 -31.196  -1.030  0.00  0.00    +0.000 OA
ATOM      4  O   UNL     1       4.353 -33.375  -0.245  0.00  0.00    +0.000 OA
ATOM      5  C   UNL     1       4.031 -29.844  -0.766  0.00  0.00    +0.000 A 
ATOM      6  C   UNL     1       3.246 -29.670   0.406  0.00  0.00    +0.000 A 
ATOM      7  C   UNL     1       2.790 -30.697   1.416  0.00  0.00    +0.000 A 
ATOM      8  C   UNL     1       3.260 -31.707   0.975  0.00  0.00    +0.000 A 
ATOM      9  C   UNL     1       4.060 -32.195  -0.131  0.00  0.00    +0.000 A 
ENDBRANCH   1   5
BRANCH   2  10
ATOM     10  C   UNL     1       5.134 -26.932  -3.341  0.00  0.00    +0.000 A 
ATOM     11  C   UNL     1       6.187 -27.148  -4.228  0.00  0.00    +0.000 A 
ATOM     12  C   UNL     1       4.460 -25.713  -3.340  0.00  0.00    +0.000 A 
ATOM     13  C   UNL     1       6.566 -26.143  -5.115  0.00  0.00    +0.000 A 
ATOM     14  C   UNL     1       4.840 -24.709  -4.228  0.00  0.00    +0.000 A 
ATOM     15  C   UNL     1       5.892 -24.925  -5.115  0.00  0.00    +0.000 A 
ENDBRANCH   2  10
TORSDOF 2
ENDMDL
MODEL 4
REMARK VINA RESULT:      -4.6      4.441      5.466
REMARK  Name = 6440856_Goniothalamin.pdbqt.pdb
REMARK  2 active torsions:
REMARK  status: ('A' for Active; 'I' for Inactive)
REMARK    1  A    between atoms: C_1  and  C_5
REMARK    2  A    between atoms: C_2  and  C_10
REMARK                            x       y       z     vdW  Elec       q    Type
REMARK                         _______ _______ _______ _____ _____    ______ ____
ROOT
ATOM      1  C   UNL     1      -3.278 -35.126  -5.951  0.00  0.00    +0.000 C 
ATOM      2  C   UNL     1      -2.853 -35.794  -5.048  0.00  0.00    +0.000 C 
ENDROOT
BRANCH   1   5
ATOM      3  O   UNL     1      -4.933 -34.819  -7.737  0.00  0.00    +0.000 OA
ATOM      4  O   UNL     1      -6.387 -34.329  -9.475  0.00  0.00    +0.000 OA
ATOM      5  C   UNL     1      -3.781 -34.343  -7.016  0.00  0.00    +0.000 A 
ATOM      6  C   UNL     1      -3.255 -33.100  -7.461  0.00  0.00    +0.000 A 
ATOM      7  C   UNL     1      -3.729 -32.205  -8.582  0.00  0.00    +0.000 A 
ATOM      8  C   UNL     1      -4.669 -32.813  -9.007  0.00  0.00    +0.000 A 
ATOM      9  C   UNL     1      -5.420 -34.034  -8.789  0.00  0.00    +0.000 A 
ENDBRANCH   1   5
BRANCH   2  10
ATOM     10  C   UNL     1      -2.349 -36.587  -3.976  0.00  0.00    +0.000 A 
ATOM     11  C   UNL     1      -2.808 -36.376  -2.678  0.00  0.00    +0.000 A 
ATOM     12  C   UNL     1      -1.397 -37.573  -4.228  0.00  0.00    +0.000 A 
ATOM     13  C   UNL     1      -2.314 -37.150  -1.631  0.00  0.00    +0.000 A 
ATOM     14  C   UNL     1      -0.903 -38.347  -3.181  0.00  0.00    +0.000 A 
ATOM     15  C   UNL     1      -1.363 -38.136  -1.883  0.00  0.00    +0.000 A 
ENDBRANCH   2  10
TORSDOF 2
ENDMDL
MODEL 5
REMARK VINA RESULT:      -4.5     18.293     19.693
REMARK  Name = 6440856_Goniothalamin.pdbqt.pdb
REMARK  2 active torsions:
REMARK  status: ('A' for Active; 'I' for Inactive)
REMARK    1  A    between atoms: C_1  and  C_5
REMARK    2  A    between atoms: C_2  and  C_10
REMARK                            x       y       z     vdW  Elec       q    Type
REMARK                         _______ _______ _______ _____ _____    ______ ____
ROOT
ATOM      1  C   UNL     1      -2.537 -16.607 -14.286  0.00  0.00    +0.000 C 
ATOM      2  C   UNL     1      -3.524 -15.939 -14.436  0.00  0.00    +0.000 C 
ENDROOT
BRANCH   1   5
ATOM      3  O   UNL     1      -0.596 -17.216 -12.914  0.00  0.00    +0.000 OA
ATOM      4  O   UNL     1       1.293 -17.944 -11.784  0.00  0.00    +0.000 OA
ATOM      5  C   UNL     1      -1.377 -17.396 -14.110  0.00  0.00    +0.000 A 
ATOM      6  C   UNL     1      -0.888 -18.377 -15.015  0.00  0.00    +0.000 A 
ATOM      7  C   UNL     1       0.334 -19.259 -14.903  0.00  0.00    +0.000 A 
ATOM      8  C   UNL     1       0.792 -18.919 -13.849  0.00  0.00    +0.000 A 
ATOM      9  C   UNL     1       0.550 -18.003 -12.752  0.00  0.00    +0.000 A 
ENDBRANCH   1   5
BRANCH   2  10
ATOM     10  C   UNL     1      -4.696 -15.146 -14.613  0.00  0.00    +0.000 A 
ATOM     11  C   UNL     1      -5.816 -15.690 -15.238  0.00  0.00    +0.000 A 
ATOM     12  C   UNL     1      -4.719 -13.829 -14.161  0.00  0.00    +0.000 A 
ATOM     13  C   UNL     1      -6.960 -14.915 -15.412  0.00  0.00    +0.000 A 
ATOM     14  C   UNL     1      -5.864 -13.054 -14.335  0.00  0.00    +0.000 A 
ATOM     15  C   UNL     1      -6.984 -13.598 -14.960  0.00  0.00    +0.000 A 
ENDBRANCH   2  10
TORSDOF 2
ENDMDL
MODEL 6
REMARK VINA RESULT:      -4.4     17.896     19.939
REMARK  Name = 6440856_Goniothalamin.pdbqt.pdb
REMARK  2 active torsions:
REMARK  status: ('A' for Active; 'I' for Inactive)
REMARK    1  A    between atoms: C_1  and  C_5
REMARK    2  A    between atoms: C_2  and  C_10
REMARK                            x       y       z     vdW  Elec       q    Type
REMARK                         _______ _______ _______ _____ _____    ______ ____
ROOT
ATOM      1  C   UNL     1      -7.875 -17.114 -15.748  0.00  0.00    +0.000 C 
ATOM      2  C   UNL     1      -6.846 -17.730 -15.807  0.00  0.00    +0.000 C 
ENDROOT
BRANCH   1   5
ATOM      3  O   UNL     1      -9.150 -15.226 -14.838  0.00  0.00    +0.000 OA
ATOM      4  O   UNL     1     -10.536 -13.517 -14.105  0.00  0.00    +0.000 OA
ATOM      5  C   UNL     1      -9.087 -16.390 -15.683  0.00  0.00    +0.000 A 
ATOM      6  C   UNL     1     -10.285 -16.698 -16.385  0.00  0.00    +0.000 A 
ATOM      7  C   UNL     1     -11.614 -15.980 -16.372  0.00  0.00    +0.000 A 
ATOM      8  C   UNL     1     -11.404 -15.078 -15.614  0.00  0.00    +0.000 A 
ATOM      9  C   UNL     1     -10.356 -14.518 -14.782  0.00  0.00    +0.000 A 
ENDBRANCH   1   5
BRANCH   2  10
ATOM     10  C   UNL     1      -5.624 -18.462 -15.876  0.00  0.00    +0.000 A 
ATOM     11  C   UNL     1      -5.616 -19.757 -16.389  0.00  0.00    +0.000 A 
ATOM     12  C   UNL     1      -4.439 -17.880 -15.431  0.00  0.00    +0.000 A 
ATOM     13  C   UNL     1      -4.422 -20.472 -16.456  0.00  0.00    +0.000 A 
ATOM     14  C   UNL     1      -3.245 -18.595 -15.498  0.00  0.00    +0.000 A 
ATOM     15  C   UNL     1      -3.238 -19.890 -16.011  0.00  0.00    +0.000 A 
ENDBRANCH   2  10
TORSDOF 2
ENDMDL
MODEL 7
REMARK VINA RESULT:      -4.4     11.386     13.244
REMARK  Name = 6440856_Goniothalamin.pdbqt.pdb
REMARK  2 active torsions:
REMARK  status: ('A' for Active; 'I' for Inactive)
REMARK    1  A    between atoms: C_1  and  C_5
REMARK    2  A    between atoms: C_2  and  C_10
REMARK                            x       y       z     vdW  Elec       q    Type
REMARK                         _______ _______ _______ _____ _____    ______ ____
ROOT
ATOM      1  C   UNL     1       3.795 -31.327   0.168  0.00  0.00    +0.000 C 
ATOM      2  C   UNL     1       4.051 -30.501  -0.665  0.00  0.00    +0.000 C 
ENDROOT
BRANCH   1   5
ATOM      3  O   UNL     1       4.183 -32.248   2.409  0.00  0.00    +0.000 OA
ATOM      4  O   UNL     1       4.392 -33.280   4.475  0.00  0.00    +0.000 OA
ATOM      5  C   UNL     1       3.494 -32.303   1.146  0.00  0.00    +0.000 A 
ATOM      6  C   UNL     1       2.555 -33.362   1.011  0.00  0.00    +0.000 A 
ATOM      7  C   UNL     1       2.176 -34.438   2.001  0.00  0.00    +0.000 A 
ATOM      8  C   UNL     1       2.873 -34.174   2.938  0.00  0.00    +0.000 A 
ATOM      9  C   UNL     1       3.876 -33.220   3.369  0.00  0.00    +0.000 A 
ENDBRANCH   1   5
BRANCH   2  10
ATOM     10  C   UNL     1       4.356 -29.521  -1.654  0.00  0.00    +0.000 A 
ATOM     11  C   UNL     1       4.375 -28.170  -1.313  0.00  0.00    +0.000 A 
ATOM     12  C   UNL     1       4.634 -29.914  -2.962  0.00  0.00    +0.000 A 
ATOM     13  C   UNL     1       4.672 -27.212  -2.280  0.00  0.00    +0.000 A 
ATOM     14  C   UNL     1       4.932 -28.956  -3.928  0.00  0.00    +0.000 A 
ATOM     15  C   UNL     1       4.951 -27.606  -3.586  0.00  0.00    +0.000 A 
ENDBRANCH   2  10
TORSDOF 2
ENDMDL
MODEL 8
REMARK VINA RESULT:      -4.3     21.515     23.047
REMARK  Name = 6440856_Goniothalamin.pdbqt.pdb
REMARK  2 active torsions:
REMARK  status: ('A' for Active; 'I' for Inactive)
REMARK    1  A    between atoms: C_1  and  C_5
REMARK    2  A    between atoms: C_2  and  C_10
REMARK                            x       y       z     vdW  Elec       q    Type
REMARK                         _______ _______ _______ _____ _____    ______ ____
ROOT
ATOM      1  C   UNL     1      -5.582 -11.327 -12.116  0.00  0.00    +0.000 C 
ATOM      2  C   UNL     1      -5.385 -10.552 -11.221  0.00  0.00    +0.000 C 
ENDROOT
BRANCH   1   5
ATOM      3  O   UNL     1      -4.783 -13.195 -13.492  0.00  0.00    +0.000 OA
ATOM      4  O   UNL     1      -4.232 -14.949 -14.905  0.00  0.00    +0.000 OA
ATOM      5  C   UNL     1      -5.814 -12.244 -13.167  0.00  0.00    +0.000 A 
ATOM      6  C   UNL     1      -6.992 -12.329 -13.959  0.00  0.00    +0.000 A 
ATOM      7  C   UNL     1      -7.319 -13.273 -15.092  0.00  0.00    +0.000 A 
ATOM      8  C   UNL     1      -6.325 -13.938 -15.158  0.00  0.00    +0.000 A 
ATOM      9  C   UNL     1      -5.025 -14.097 -14.535  0.00  0.00    +0.000 A 
ENDBRANCH   1   5
BRANCH   2  10
ATOM     10  C   UNL     1      -5.152  -9.630 -10.158  0.00  0.00    +0.000 A 
ATOM     11  C   UNL     1      -4.562 -10.068  -8.974  0.00  0.00    +0.000 A 
ATOM     12  C   UNL     1      -5.514  -8.293 -10.305  0.00  0.00    +0.000 A 
ATOM     13  C   UNL     1      -4.336  -9.167  -7.936  0.00  0.00    +0.000 A 
ATOM     14  C   UNL     1      -5.287  -7.392  -9.267  0.00  0.00    +0.000 A 
ATOM     15  C   UNL     1      -4.697  -7.830  -8.083  0.00  0.00    +0.000 A 
ENDBRANCH   2  10
TORSDOF 2
ENDMDL
MODEL 9
REMARK VINA RESULT:      -4.2     18.382     19.483
REMARK  Name = 6440856_Goniothalamin.pdbqt.pdb
REMARK  2 active torsions:
REMARK  status: ('A' for Active; 'I' for Inactive)
REMARK    1  A    between atoms: C_1  and  C_5
REMARK    2  A    between atoms: C_2  and  C_10
REMARK                            x       y       z     vdW  Elec       q    Type
REMARK                         _______ _______ _______ _____ _____    ______ ____
ROOT
ATOM      1  C   UNL     1      -2.280 -17.113 -14.157  0.00  0.00    +0.000 C 
ATOM      2  C   UNL     1      -1.177 -17.125 -13.682  0.00  0.00    +0.000 C 
ENDROOT
BRANCH   1   5
ATOM      3  O   UNL     1      -4.319 -15.860 -14.699  0.00  0.00    +0.000 OA
ATOM      4  O   UNL     1      -6.330 -14.875 -15.300  0.00  0.00    +0.000 OA
ATOM      5  C   UNL     1      -3.579 -17.096 -14.715  0.00  0.00    +0.000 A 
ATOM      6  C   UNL     1      -4.250 -18.200 -15.308  0.00  0.00    +0.000 A 
ATOM      7  C   UNL     1      -5.628 -18.265 -15.923  0.00  0.00    +0.000 A 
ATOM      8  C   UNL     1      -6.018 -17.141 -15.784  0.00  0.00    +0.000 A 
ATOM      9  C   UNL     1      -5.604 -15.856 -15.254  0.00  0.00    +0.000 A 
ENDBRANCH   1   5
BRANCH   2  10
ATOM     10  C   UNL     1       0.133 -17.139 -13.119  0.00  0.00    +0.000 A 
ATOM     11  C   UNL     1       0.551 -18.227 -12.357  0.00  0.00    +0.000 A 
ATOM     12  C   UNL     1       0.993 -16.063 -13.331  0.00  0.00    +0.000 A 
ATOM     13  C   UNL     1       1.831 -18.240 -11.806  0.00  0.00    +0.000 A 
ATOM     14  C   UNL     1       2.272 -16.076 -12.781  0.00  0.00    +0.000 A 
ATOM     15  C   UNL     1       2.691 -17.165 -12.019  0.00  0.00    +0.000 A 
ENDBRANCH   2  10
TORSDOF 2
ENDMDL
