MODEL 1
REMARK VINA RESULT:      -3.4      0.000      0.000
REMARK  Name = 649_Dihydrouracil.pdb
REMARK  0 active torsions:
REMARK  status: ('A' for Active; 'I' for Inactive)
REMARK                            x       y       z     vdW  Elec       q    Type
REMARK                         _______ _______ _______ _____ _____    ______ ____
ROOT
ATOM      1  O   UNL     1      -6.600 -34.318  -8.778  0.00  0.00    +0.000 OA
ATOM      2  O   UNL     1      -3.139 -31.295  -8.362  0.00  0.00    +0.000 OA
ATOM      3  N   UNL     1      -3.861 -32.352  -6.460  0.00  0.00    +0.000 N 
ATOM      4  N   UNL     1      -4.861 -32.804  -8.547  0.00  0.00    +0.000 N 
ATOM      5  C   UNL     1      -4.687 -33.222  -5.863  0.00  0.00    +0.000 A 
ATOM      6  C   UNL     1      -5.706 -33.968  -6.661  0.00  0.00    +0.000 A 
ATOM      7  C   UNL     1      -5.786 -33.737  -8.076  0.00  0.00    +0.000 A 
ATOM      8  C   UNL     1      -3.898 -32.092  -7.824  0.00  0.00    +0.000 A 
ATOM      9  H   UNL     1      -3.174 -31.852  -5.910  0.00  0.00    +0.000 HD
ATOM     10  H   UNL     1      -4.891 -32.619  -9.537  0.00  0.00    +0.000 HD
ENDROOT
TORSDOF 0
ENDMDL
MODEL 2
REMARK VINA RESULT:      -3.1     11.744     12.738
REMARK  Name = 649_Dihydrouracil.pdb
REMARK  0 active torsions:
REMARK  status: ('A' for Active; 'I' for Inactive)
REMARK                            x       y       z     vdW  Elec       q    Type
REMARK                         _______ _______ _______ _____ _____    ______ ____
ROOT
ATOM      1  O   UNL     1       3.907 -32.366  -0.581  0.00  0.00    +0.000 OA
ATOM      2  O   UNL     1       1.925 -35.113   2.553  0.00  0.00    +0.000 OA
ATOM      3  N   UNL     1       3.420 -33.546   3.306  0.00  0.00    +0.000 N 
ATOM      4  N   UNL     1       2.923 -33.735   1.008  0.00  0.00    +0.000 N 
ATOM      5  C   UNL     1       4.271 -32.543   3.051  0.00  0.00    +0.000 A 
ATOM      6  C   UNL     1       4.487 -32.071   1.650  0.00  0.00    +0.000 A 
ATOM      7  C   UNL     1       3.768 -32.710   0.583  0.00  0.00    +0.000 A 
ATOM      8  C   UNL     1       2.701 -34.196   2.311  0.00  0.00    +0.000 A 
ATOM      9  H   UNL     1       3.280 -33.857   4.259  0.00  0.00    +0.000 HD
ATOM     10  H   UNL     1       2.404 -34.204   0.283  0.00  0.00    +0.000 HD
ENDROOT
TORSDOF 0
ENDMDL
MODEL 3
REMARK VINA RESULT:      -3.1      1.720      2.265
REMARK  Name = 649_Dihydrouracil.pdb
REMARK  0 active torsions:
REMARK  status: ('A' for Active; 'I' for Inactive)
REMARK                            x       y       z     vdW  Elec       q    Type
REMARK                         _______ _______ _______ _____ _____    ______ ____
ROOT
ATOM      1  O   UNL     1      -6.291 -34.336  -9.104  0.00  0.00    +0.000 OA
ATOM      2  O   UNL     1      -4.218 -33.407  -5.087  0.00  0.00    +0.000 OA
ATOM      3  N   UNL     1      -3.574 -32.191  -6.922  0.00  0.00    +0.000 N 
ATOM      4  N   UNL     1      -5.238 -33.854  -7.097  0.00  0.00    +0.000 N 
ATOM      5  C   UNL     1      -3.692 -31.920  -8.228  0.00  0.00    +0.000 A 
ATOM      6  C   UNL     1      -4.669 -32.671  -9.073  0.00  0.00    +0.000 A 
ATOM      7  C   UNL     1      -5.477 -33.689  -8.462  0.00  0.00    +0.000 A 
ATOM      8  C   UNL     1      -4.332 -33.165  -6.283  0.00  0.00    +0.000 A 
ATOM      9  H   UNL     1      -2.910 -31.675  -6.359  0.00  0.00    +0.000 HD
ATOM     10  H   UNL     1      -5.789 -34.561  -6.638  0.00  0.00    +0.000 HD
ENDROOT
TORSDOF 0
ENDMDL
MODEL 4
REMARK VINA RESULT:      -3.1     18.169     18.369
REMARK  Name = 649_Dihydrouracil.pdb
REMARK  0 active torsions:
REMARK  status: ('A' for Active; 'I' for Inactive)
REMARK                            x       y       z     vdW  Elec       q    Type
REMARK                         _______ _______ _______ _____ _____    ______ ____
ROOT
ATOM      1  O   UNL     1     -14.778 -19.898  -3.597  0.00  0.00    +0.000 OA
ATOM      2  O   UNL     1     -12.252 -18.505   0.004  0.00  0.00    +0.000 OA
ATOM      3  N   UNL     1     -14.098 -17.261  -0.544  0.00  0.00    +0.000 N 
ATOM      4  N   UNL     1     -13.524 -19.181  -1.786  0.00  0.00    +0.000 N 
ATOM      5  C   UNL     1     -15.162 -17.056  -1.332  0.00  0.00    +0.000 A 
ATOM      6  C   UNL     1     -15.459 -17.988  -2.461  0.00  0.00    +0.000 A 
ATOM      7  C   UNL     1     -14.585 -19.105  -2.688  0.00  0.00    +0.000 A 
ATOM      8  C   UNL     1     -13.223 -18.325  -0.721  0.00  0.00    +0.000 A 
ATOM      9  H   UNL     1     -13.907 -16.623   0.219  0.00  0.00    +0.000 HD
ATOM     10  H   UNL     1     -12.891 -19.955  -1.918  0.00  0.00    +0.000 HD
ENDROOT
TORSDOF 0
ENDMDL
MODEL 5
REMARK VINA RESULT:      -3.0      2.911      4.233
REMARK  Name = 649_Dihydrouracil.pdb
REMARK  0 active torsions:
REMARK  status: ('A' for Active; 'I' for Inactive)
REMARK                            x       y       z     vdW  Elec       q    Type
REMARK                         _______ _______ _______ _____ _____    ______ ____
ROOT
ATOM      1  O   UNL     1      -2.404 -33.661  -3.842  0.00  0.00    +0.000 OA
ATOM      2  O   UNL     1      -6.840 -34.210  -4.986  0.00  0.00    +0.000 OA
ATOM      3  N   UNL     1      -5.281 -34.389  -6.658  0.00  0.00    +0.000 N 
ATOM      4  N   UNL     1      -4.625 -33.940  -4.438  0.00  0.00    +0.000 N 
ATOM      5  C   UNL     1      -4.002 -34.361  -7.053  0.00  0.00    +0.000 A 
ATOM      6  C   UNL     1      -2.910 -34.100  -6.067  0.00  0.00    +0.000 A 
ATOM      7  C   UNL     1      -3.254 -33.880  -4.691  0.00  0.00    +0.000 A 
ATOM      8  C   UNL     1      -5.667 -34.183  -5.339  0.00  0.00    +0.000 A 
ATOM      9  H   UNL     1      -6.013 -34.568  -7.334  0.00  0.00    +0.000 HD
ATOM     10  H   UNL     1      -4.901 -33.790  -3.480  0.00  0.00    +0.000 HD
ENDROOT
TORSDOF 0
ENDMDL
MODEL 6
REMARK VINA RESULT:      -2.8     15.631     16.238
REMARK  Name = 649_Dihydrouracil.pdb
REMARK  0 active torsions:
REMARK  status: ('A' for Active; 'I' for Inactive)
REMARK                            x       y       z     vdW  Elec       q    Type
REMARK                         _______ _______ _______ _____ _____    ______ ____
ROOT
ATOM      1  O   UNL     1       0.551 -19.875 -15.890  0.00  0.00    +0.000 OA
ATOM      2  O   UNL     1       0.044 -16.793 -12.493  0.00  0.00    +0.000 OA
ATOM      3  N   UNL     1       0.895 -18.850 -11.944  0.00  0.00    +0.000 N 
ATOM      4  N   UNL     1       0.305 -18.342 -14.170  0.00  0.00    +0.000 N 
ATOM      5  C   UNL     1       1.276 -20.080 -12.314  0.00  0.00    +0.000 A 
ATOM      6  C   UNL     1       1.173 -20.507 -13.742  0.00  0.00    +0.000 A 
ATOM      7  C   UNL     1       0.658 -19.579 -14.710  0.00  0.00    +0.000 A 
ATOM      8  C   UNL     1       0.391 -17.916 -12.840  0.00  0.00    +0.000 A 
ATOM      9  H   UNL     1       0.970 -18.571 -10.974  0.00  0.00    +0.000 HD
ATOM     10  H   UNL     1      -0.061 -17.667 -14.824  0.00  0.00    +0.000 HD
ENDROOT
TORSDOF 0
ENDMDL
MODEL 7
REMARK VINA RESULT:      -2.7     15.733     16.842
REMARK  Name = 649_Dihydrouracil.pdb
REMARK  0 active torsions:
REMARK  status: ('A' for Active; 'I' for Inactive)
REMARK                            x       y       z     vdW  Elec       q    Type
REMARK                         _______ _______ _______ _____ _____    ______ ____
ROOT
ATOM      1  O   UNL     1      -2.296 -30.349   9.277  0.00  0.00    +0.000 OA
ATOM      2  O   UNL     1      -4.319 -33.917   7.163  0.00  0.00    +0.000 OA
ATOM      3  N   UNL     1      -3.106 -34.353   9.060  0.00  0.00    +0.000 N 
ATOM      4  N   UNL     1      -3.303 -32.154   8.232  0.00  0.00    +0.000 N 
ATOM      5  C   UNL     1      -2.347 -33.916  10.073  0.00  0.00    +0.000 A 
ATOM      6  C   UNL     1      -2.020 -32.463  10.202  0.00  0.00    +0.000 A 
ATOM      7  C   UNL     1      -2.532 -31.546   9.222  0.00  0.00    +0.000 A 
ATOM      8  C   UNL     1      -3.625 -33.508   8.087  0.00  0.00    +0.000 A 
ATOM      9  H   UNL     1      -3.322 -35.339   8.982  0.00  0.00    +0.000 HD
ATOM     10  H   UNL     1      -3.678 -31.537   7.528  0.00  0.00    +0.000 HD
ENDROOT
TORSDOF 0
ENDMDL
MODEL 8
REMARK VINA RESULT:      -2.7     10.226     10.923
REMARK  Name = 649_Dihydrouracil.pdb
REMARK  0 active torsions:
REMARK  status: ('A' for Active; 'I' for Inactive)
REMARK                            x       y       z     vdW  Elec       q    Type
REMARK                         _______ _______ _______ _____ _____    ______ ____
ROOT
ATOM      1  O   UNL     1      -3.026 -40.545   2.077  0.00  0.00    +0.000 OA
ATOM      2  O   UNL     1      -0.613 -37.045   0.283  0.00  0.00    +0.000 OA
ATOM      3  N   UNL     1      -2.381 -36.528   1.649  0.00  0.00    +0.000 N 
ATOM      4  N   UNL     1      -1.828 -38.773   1.187  0.00  0.00    +0.000 N 
ATOM      5  C   UNL     1      -3.399 -36.927   2.423  0.00  0.00    +0.000 A 
ATOM      6  C   UNL     1      -3.680 -38.381   2.615  0.00  0.00    +0.000 A 
ATOM      7  C   UNL     1      -2.842 -39.344   1.956  0.00  0.00    +0.000 A 
ATOM      8  C   UNL     1      -1.542 -37.418   0.990  0.00  0.00    +0.000 A 
ATOM      9  H   UNL     1      -2.200 -35.540   1.526  0.00  0.00    +0.000 HD
ATOM     10  H   UNL     1      -1.222 -39.423   0.711  0.00  0.00    +0.000 HD
ENDROOT
TORSDOF 0
ENDMDL
MODEL 9
REMARK VINA RESULT:      -2.7     25.710     26.320
REMARK  Name = 649_Dihydrouracil.pdb
REMARK  0 active torsions:
REMARK  status: ('A' for Active; 'I' for Inactive)
REMARK                            x       y       z     vdW  Elec       q    Type
REMARK                         _______ _______ _______ _____ _____    ______ ____
ROOT
ATOM      1  O   UNL     1     -13.111  -9.919 -10.057  0.00  0.00    +0.000 OA
ATOM      2  O   UNL     1     -11.145  -7.669  -6.540  0.00  0.00    +0.000 OA
ATOM      3  N   UNL     1     -12.493  -6.466  -7.952  0.00  0.00    +0.000 N 
ATOM      4  N   UNL     1     -12.134  -8.771  -8.298  0.00  0.00    +0.000 N 
ATOM      5  C   UNL     1     -13.290  -6.417  -9.028  0.00  0.00    +0.000 A 
ATOM      6  C   UNL     1     -13.551  -7.649  -9.833  0.00  0.00    +0.000 A 
ATOM      7  C   UNL     1     -12.934  -8.883  -9.435  0.00  0.00    +0.000 A 
ATOM      8  C   UNL     1     -11.873  -7.634  -7.526  0.00  0.00    +0.000 A 
ATOM      9  H   UNL     1     -12.323  -5.626  -7.413  0.00  0.00    +0.000 HD
ATOM     10  H   UNL     1     -11.686  -9.620  -7.992  0.00  0.00    +0.000 HD
ENDROOT
TORSDOF 0
ENDMDL
