MODEL 1
REMARK VINA RESULT:      -8.3      0.000      0.000
REMARK  Name = 6509753_ManzamineA.pdbqt.pdb
REMARK  2 active torsions:
REMARK  status: ('A' for Active; 'I' for Inactive)
REMARK    1  A    between atoms: C_7  and  O_42
REMARK    2  A    between atoms: C_11  and  C_30
REMARK                            x       y       z     vdW  Elec       q    Type
REMARK                         _______ _______ _______ _____ _____    ______ ____
ROOT
ATOM      1  N   UNL     1      -8.796 -35.156  -4.510  0.00  0.00    +0.000 N 
ATOM      2  N   UNL     1      -4.332 -36.128  -2.518  0.00  0.00    +0.000 N 
ATOM      3  C   UNL     1      -6.299 -34.875  -4.201  0.00  0.00    +0.000 C 
ATOM      4  C   UNL     1      -7.454 -35.522  -5.032  0.00  0.00    +0.000 C 
ATOM      5  C   UNL     1      -5.175 -34.052  -4.956  0.00  0.00    +0.000 C 
ATOM      6  C   UNL     1      -7.145 -33.990  -3.405  0.00  0.00    +0.000 C 
ATOM      7  C   UNL     1      -7.293 -35.655  -6.549  0.00  0.00    +0.000 C 
ATOM      8  C   UNL     1      -5.583 -35.837  -3.291  0.00  0.00    +0.000 C 
ATOM      9  C   UNL     1      -8.529 -34.241  -3.378  0.00  0.00    +0.000 C 
ATOM     10  C   UNL     1      -3.892 -34.116  -4.303  0.00  0.00    +0.000 C 
ATOM     11  C   UNL     1      -5.234 -34.018  -6.411  0.00  0.00    +0.000 C 
ATOM     12  C   UNL     1      -6.180 -34.781  -6.861  0.00  0.00    +0.000 C 
ATOM     13  C   UNL     1      -3.516 -35.116  -3.205  0.00  0.00    +0.000 C 
ATOM     14  C   UNL     1      -9.576 -36.335  -4.124  0.00  0.00    +0.000 C 
ATOM     15  C   UNL     1      -7.088 -37.052  -6.920  0.00  0.00    +0.000 C 
ATOM     16  C   UNL     1      -9.351 -34.236  -2.212  0.00  0.00    +0.000 C 
ATOM     17  C   UNL     1      -3.859 -37.443  -2.916  0.00  0.00    +0.000 C 
ATOM     18  C   UNL     1     -10.522 -37.212  -3.282  0.00  0.00    +0.000 C 
ATOM     19  C   UNL     1      -6.722 -38.510  -7.204  0.00  0.00    +0.000 C 
ATOM     20  C   UNL     1     -10.134 -34.661  -1.405  0.00  0.00    +0.000 C 
ATOM     21  C   UNL     1     -11.225 -37.058  -1.935  0.00  0.00    +0.000 C 
ATOM     22  C   UNL     1      -3.517 -38.841  -3.440  0.00  0.00    +0.000 C 
ATOM     23  C   UNL     1     -11.051 -35.832  -1.046  0.00  0.00    +0.000 C 
ATOM     24  C   UNL     1      -6.032 -39.868  -7.106  0.00  0.00    +0.000 C 
ATOM     25  C   UNL     1      -3.578 -40.102  -4.297  0.00  0.00    +0.000 C 
ATOM     26  C   UNL     1      -4.210 -40.823  -5.476  0.00  0.00    +0.000 C 
ATOM     27  C   UNL     1      -5.242 -40.588  -6.566  0.00  0.00    +0.000 C 
ENDROOT
BRANCH  11  30
ATOM     28  N   UNL     1      -4.333 -32.056  -7.515  0.00  0.00    +0.000 NA
ATOM     29  N   UNL     1      -2.995 -35.485  -7.892  0.00  0.00    +0.000 N 
ATOM     30  C   UNL     1      -4.268 -33.389  -7.300  0.00  0.00    +0.000 A 
ATOM     31  C   UNL     1      -3.288 -34.141  -7.943  0.00  0.00    +0.000 A 
ATOM     32  C   UNL     1      -2.365 -33.554  -8.810  0.00  0.00    +0.000 A 
ATOM     33  C   UNL     1      -3.436 -31.495  -8.356  0.00  0.00    +0.000 A 
ATOM     34  C   UNL     1      -2.433 -32.171  -9.037  0.00  0.00    +0.000 A 
ATOM     35  C   UNL     1      -1.508 -34.592  -9.291  0.00  0.00    +0.000 A 
ATOM     36  C   UNL     1      -1.925 -35.783  -8.701  0.00  0.00    +0.000 A 
ATOM     37  C   UNL     1      -0.413 -34.621 -10.174  0.00  0.00    +0.000 A 
ATOM     38  C   UNL     1      -1.304 -37.012  -8.945  0.00  0.00    +0.000 A 
ATOM     39  C   UNL     1       0.221 -35.840 -10.431  0.00  0.00    +0.000 A 
ATOM     40  C   UNL     1      -0.219 -37.011  -9.825  0.00  0.00    +0.000 A 
ATOM     41  H   UNL     1      -3.491 -36.163  -7.329  0.00  0.00    +0.000 HD
ENDBRANCH  11  30
BRANCH   7  42
ATOM     42  O   UNL     1      -8.438 -35.158  -7.225  0.00  0.00    +0.000 OA
ATOM     43  H   UNL     1      -9.113 -35.854  -7.157  0.00  0.00    +0.000 HD
ENDBRANCH   7  42
TORSDOF 2
ENDMDL
MODEL 2
REMARK VINA RESULT:      -8.1      2.440      7.803
REMARK  Name = 6509753_ManzamineA.pdbqt.pdb
REMARK  2 active torsions:
REMARK  status: ('A' for Active; 'I' for Inactive)
REMARK    1  A    between atoms: C_7  and  O_42
REMARK    2  A    between atoms: C_11  and  C_30
REMARK                            x       y       z     vdW  Elec       q    Type
REMARK                         _______ _______ _______ _____ _____    ______ ____
ROOT
ATOM      1  N   UNL     1      -3.906 -34.088  -7.796  0.00  0.00    +0.000 N 
ATOM      2  N   UNL     1      -6.930 -37.899  -6.711  0.00  0.00    +0.000 N 
ATOM      3  C   UNL     1      -5.874 -35.223  -6.680  0.00  0.00    +0.000 C 
ATOM      4  C   UNL     1      -4.393 -34.739  -6.553  0.00  0.00    +0.000 C 
ATOM      5  C   UNL     1      -6.923 -34.789  -5.575  0.00  0.00    +0.000 C 
ATOM      6  C   UNL     1      -6.155 -34.562  -7.951  0.00  0.00    +0.000 C 
ATOM      7  C   UNL     1      -3.910 -34.173  -5.216  0.00  0.00    +0.000 C 
ATOM      8  C   UNL     1      -6.023 -36.712  -6.845  0.00  0.00    +0.000 C 
ATOM      9  C   UNL     1      -5.067 -34.099  -8.714  0.00  0.00    +0.000 C 
ATOM     10  C   UNL     1      -7.962 -35.766  -5.364  0.00  0.00    +0.000 C 
ATOM     11  C   UNL     1      -6.422 -34.025  -4.440  0.00  0.00    +0.000 C 
ATOM     12  C   UNL     1      -5.132 -33.912  -4.482  0.00  0.00    +0.000 C 
ATOM     13  C   UNL     1      -7.919 -37.212  -5.867  0.00  0.00    +0.000 C 
ATOM     14  C   UNL     1      -2.731 -34.766  -8.349  0.00  0.00    +0.000 C 
ATOM     15  C   UNL     1      -3.001 -35.110  -4.563  0.00  0.00    +0.000 C 
ATOM     16  C   UNL     1      -4.905 -34.274 -10.121  0.00  0.00    +0.000 C 
ATOM     17  C   UNL     1      -6.246 -38.891  -5.898  0.00  0.00    +0.000 C 
ATOM     18  C   UNL     1      -1.795 -35.368  -9.414  0.00  0.00    +0.000 C 
ATOM     19  C   UNL     1      -2.189 -36.212  -3.879  0.00  0.00    +0.000 C 
ATOM     20  C   UNL     1      -4.367 -34.606 -11.142  0.00  0.00    +0.000 C 
ATOM     21  C   UNL     1      -1.872 -35.579 -10.925  0.00  0.00    +0.000 C 
ATOM     22  C   UNL     1      -5.378 -39.819  -5.044  0.00  0.00    +0.000 C 
ATOM     23  C   UNL     1      -3.095 -35.200 -11.752  0.00  0.00    +0.000 C 
ATOM     24  C   UNL     1      -1.788 -37.581  -3.336  0.00  0.00    +0.000 C 
ATOM     25  C   UNL     1      -4.219 -40.294  -4.173  0.00  0.00    +0.000 C 
ATOM     26  C   UNL     1      -2.925 -39.943  -3.457  0.00  0.00    +0.000 C 
ATOM     27  C   UNL     1      -2.023 -38.747  -3.202  0.00  0.00    +0.000 C 
ENDROOT
BRANCH  11  30
ATOM     28  N   UNL     1      -8.038 -32.543  -3.403  0.00  0.00    +0.000 NA
ATOM     29  N   UNL     1      -6.295 -35.306  -1.665  0.00  0.00    +0.000 N 
ATOM     30  C   UNL     1      -7.192 -33.591  -3.284  0.00  0.00    +0.000 A 
ATOM     31  C   UNL     1      -7.060 -34.229  -2.053  0.00  0.00    +0.000 A 
ATOM     32  C   UNL     1      -7.779 -33.814  -0.931  0.00  0.00    +0.000 A 
ATOM     33  C   UNL     1      -8.731 -32.148  -2.313  0.00  0.00    +0.000 A 
ATOM     34  C   UNL     1      -8.655 -32.725  -1.053  0.00  0.00    +0.000 A 
ATOM     35  C   UNL     1      -7.417 -34.672   0.153  0.00  0.00    +0.000 A 
ATOM     36  C   UNL     1      -6.491 -35.591  -0.335  0.00  0.00    +0.000 A 
ATOM     37  C   UNL     1      -7.797 -34.749   1.506  0.00  0.00    +0.000 A 
ATOM     38  C   UNL     1      -5.920 -36.592   0.458  0.00  0.00    +0.000 A 
ATOM     39  C   UNL     1      -7.238 -35.741   2.315  0.00  0.00    +0.000 A 
ATOM     40  C   UNL     1      -6.317 -36.644   1.795  0.00  0.00    +0.000 A 
ATOM     41  H   UNL     1      -5.680 -35.826  -2.276  0.00  0.00    +0.000 HD
ENDBRANCH  11  30
BRANCH   7  42
ATOM     42  O   UNL     1      -3.243 -32.933  -5.403  0.00  0.00    +0.000 OA
ATOM     43  H   UNL     1      -3.930 -32.247  -5.348  0.00  0.00    +0.000 HD
ENDBRANCH   7  42
TORSDOF 2
ENDMDL
MODEL 3
REMARK VINA RESULT:      -8.0      2.572      8.223
REMARK  Name = 6509753_ManzamineA.pdbqt.pdb
REMARK  2 active torsions:
REMARK  status: ('A' for Active; 'I' for Inactive)
REMARK    1  A    between atoms: C_7  and  O_42
REMARK    2  A    between atoms: C_11  and  C_30
REMARK                            x       y       z     vdW  Elec       q    Type
REMARK                         _______ _______ _______ _____ _____    ______ ____
ROOT
ATOM      1  N   UNL     1      -4.027 -34.231  -6.284  0.00  0.00    +0.000 N 
ATOM      2  N   UNL     1      -6.894 -38.294  -5.948  0.00  0.00    +0.000 N 
ATOM      3  C   UNL     1      -5.776 -35.739  -5.245  0.00  0.00    +0.000 C 
ATOM      4  C   UNL     1      -4.284 -35.270  -5.254  0.00  0.00    +0.000 C 
ATOM      5  C   UNL     1      -6.578 -35.728  -3.879  0.00  0.00    +0.000 C 
ATOM      6  C   UNL     1      -6.277 -34.710  -6.151  0.00  0.00    +0.000 C 
ATOM      7  C   UNL     1      -3.536 -35.154  -3.923  0.00  0.00    +0.000 C 
ATOM      8  C   UNL     1      -5.996 -37.097  -5.857  0.00  0.00    +0.000 C 
ATOM      9  C   UNL     1      -5.343 -33.984  -6.914  0.00  0.00    +0.000 C 
ATOM     10  C   UNL     1      -7.585 -36.757  -3.805  0.00  0.00    +0.000 C 
ATOM     11  C   UNL     1      -5.846 -35.359  -2.676  0.00  0.00    +0.000 C 
ATOM     12  C   UNL     1      -4.585 -35.191  -2.925  0.00  0.00    +0.000 C 
ATOM     13  C   UNL     1      -7.682 -37.957  -4.752  0.00  0.00    +0.000 C 
ATOM     14  C   UNL     1      -3.001 -34.648  -7.242  0.00  0.00    +0.000 C 
ATOM     15  C   UNL     1      -2.545 -36.219  -3.801  0.00  0.00    +0.000 C 
ATOM     16  C   UNL     1      -5.461 -33.684  -8.304  0.00  0.00    +0.000 C 
ATOM     17  C   UNL     1      -6.096 -39.472  -5.652  0.00  0.00    +0.000 C 
ATOM     18  C   UNL     1      -2.306 -34.835  -8.604  0.00  0.00    +0.000 C 
ATOM     19  C   UNL     1      -1.649 -37.454  -3.684  0.00  0.00    +0.000 C 
ATOM     20  C   UNL     1      -5.139 -33.643  -9.461  0.00  0.00    +0.000 C 
ATOM     21  C   UNL     1      -2.679 -34.543 -10.056  0.00  0.00    +0.000 C 
ATOM     22  C   UNL     1      -5.107 -40.596  -5.332  0.00  0.00    +0.000 C 
ATOM     23  C   UNL     1      -4.027 -33.959 -10.463  0.00  0.00    +0.000 C 
ATOM     24  C   UNL     1      -1.191 -38.910  -3.707  0.00  0.00    +0.000 C 
ATOM     25  C   UNL     1      -3.815 -41.287  -4.903  0.00  0.00    +0.000 C 
ATOM     26  C   UNL     1      -2.398 -41.142  -4.374  0.00  0.00    +0.000 C 
ATOM     27  C   UNL     1      -1.430 -40.064  -3.919  0.00  0.00    +0.000 C 
ENDROOT
BRANCH  11  30
ATOM     28  N   UNL     1      -6.001 -36.337  -0.462  0.00  0.00    +0.000 NA
ATOM     29  N   UNL     1      -7.756 -33.260  -1.533  0.00  0.00    +0.000 N 
ATOM     30  C   UNL     1      -6.365 -35.354  -1.316  0.00  0.00    +0.000 A 
ATOM     31  C   UNL     1      -7.242 -34.361  -0.886  0.00  0.00    +0.000 A 
ATOM     32  C   UNL     1      -7.761 -34.352   0.410  0.00  0.00    +0.000 A 
ATOM     33  C   UNL     1      -6.506 -36.321   0.791  0.00  0.00    +0.000 A 
ATOM     34  C   UNL     1      -7.386 -35.373   1.297  0.00  0.00    +0.000 A 
ATOM     35  C   UNL     1      -8.614 -33.211   0.523  0.00  0.00    +0.000 A 
ATOM     36  C   UNL     1      -8.591 -32.551  -0.703  0.00  0.00    +0.000 A 
ATOM     37  C   UNL     1      -9.402 -32.681   1.562  0.00  0.00    +0.000 A 
ATOM     38  C   UNL     1      -9.315 -31.380  -0.952  0.00  0.00    +0.000 A 
ATOM     39  C   UNL     1     -10.133 -31.513   1.333  0.00  0.00    +0.000 A 
ATOM     40  C   UNL     1     -10.087 -30.878   0.097  0.00  0.00    +0.000 A 
ATOM     41  H   UNL     1      -7.542 -32.999  -2.486  0.00  0.00    +0.000 HD
ENDBRANCH  11  30
BRANCH   7  42
ATOM     42  O   UNL     1      -2.881 -33.898  -3.818  0.00  0.00    +0.000 OA
ATOM     43  H   UNL     1      -2.803 -33.559  -4.726  0.00  0.00    +0.000 HD
ENDBRANCH   7  42
TORSDOF 2
ENDMDL
MODEL 4
REMARK VINA RESULT:      -7.6      5.569      8.718
REMARK  Name = 6509753_ManzamineA.pdbqt.pdb
REMARK  2 active torsions:
REMARK  status: ('A' for Active; 'I' for Inactive)
REMARK    1  A    between atoms: C_7  and  O_42
REMARK    2  A    between atoms: C_11  and  C_30
REMARK                            x       y       z     vdW  Elec       q    Type
REMARK                         _______ _______ _______ _____ _____    ______ ____
ROOT
ATOM      1  N   UNL     1     -10.724 -36.340  -2.758  0.00  0.00    +0.000 N 
ATOM      2  N   UNL     1      -8.839 -31.856  -1.670  0.00  0.00    +0.000 N 
ATOM      3  C   UNL     1      -9.026 -34.723  -1.804  0.00  0.00    +0.000 C 
ATOM      4  C   UNL     1     -10.251 -35.654  -1.529  0.00  0.00    +0.000 C 
ATOM      5  C   UNL     1      -7.725 -34.880  -0.914  0.00  0.00    +0.000 C 
ATOM      6  C   UNL     1      -8.779 -35.175  -3.170  0.00  0.00    +0.000 C 
ATOM      7  C   UNL     1     -10.310 -36.432  -0.212  0.00  0.00    +0.000 C 
ATOM      8  C   UNL     1      -9.359 -33.255  -1.813  0.00  0.00    +0.000 C 
ATOM      9  C   UNL     1      -9.792 -35.903  -3.822  0.00  0.00    +0.000 C 
ATOM     10  C   UNL     1      -7.005 -33.644  -0.738  0.00  0.00    +0.000 C 
ATOM     11  C   UNL     1      -7.776 -35.837   0.183  0.00  0.00    +0.000 C 
ATOM     12  C   UNL     1      -8.961 -36.346   0.308  0.00  0.00    +0.000 C 
ATOM     13  C   UNL     1      -7.563 -32.253  -1.058  0.00  0.00    +0.000 C 
ATOM     14  C   UNL     1     -12.124 -36.029  -3.059  0.00  0.00    +0.000 C 
ATOM     15  C   UNL     1     -11.334 -35.874   0.666  0.00  0.00    +0.000 C 
ATOM     16  C   UNL     1     -10.233 -35.693  -5.162  0.00  0.00    +0.000 C 
ATOM     17  C   UNL     1      -9.641 -31.185  -0.661  0.00  0.00    +0.000 C 
ATOM     18  C   UNL     1     -13.362 -35.680  -3.905  0.00  0.00    +0.000 C 
ATOM     19  C   UNL     1     -12.311 -35.131   1.580  0.00  0.00    +0.000 C 
ATOM     20  C   UNL     1     -11.011 -35.479  -6.053  0.00  0.00    +0.000 C 
ATOM     21  C   UNL     1     -13.608 -35.354  -5.378  0.00  0.00    +0.000 C 
ATOM     22  C   UNL     1     -10.590 -30.635   0.409  0.00  0.00    +0.000 C 
ATOM     23  C   UNL     1     -12.485 -35.274  -6.406  0.00  0.00    +0.000 C 
ATOM     24  C   UNL     1     -13.004 -33.996   2.329  0.00  0.00    +0.000 C 
ATOM     25  C   UNL     1     -11.673 -30.608   1.482  0.00  0.00    +0.000 C 
ATOM     26  C   UNL     1     -12.663 -31.394   2.326  0.00  0.00    +0.000 C 
ATOM     27  C   UNL     1     -13.109 -32.827   2.564  0.00  0.00    +0.000 C 
ENDROOT
BRANCH  11  30
ATOM     28  N   UNL     1      -6.985 -35.893   2.475  0.00  0.00    +0.000 NA
ATOM     29  N   UNL     1      -4.943 -36.785  -0.479  0.00  0.00    +0.000 N 
ATOM     30  C   UNL     1      -6.727 -36.086   1.162  0.00  0.00    +0.000 A 
ATOM     31  C   UNL     1      -5.460 -36.506   0.766  0.00  0.00    +0.000 A 
ATOM     32  C   UNL     1      -4.440 -36.733   1.691  0.00  0.00    +0.000 A 
ATOM     33  C   UNL     1      -5.993 -36.115   3.365  0.00  0.00    +0.000 A 
ATOM     34  C   UNL     1      -4.706 -36.530   3.055  0.00  0.00    +0.000 A 
ATOM     35  C   UNL     1      -3.284 -37.151   0.963  0.00  0.00    +0.000 A 
ATOM     36  C   UNL     1      -3.629 -37.175  -0.387  0.00  0.00    +0.000 A 
ATOM     37  C   UNL     1      -1.976 -37.515   1.334  0.00  0.00    +0.000 A 
ATOM     38  C   UNL     1      -2.733 -37.545  -1.394  0.00  0.00    +0.000 A 
ATOM     39  C   UNL     1      -1.066 -37.888   0.341  0.00  0.00    +0.000 A 
ATOM     40  C   UNL     1      -1.443 -37.902  -0.997  0.00  0.00    +0.000 A 
ATOM     41  H   UNL     1      -5.461 -36.724  -1.345  0.00  0.00    +0.000 HD
ENDBRANCH  11  30
BRANCH   7  42
ATOM     42  O   UNL     1     -10.598 -37.803  -0.446  0.00  0.00    +0.000 OA
ATOM     43  H   UNL     1     -10.678 -38.215   0.431  0.00  0.00    +0.000 HD
ENDBRANCH   7  42
TORSDOF 2
ENDMDL
MODEL 5
REMARK VINA RESULT:      -7.6      1.932      2.403
REMARK  Name = 6509753_ManzamineA.pdbqt.pdb
REMARK  2 active torsions:
REMARK  status: ('A' for Active; 'I' for Inactive)
REMARK    1  A    between atoms: C_7  and  O_42
REMARK    2  A    between atoms: C_11  and  C_30
REMARK                            x       y       z     vdW  Elec       q    Type
REMARK                         _______ _______ _______ _____ _____    ______ ____
ROOT
ATOM      1  N   UNL     1      -8.547 -34.121  -3.784  0.00  0.00    +0.000 N 
ATOM      2  N   UNL     1      -3.575 -34.007  -3.439  0.00  0.00    +0.000 N 
ATOM      3  C   UNL     1      -6.181 -33.873  -4.651  0.00  0.00    +0.000 C 
ATOM      4  C   UNL     1      -7.417 -34.810  -4.458  0.00  0.00    +0.000 C 
ATOM      5  C   UNL     1      -5.538 -33.733  -6.092  0.00  0.00    +0.000 C 
ATOM      6  C   UNL     1      -6.850 -32.636  -4.258  0.00  0.00    +0.000 C 
ATOM      7  C   UNL     1      -7.754 -35.827  -5.552  0.00  0.00    +0.000 C 
ATOM      8  C   UNL     1      -5.044 -34.151  -3.704  0.00  0.00    +0.000 C 
ATOM      9  C   UNL     1      -8.078 -32.732  -3.578  0.00  0.00    +0.000 C 
ATOM     10  C   UNL     1      -4.119 -33.480  -6.058  0.00  0.00    +0.000 C 
ATOM     11  C   UNL     1      -6.088 -34.565  -7.154  0.00  0.00    +0.000 C 
ATOM     12  C   UNL     1      -6.982 -35.383  -6.695  0.00  0.00    +0.000 C 
ATOM     13  C   UNL     1      -3.228 -33.655  -4.825  0.00  0.00    +0.000 C 
ATOM     14  C   UNL     1      -8.933 -34.787  -2.538  0.00  0.00    +0.000 C 
ATOM     15  C   UNL     1      -7.446 -37.181  -5.102  0.00  0.00    +0.000 C 
ATOM     16  C   UNL     1      -8.447 -31.983  -2.421  0.00  0.00    +0.000 C 
ATOM     17  C   UNL     1      -3.043 -35.329  -3.156  0.00  0.00    +0.000 C 
ATOM     18  C   UNL     1      -9.372 -34.930  -1.068  0.00  0.00    +0.000 C 
ATOM     19  C   UNL     1      -6.949 -38.544  -4.614  0.00  0.00    +0.000 C 
ATOM     20  C   UNL     1      -8.826 -31.794  -1.296  0.00  0.00    +0.000 C 
ATOM     21  C   UNL     1      -9.596 -33.962   0.092  0.00  0.00    +0.000 C 
ATOM     22  C   UNL     1      -2.659 -36.783  -2.870  0.00  0.00    +0.000 C 
ATOM     23  C   UNL     1      -9.350 -32.462  -0.023  0.00  0.00    +0.000 C 
ATOM     24  C   UNL     1      -6.041 -39.620  -4.025  0.00  0.00    +0.000 C 
ATOM     25  C   UNL     1      -2.784 -38.299  -2.754  0.00  0.00    +0.000 C 
ATOM     26  C   UNL     1      -3.640 -39.536  -2.969  0.00  0.00    +0.000 C 
ATOM     27  C   UNL     1      -5.002 -39.928  -3.515  0.00  0.00    +0.000 C 
ENDROOT
BRANCH  11  30
ATOM     28  N   UNL     1      -6.288 -34.030  -9.511  0.00  0.00    +0.000 NA
ATOM     29  N   UNL     1      -3.576 -36.071  -8.037  0.00  0.00    +0.000 N 
ATOM     30  C   UNL     1      -5.603 -34.650  -8.524  0.00  0.00    +0.000 A 
ATOM     31  C   UNL     1      -4.452 -35.371  -8.835  0.00  0.00    +0.000 A 
ATOM     32  C   UNL     1      -3.984 -35.474 -10.145  0.00  0.00    +0.000 A 
ATOM     33  C   UNL     1      -5.828 -34.134 -10.777  0.00  0.00    +0.000 A 
ATOM     34  C   UNL     1      -4.696 -34.834 -11.172  0.00  0.00    +0.000 A 
ATOM     35  C   UNL     1      -2.798 -36.270 -10.116  0.00  0.00    +0.000 A 
ATOM     36  C   UNL     1      -2.569 -36.627  -8.789  0.00  0.00    +0.000 A 
ATOM     37  C   UNL     1      -1.897 -36.716 -11.101  0.00  0.00    +0.000 A 
ATOM     38  C   UNL     1      -1.482 -37.410  -8.388  0.00  0.00    +0.000 A 
ATOM     39  C   UNL     1      -0.805 -37.499 -10.720  0.00  0.00    +0.000 A 
ATOM     40  C   UNL     1      -0.605 -37.837  -9.387  0.00  0.00    +0.000 A 
ATOM     41  H   UNL     1      -3.654 -36.159  -7.033  0.00  0.00    +0.000 HD
ENDBRANCH  11  30
BRANCH   7  42
ATOM     42  O   UNL     1      -9.128 -35.756  -5.903  0.00  0.00    +0.000 OA
ATOM     43  H   UNL     1      -9.622 -36.024  -5.110  0.00  0.00    +0.000 HD
ENDBRANCH   7  42
TORSDOF 2
ENDMDL
MODEL 6
REMARK VINA RESULT:      -7.6     19.599     23.337
REMARK  Name = 6509753_ManzamineA.pdbqt.pdb
REMARK  2 active torsions:
REMARK  status: ('A' for Active; 'I' for Inactive)
REMARK    1  A    between atoms: C_7  and  O_42
REMARK    2  A    between atoms: C_11  and  C_30
REMARK                            x       y       z     vdW  Elec       q    Type
REMARK                         _______ _______ _______ _____ _____    ______ ____
ROOT
ATOM      1  N   UNL     1      -1.035 -16.524 -14.434  0.00  0.00    +0.000 N 
ATOM      2  N   UNL     1      -2.693 -15.237 -18.955  0.00  0.00    +0.000 N 
ATOM      3  C   UNL     1      -2.489 -15.273 -16.086  0.00  0.00    +0.000 C 
ATOM      4  C   UNL     1      -2.356 -16.489 -15.113  0.00  0.00    +0.000 C 
ATOM      5  C   UNL     1      -3.745 -14.315 -15.954  0.00  0.00    +0.000 C 
ATOM      6  C   UNL     1      -1.269 -14.590 -15.665  0.00  0.00    +0.000 C 
ATOM      7  C   UNL     1      -3.581 -16.935 -14.311  0.00  0.00    +0.000 C 
ATOM      8  C   UNL     1      -2.384 -15.636 -17.543  0.00  0.00    +0.000 C 
ATOM      9  C   UNL     1      -0.325 -15.319 -14.917  0.00  0.00    +0.000 C 
ATOM     10  C   UNL     1      -4.147 -13.732 -17.209  0.00  0.00    +0.000 C 
ATOM     11  C   UNL     1      -4.763 -14.678 -14.977  0.00  0.00    +0.000 C 
ATOM     12  C   UNL     1      -4.503 -15.823 -14.430  0.00  0.00    +0.000 C 
ATOM     13  C   UNL     1      -3.676 -14.207 -18.587  0.00  0.00    +0.000 C 
ATOM     14  C   UNL     1      -0.309 -17.766 -14.707  0.00  0.00    +0.000 C 
ATOM     15  C   UNL     1      -4.093 -18.203 -14.823  0.00  0.00    +0.000 C 
ATOM     16  C   UNL     1       1.085 -15.320 -15.136  0.00  0.00    +0.000 C 
ATOM     17  C   UNL     1      -3.401 -16.340 -19.583  0.00  0.00    +0.000 C 
ATOM     18  C   UNL     1       0.885 -18.684 -15.031  0.00  0.00    +0.000 C 
ATOM     19  C   UNL     1      -4.655 -19.444 -15.519  0.00  0.00    +0.000 C 
ATOM     20  C   UNL     1       2.175 -15.782 -15.341  0.00  0.00    +0.000 C 
ATOM     21  C   UNL     1       2.357 -18.462 -15.374  0.00  0.00    +0.000 C 
ATOM     22  C   UNL     1      -4.118 -17.597 -20.085  0.00  0.00    +0.000 C 
ATOM     23  C   UNL     1       2.975 -17.076 -15.506  0.00  0.00    +0.000 C 
ATOM     24  C   UNL     1      -5.152 -20.378 -16.619  0.00  0.00    +0.000 C 
ATOM     25  C   UNL     1      -4.792 -18.965 -20.060  0.00  0.00    +0.000 C 
ATOM     26  C   UNL     1      -5.274 -20.143 -19.230  0.00  0.00    +0.000 C 
ATOM     27  C   UNL     1      -5.349 -20.592 -17.781  0.00  0.00    +0.000 C 
ENDROOT
BRANCH  11  30
ATOM     28  N   UNL     1      -6.016 -12.783 -14.128  0.00  0.00    +0.000 NA
ATOM     29  N   UNL     1      -7.519 -15.732 -15.782  0.00  0.00    +0.000 N 
ATOM     30  C   UNL     1      -6.022 -13.986 -14.745  0.00  0.00    +0.000 A 
ATOM     31  C   UNL     1      -7.234 -14.550 -15.137  0.00  0.00    +0.000 A 
ATOM     32  C   UNL     1      -8.451 -13.906 -14.907  0.00  0.00    +0.000 A 
ATOM     33  C   UNL     1      -7.198 -12.166 -13.909  0.00  0.00    +0.000 A 
ATOM     34  C   UNL     1      -8.446 -12.659 -14.263  0.00  0.00    +0.000 A 
ATOM     35  C   UNL     1      -9.485 -14.744 -15.427  0.00  0.00    +0.000 A 
ATOM     36  C   UNL     1      -8.874 -15.874 -15.966  0.00  0.00    +0.000 A 
ATOM     37  C   UNL     1     -10.887 -14.638 -15.490  0.00  0.00    +0.000 A 
ATOM     38  C   UNL     1      -9.590 -16.912 -16.570  0.00  0.00    +0.000 A 
ATOM     39  C   UNL     1     -11.621 -15.666 -16.088  0.00  0.00    +0.000 A 
ATOM     40  C   UNL     1     -10.979 -16.780 -16.618  0.00  0.00    +0.000 A 
ATOM     41  H   UNL     1      -6.828 -16.403 -16.089  0.00  0.00    +0.000 HD
ENDBRANCH  11  30
BRANCH   7  42
ATOM     42  O   UNL     1      -3.259 -17.086 -12.936  0.00  0.00    +0.000 OA
ATOM     43  H   UNL     1      -2.825 -17.952 -12.855  0.00  0.00    +0.000 HD
ENDBRANCH   7  42
TORSDOF 2
ENDMDL
MODEL 7
REMARK VINA RESULT:      -7.5      4.483      8.793
REMARK  Name = 6509753_ManzamineA.pdbqt.pdb
REMARK  2 active torsions:
REMARK  status: ('A' for Active; 'I' for Inactive)
REMARK    1  A    between atoms: C_7  and  O_42
REMARK    2  A    between atoms: C_11  and  C_30
REMARK                            x       y       z     vdW  Elec       q    Type
REMARK                         _______ _______ _______ _____ _____    ______ ____
ROOT
ATOM      1  N   UNL     1      -0.991 -39.870   0.355  0.00  0.00    +0.000 N 
ATOM      2  N   UNL     1      -5.644 -40.684  -1.236  0.00  0.00    +0.000 N 
ATOM      3  C   UNL     1      -2.999 -39.558  -1.156  0.00  0.00    +0.000 C 
ATOM      4  C   UNL     1      -2.180 -39.028   0.066  0.00  0.00    +0.000 C 
ATOM      5  C   UNL     1      -3.354 -38.561  -2.335  0.00  0.00    +0.000 C 
ATOM      6  C   UNL     1      -2.021 -40.551  -1.591  0.00  0.00    +0.000 C 
ATOM      7  C   UNL     1      -2.048 -37.516   0.271  0.00  0.00    +0.000 C 
ATOM      8  C   UNL     1      -4.283 -40.248  -0.782  0.00  0.00    +0.000 C 
ATOM      9  C   UNL     1      -0.999 -40.915  -0.694  0.00  0.00    +0.000 C 
ATOM     10  C   UNL     1      -4.600 -38.876  -2.988  0.00  0.00    +0.000 C 
ATOM     11  C   UNL     1      -2.967 -37.167  -2.172  0.00  0.00    +0.000 C 
ATOM     12  C   UNL     1      -2.465 -36.952  -0.997  0.00  0.00    +0.000 C 
ATOM     13  C   UNL     1      -5.661 -39.832  -2.434  0.00  0.00    +0.000 C 
ATOM     14  C   UNL     1      -1.022 -40.419   1.712  0.00  0.00    +0.000 C 
ATOM     15  C   UNL     1      -2.844 -37.085   1.416  0.00  0.00    +0.000 C 
ATOM     16  C   UNL     1      -0.569 -42.248  -0.423  0.00  0.00    +0.000 C 
ATOM     17  C   UNL     1      -6.616 -40.162  -0.290  0.00  0.00    +0.000 C 
ATOM     18  C   UNL     1      -0.863 -41.455   2.841  0.00  0.00    +0.000 C 
ATOM     19  C   UNL     1      -3.825 -36.698   2.525  0.00  0.00    +0.000 C 
ATOM     20  C   UNL     1      -0.308 -43.216   0.239  0.00  0.00    +0.000 C 
ATOM     21  C   UNL     1      -0.495 -42.936   2.904  0.00  0.00    +0.000 C 
ATOM     22  C   UNL     1      -7.493 -39.549   0.805  0.00  0.00    +0.000 C 
ATOM     23  C   UNL     1      -0.215 -43.773   1.661  0.00  0.00    +0.000 C 
ATOM     24  C   UNL     1      -5.109 -36.602   3.344  0.00  0.00    +0.000 C 
ATOM     25  C   UNL     1      -7.892 -38.715   2.019  0.00  0.00    +0.000 C 
ATOM     26  C   UNL     1      -7.470 -37.718   3.085  0.00  0.00    +0.000 C 
ATOM     27  C   UNL     1      -6.251 -36.919   3.514  0.00  0.00    +0.000 C 
ENDROOT
BRANCH  11  30
ATOM     28  N   UNL     1      -2.343 -35.733  -4.027  0.00  0.00    +0.000 NA
ATOM     29  N   UNL     1      -5.545 -35.520  -2.184  0.00  0.00    +0.000 N 
ATOM     30  C   UNL     1      -3.258 -36.076  -3.092  0.00  0.00    +0.000 A 
ATOM     31  C   UNL     1      -4.457 -35.373  -3.015  0.00  0.00    +0.000 A 
ATOM     32  C   UNL     1      -4.744 -34.315  -3.879  0.00  0.00    +0.000 A 
ATOM     33  C   UNL     1      -2.628 -34.708  -4.860  0.00  0.00    +0.000 A 
ATOM     34  C   UNL     1      -3.794 -33.956  -4.848  0.00  0.00    +0.000 A 
ATOM     35  C   UNL     1      -6.040 -33.820  -3.537  0.00  0.00    +0.000 A 
ATOM     36  C   UNL     1      -6.514 -34.591  -2.477  0.00  0.00    +0.000 A 
ATOM     37  C   UNL     1      -6.853 -32.786  -4.037  0.00  0.00    +0.000 A 
ATOM     38  C   UNL     1      -7.764 -34.385  -1.886  0.00  0.00    +0.000 A 
ATOM     39  C   UNL     1      -8.105 -32.564  -3.459  0.00  0.00    +0.000 A 
ATOM     40  C   UNL     1      -8.549 -33.353  -2.403  0.00  0.00    +0.000 A 
ATOM     41  H   UNL     1      -5.628 -36.222  -1.461  0.00  0.00    +0.000 HD
ENDBRANCH  11  30
BRANCH   7  42
ATOM     42  O   UNL     1      -0.693 -37.150   0.484  0.00  0.00    +0.000 OA
ATOM     43  H   UNL     1      -0.348 -37.770   1.149  0.00  0.00    +0.000 HD
ENDBRANCH   7  42
TORSDOF 2
ENDMDL
MODEL 8
REMARK VINA RESULT:      -7.3      2.936      8.104
REMARK  Name = 6509753_ManzamineA.pdbqt.pdb
REMARK  2 active torsions:
REMARK  status: ('A' for Active; 'I' for Inactive)
REMARK    1  A    between atoms: C_7  and  O_42
REMARK    2  A    between atoms: C_11  and  C_30
REMARK                            x       y       z     vdW  Elec       q    Type
REMARK                         _______ _______ _______ _____ _____    ______ ____
ROOT
ATOM      1  N   UNL     1      -3.939 -33.912  -5.717  0.00  0.00    +0.000 N 
ATOM      2  N   UNL     1      -8.280 -36.284  -6.326  0.00  0.00    +0.000 N 
ATOM      3  C   UNL     1      -6.307 -34.577  -5.116  0.00  0.00    +0.000 C 
ATOM      4  C   UNL     1      -4.778 -34.823  -4.897  0.00  0.00    +0.000 C 
ATOM      5  C   UNL     1      -7.237 -34.343  -3.854  0.00  0.00    +0.000 C 
ATOM      6  C   UNL     1      -6.166 -33.349  -5.893  0.00  0.00    +0.000 C 
ATOM      7  C   UNL     1      -4.278 -35.183  -3.496  0.00  0.00    +0.000 C 
ATOM      8  C   UNL     1      -6.984 -35.627  -5.954  0.00  0.00    +0.000 C 
ATOM      9  C   UNL     1      -4.902 -33.044  -6.431  0.00  0.00    +0.000 C 
ATOM     10  C   UNL     1      -8.584 -34.818  -4.048  0.00  0.00    +0.000 C 
ATOM     11  C   UNL     1      -6.622 -34.459  -2.539  0.00  0.00    +0.000 C 
ATOM     12  C   UNL     1      -5.389 -34.847  -2.628  0.00  0.00    +0.000 C 
ATOM     13  C   UNL     1      -9.030 -35.750  -5.179  0.00  0.00    +0.000 C 
ATOM     14  C   UNL     1      -3.049 -34.647  -6.620  0.00  0.00    +0.000 C 
ATOM     15  C   UNL     1      -3.872 -36.584  -3.443  0.00  0.00    +0.000 C 
ATOM     16  C   UNL     1      -4.654 -32.589  -7.760  0.00  0.00    +0.000 C 
ATOM     17  C   UNL     1      -8.121 -37.717  -6.141  0.00  0.00    +0.000 C 
ATOM     18  C   UNL     1      -2.291 -34.989  -7.916  0.00  0.00    +0.000 C 
ATOM     19  C   UNL     1      -3.621 -38.094  -3.433  0.00  0.00    +0.000 C 
ATOM     20  C   UNL     1      -4.163 -32.583  -8.857  0.00  0.00    +0.000 C 
ATOM     21  C   UNL     1      -2.263 -34.421  -9.334  0.00  0.00    +0.000 C 
ATOM     22  C   UNL     1      -7.774 -39.189  -5.905  0.00  0.00    +0.000 C 
ATOM     23  C   UNL     1      -3.147 -33.261  -9.778  0.00  0.00    +0.000 C 
ATOM     24  C   UNL     1      -3.833 -39.591  -3.641  0.00  0.00    +0.000 C 
ATOM     25  C   UNL     1      -6.989 -40.421  -5.462  0.00  0.00    +0.000 C 
ATOM     26  C   UNL     1      -5.753 -40.975  -4.774  0.00  0.00    +0.000 C 
ATOM     27  C   UNL     1      -4.504 -40.491  -4.057  0.00  0.00    +0.000 C 
ENDROOT
BRANCH  11  30
ATOM     28  N   UNL     1      -8.378 -33.547  -1.136  0.00  0.00    +0.000 NA
ATOM     29  N   UNL     1      -5.810 -35.955   0.002  0.00  0.00    +0.000 N 
ATOM     30  C   UNL     1      -7.302 -34.356  -1.256  0.00  0.00    +0.000 A 
ATOM     31  C   UNL     1      -6.852 -35.069  -0.147  0.00  0.00    +0.000 A 
ATOM     32  C   UNL     1      -7.484 -34.969   1.094  0.00  0.00    +0.000 A 
ATOM     33  C   UNL     1      -8.985 -33.456   0.068  0.00  0.00    +0.000 A 
ATOM     34  C   UNL     1      -8.599 -34.127   1.220  0.00  0.00    +0.000 A 
ATOM     35  C   UNL     1      -6.782 -35.820   2.003  0.00  0.00    +0.000 A 
ATOM     36  C   UNL     1      -5.744 -36.421   1.293  0.00  0.00    +0.000 A 
ATOM     37  C   UNL     1      -6.940 -36.133   3.365  0.00  0.00    +0.000 A 
ATOM     38  C   UNL     1      -4.850 -37.326   1.873  0.00  0.00    +0.000 A 
ATOM     39  C   UNL     1      -6.056 -37.035   3.963  0.00  0.00    +0.000 A 
ATOM     40  C   UNL     1      -5.031 -37.618   3.227  0.00  0.00    +0.000 A 
ATOM     41  H   UNL     1      -5.182 -36.237  -0.738  0.00  0.00    +0.000 HD
ENDBRANCH  11  30
BRANCH   7  42
ATOM     42  O   UNL     1      -3.176 -34.367  -3.126  0.00  0.00    +0.000 OA
ATOM     43  H   UNL     1      -3.556 -33.572  -2.716  0.00  0.00    +0.000 HD
ENDBRANCH   7  42
TORSDOF 2
ENDMDL
MODEL 9
REMARK VINA RESULT:      -7.2      4.770      9.540
REMARK  Name = 6509753_ManzamineA.pdbqt.pdb
REMARK  2 active torsions:
REMARK  status: ('A' for Active; 'I' for Inactive)
REMARK    1  A    between atoms: C_7  and  O_42
REMARK    2  A    between atoms: C_11  and  C_30
REMARK                            x       y       z     vdW  Elec       q    Type
REMARK                         _______ _______ _______ _____ _____    ______ ____
ROOT
ATOM      1  N   UNL     1      -2.053 -37.652  -2.347  0.00  0.00    +0.000 N 
ATOM      2  N   UNL     1      -5.860 -40.839  -1.909  0.00  0.00    +0.000 N 
ATOM      3  C   UNL     1      -4.406 -38.364  -1.740  0.00  0.00    +0.000 C 
ATOM      4  C   UNL     1      -2.946 -38.099  -1.247  0.00  0.00    +0.000 C 
ATOM      5  C   UNL     1      -5.612 -37.671  -0.981  0.00  0.00    +0.000 C 
ATOM      6  C   UNL     1      -4.235 -37.794  -3.074  0.00  0.00    +0.000 C 
ATOM      7  C   UNL     1      -2.731 -37.485   0.138  0.00  0.00    +0.000 C 
ATOM      8  C   UNL     1      -4.760 -39.822  -1.858  0.00  0.00    +0.000 C 
ATOM      9  C   UNL     1      -2.925 -37.577  -3.541  0.00  0.00    +0.000 C 
ATOM     10  C   UNL     1      -6.821 -38.454  -1.004  0.00  0.00    +0.000 C 
ATOM     11  C   UNL     1      -5.294 -36.885   0.203  0.00  0.00    +0.000 C 
ATOM     12  C   UNL     1      -4.036 -36.972   0.502  0.00  0.00    +0.000 C 
ATOM     13  C   UNL     1      -6.900 -39.932  -1.399  0.00  0.00    +0.000 C 
ATOM     14  C   UNL     1      -0.910 -38.551  -2.527  0.00  0.00    +0.000 C 
ATOM     15  C   UNL     1      -2.193 -38.480   1.060  0.00  0.00    +0.000 C 
ATOM     16  C   UNL     1      -2.442 -37.910  -4.841  0.00  0.00    +0.000 C 
ATOM     17  C   UNL     1      -5.587 -41.840  -0.890  0.00  0.00    +0.000 C 
ATOM     18  C   UNL     1       0.150 -39.388  -3.269  0.00  0.00    +0.000 C 
ATOM     19  C   UNL     1      -1.784 -39.620   1.995  0.00  0.00    +0.000 C 
ATOM     20  C   UNL     1      -1.725 -38.417  -5.662  0.00  0.00    +0.000 C 
ATOM     21  C   UNL     1       0.426 -39.730  -4.731  0.00  0.00    +0.000 C 
ATOM     22  C   UNL     1      -5.139 -42.801   0.214  0.00  0.00    +0.000 C 
ATOM     23  C   UNL     1      -0.461 -39.253  -5.875  0.00  0.00    +0.000 C 
ATOM     24  C   UNL     1      -1.776 -40.975   2.698  0.00  0.00    +0.000 C 
ATOM     25  C   UNL     1      -4.339 -43.358   1.388  0.00  0.00    +0.000 C 
ATOM     26  C   UNL     1      -3.231 -43.139   2.404  0.00  0.00    +0.000 C 
ATOM     27  C   UNL     1      -2.234 -42.074   2.827  0.00  0.00    +0.000 C 
ENDROOT
BRANCH  11  30
ATOM     28  N   UNL     1      -6.424 -36.699   2.341  0.00  0.00    +0.000 NA
ATOM     29  N   UNL     1      -6.997 -34.457  -0.546  0.00  0.00    +0.000 N 
ATOM     30  C   UNL     1      -6.248 -36.229   1.086  0.00  0.00    +0.000 A 
ATOM     31  C   UNL     1      -6.990 -35.132   0.653  0.00  0.00    +0.000 A 
ATOM     32  C   UNL     1      -7.919 -34.502   1.482  0.00  0.00    +0.000 A 
ATOM     33  C   UNL     1      -7.325 -36.084   3.138  0.00  0.00    +0.000 A 
ATOM     34  C   UNL     1      -8.106 -34.992   2.785  0.00  0.00    +0.000 A 
ATOM     35  C   UNL     1      -8.497 -33.426   0.741  0.00  0.00    +0.000 A 
ATOM     36  C   UNL     1      -7.903 -33.423  -0.519  0.00  0.00    +0.000 A 
ATOM     37  C   UNL     1      -9.471 -32.453   1.032  0.00  0.00    +0.000 A 
ATOM     38  C   UNL     1      -8.228 -32.494  -1.512  0.00  0.00    +0.000 A 
ATOM     39  C   UNL     1      -9.811 -31.517   0.053  0.00  0.00    +0.000 A 
ATOM     40  C   UNL     1      -9.198 -31.540  -1.195  0.00  0.00    +0.000 A 
ATOM     41  H   UNL     1      -6.411 -34.680  -1.338  0.00  0.00    +0.000 HD
ENDBRANCH  11  30
BRANCH   7  42
ATOM     42  O   UNL     1      -1.836 -36.384   0.071  0.00  0.00    +0.000 OA
ATOM     43  H   UNL     1      -1.707 -36.086   0.987  0.00  0.00    +0.000 HD
ENDBRANCH   7  42
TORSDOF 2
ENDMDL
