MODEL 1
REMARK VINA RESULT:      -3.8      0.000      0.000
REMARK  Name = 67499_Pyrazolo.pdbqt.pdb
REMARK  0 active torsions:
REMARK  status: ('A' for Active; 'I' for Inactive)
REMARK                            x       y       z     vdW  Elec       q    Type
REMARK                         _______ _______ _______ _____ _____    ______ ____
ROOT
ATOM      1  N   UNL     1      -3.442 -31.334  -7.815  0.00  0.00    +0.000 N 
ATOM      2  N   UNL     1      -2.598 -31.627  -8.828  0.00  0.00    +0.000 NA
ATOM      3  N   UNL     1      -4.941 -32.451  -6.275  0.00  0.00    +0.000 NA
ATOM      4  N   UNL     1      -4.968 -34.847  -6.626  0.00  0.00    +0.000 NA
ATOM      5  C   UNL     1      -3.586 -33.512  -7.997  0.00  0.00    +0.000 A 
ATOM      6  C   UNL     1      -4.058 -32.430  -7.283  0.00  0.00    +0.000 A 
ATOM      7  C   UNL     1      -2.693 -32.959  -8.932  0.00  0.00    +0.000 A 
ATOM      8  C   UNL     1      -4.072 -34.762  -7.639  0.00  0.00    +0.000 A 
ATOM      9  C   UNL     1      -5.347 -33.708  -6.010  0.00  0.00    +0.000 A 
ATOM     10  H   UNL     1      -3.556 -30.369  -7.529  0.00  0.00    +0.000 HD
ENDROOT
TORSDOF 0
ENDMDL
MODEL 2
REMARK VINA RESULT:      -3.4      2.660      3.973
REMARK  Name = 67499_Pyrazolo.pdbqt.pdb
REMARK  0 active torsions:
REMARK  status: ('A' for Active; 'I' for Inactive)
REMARK                            x       y       z     vdW  Elec       q    Type
REMARK                         _______ _______ _______ _____ _____    ______ ____
ROOT
ATOM      1  N   UNL     1      -3.788 -34.798  -3.021  0.00  0.00    +0.000 N 
ATOM      2  N   UNL     1      -2.512 -34.887  -3.455  0.00  0.00    +0.000 NA
ATOM      3  N   UNL     1      -5.927 -33.912  -3.734  0.00  0.00    +0.000 NA
ATOM      4  N   UNL     1      -5.778 -32.838  -5.899  0.00  0.00    +0.000 NA
ATOM      5  C   UNL     1      -3.831 -33.791  -4.966  0.00  0.00    +0.000 A 
ATOM      6  C   UNL     1      -4.617 -34.151  -3.891  0.00  0.00    +0.000 A 
ATOM      7  C   UNL     1      -2.548 -34.269  -4.644  0.00  0.00    +0.000 A 
ATOM      8  C   UNL     1      -4.453 -33.109  -6.001  0.00  0.00    +0.000 A 
ATOM      9  C   UNL     1      -6.431 -33.247  -4.792  0.00  0.00    +0.000 A 
ATOM     10  H   UNL     1      -4.034 -35.199  -2.124  0.00  0.00    +0.000 HD
ENDROOT
TORSDOF 0
ENDMDL
MODEL 3
REMARK VINA RESULT:      -3.2     11.969     12.174
REMARK  Name = 67499_Pyrazolo.pdbqt.pdb
REMARK  0 active torsions:
REMARK  status: ('A' for Active; 'I' for Inactive)
REMARK                            x       y       z     vdW  Elec       q    Type
REMARK                         _______ _______ _______ _____ _____    ______ ____
ROOT
ATOM      1  N   UNL     1       4.268 -31.488   2.625  0.00  0.00    +0.000 N 
ATOM      2  N   UNL     1       4.033 -30.853   1.457  0.00  0.00    +0.000 NA
ATOM      3  N   UNL     1       3.643 -33.522   3.782  0.00  0.00    +0.000 NA
ATOM      4  N   UNL     1       2.116 -34.869   2.471  0.00  0.00    +0.000 NA
ATOM      5  C   UNL     1       2.888 -32.826   1.575  0.00  0.00    +0.000 A 
ATOM      6  C   UNL     1       3.605 -32.675   2.744  0.00  0.00    +0.000 A 
ATOM      7  C   UNL     1       3.189 -31.677   0.823  0.00  0.00    +0.000 A 
ATOM      8  C   UNL     1       2.119 -33.974   1.453  0.00  0.00    +0.000 A 
ATOM      9  C   UNL     1       2.865 -34.599   3.561  0.00  0.00    +0.000 A 
ATOM     10  H   UNL     1       4.891 -31.064   3.303  0.00  0.00    +0.000 HD
ENDROOT
TORSDOF 0
ENDMDL
MODEL 4
REMARK VINA RESULT:      -3.1     15.167     16.013
REMARK  Name = 67499_Pyrazolo.pdbqt.pdb
REMARK  0 active torsions:
REMARK  status: ('A' for Active; 'I' for Inactive)
REMARK                            x       y       z     vdW  Elec       q    Type
REMARK                         _______ _______ _______ _____ _____    ______ ____
ROOT
ATOM      1  N   UNL     1      -3.837 -33.804   7.219  0.00  0.00    +0.000 N 
ATOM      2  N   UNL     1      -5.134 -33.436   7.146  0.00  0.00    +0.000 NA
ATOM      3  N   UNL     1      -1.735 -33.001   8.116  0.00  0.00    +0.000 NA
ATOM      4  N   UNL     1      -1.993 -30.873   9.244  0.00  0.00    +0.000 NA
ATOM      5  C   UNL     1      -3.893 -31.885   8.274  0.00  0.00    +0.000 A 
ATOM      6  C   UNL     1      -3.053 -32.908   7.886  0.00  0.00    +0.000 A 
ATOM      7  C   UNL     1      -5.159 -32.263   7.793  0.00  0.00    +0.000 A 
ATOM      8  C   UNL     1      -3.323 -30.836   8.980  0.00  0.00    +0.000 A 
ATOM      9  C   UNL     1      -1.285 -31.935   8.806  0.00  0.00    +0.000 A 
ATOM     10  H   UNL     1      -3.545 -34.677   6.796  0.00  0.00    +0.000 HD
ENDROOT
TORSDOF 0
ENDMDL
MODEL 5
REMARK VINA RESULT:      -3.1     10.697     11.705
REMARK  Name = 67499_Pyrazolo.pdbqt.pdb
REMARK  0 active torsions:
REMARK  status: ('A' for Active; 'I' for Inactive)
REMARK                            x       y       z     vdW  Elec       q    Type
REMARK                         _______ _______ _______ _____ _____    ______ ____
ROOT
ATOM      1  N   UNL     1      -8.578 -27.295 -14.299  0.00  0.00    +0.000 N 
ATOM      2  N   UNL     1      -7.705 -28.324 -14.244  0.00  0.00    +0.000 NA
ATOM      3  N   UNL     1      -9.158 -25.437 -15.740  0.00  0.00    +0.000 NA
ATOM      4  N   UNL     1      -7.760 -25.361 -17.716  0.00  0.00    +0.000 NA
ATOM      5  C   UNL     1      -7.406 -27.079 -16.136  0.00  0.00    +0.000 A 
ATOM      6  C   UNL     1      -8.439 -26.520 -15.414  0.00  0.00    +0.000 A 
ATOM      7  C   UNL     1      -6.993 -28.184 -15.371  0.00  0.00    +0.000 A 
ATOM      8  C   UNL     1      -7.067 -26.461 -17.332  0.00  0.00    +0.000 A 
ATOM      9  C   UNL     1      -8.750 -24.917 -16.914  0.00  0.00    +0.000 A 
ATOM     10  H   UNL     1      -9.245 -27.172 -13.547  0.00  0.00    +0.000 HD
ENDROOT
TORSDOF 0
ENDMDL
MODEL 6
REMARK VINA RESULT:      -3.0     15.690     16.632
REMARK  Name = 67499_Pyrazolo.pdbqt.pdb
REMARK  0 active torsions:
REMARK  status: ('A' for Active; 'I' for Inactive)
REMARK                            x       y       z     vdW  Elec       q    Type
REMARK                         _______ _______ _______ _____ _____    ______ ____
ROOT
ATOM      1  N   UNL     1       0.335 -20.253 -14.314  0.00  0.00    +0.000 N 
ATOM      2  N   UNL     1      -0.489 -20.182 -15.381  0.00  0.00    +0.000 NA
ATOM      3  N   UNL     1       1.175 -18.848 -12.529  0.00  0.00    +0.000 NA
ATOM      4  N   UNL     1       0.282 -16.600 -12.658  0.00  0.00    +0.000 NA
ATOM      5  C   UNL     1      -0.375 -18.182 -14.284  0.00  0.00    +0.000 A 
ATOM      6  C   UNL     1       0.437 -19.080 -13.624  0.00  0.00    +0.000 A 
ATOM      7  C   UNL     1      -0.918 -18.913 -15.355  0.00  0.00    +0.000 A 
ATOM      8  C   UNL     1      -0.442 -16.896 -13.766  0.00  0.00    +0.000 A 
ATOM      9  C   UNL     1       1.038 -17.575 -12.110  0.00  0.00    +0.000 A 
ATOM     10  H   UNL     1       0.801 -21.128 -14.106  0.00  0.00    +0.000 HD
ENDROOT
TORSDOF 0
ENDMDL
MODEL 7
REMARK VINA RESULT:      -3.0      9.665     10.568
REMARK  Name = 67499_Pyrazolo.pdbqt.pdb
REMARK  0 active torsions:
REMARK  status: ('A' for Active; 'I' for Inactive)
REMARK                            x       y       z     vdW  Elec       q    Type
REMARK                         _______ _______ _______ _____ _____    ______ ____
ROOT
ATOM      1  N   UNL     1      -9.955 -29.586 -15.908  0.00  0.00    +0.000 N 
ATOM      2  N   UNL     1      -9.546 -30.825 -15.558  0.00  0.00    +0.000 NA
ATOM      3  N   UNL     1      -9.113 -27.317 -15.997  0.00  0.00    +0.000 NA
ATOM      4  N   UNL     1      -6.822 -27.177 -15.225  0.00  0.00    +0.000 NA
ATOM      5  C   UNL     1      -7.891 -29.282 -15.242  0.00  0.00    +0.000 A 
ATOM      6  C   UNL     1      -8.999 -28.627 -15.737  0.00  0.00    +0.000 A 
ATOM      7  C   UNL     1      -8.284 -30.629 -15.153  0.00  0.00    +0.000 A 
ATOM      8  C   UNL     1      -6.767 -28.510 -14.982  0.00  0.00    +0.000 A 
ATOM      9  C   UNL     1      -7.971 -26.663 -15.710  0.00  0.00    +0.000 A 
ATOM     10  H   UNL     1     -10.897 -29.456 -16.257  0.00  0.00    +0.000 HD
ENDROOT
TORSDOF 0
ENDMDL
MODEL 8
REMARK VINA RESULT:      -2.9      2.356      4.313
REMARK  Name = 67499_Pyrazolo.pdbqt.pdb
REMARK  0 active torsions:
REMARK  status: ('A' for Active; 'I' for Inactive)
REMARK                            x       y       z     vdW  Elec       q    Type
REMARK                         _______ _______ _______ _____ _____    ______ ____
ROOT
ATOM      1  N   UNL     1      -4.874 -34.223  -3.118  0.00  0.00    +0.000 N 
ATOM      2  N   UNL     1      -6.181 -33.922  -2.955  0.00  0.00    +0.000 NA
ATOM      3  N   UNL     1      -3.181 -34.233  -4.850  0.00  0.00    +0.000 NA
ATOM      4  N   UNL     1      -4.063 -33.475  -6.974  0.00  0.00    +0.000 NA
ATOM      5  C   UNL     1      -5.507 -33.562  -5.108  0.00  0.00    +0.000 A 
ATOM      6  C   UNL     1      -4.423 -34.024  -4.390  0.00  0.00    +0.000 A 
ATOM      7  C   UNL     1      -6.558 -33.520  -4.176  0.00  0.00    +0.000 A 
ATOM      8  C   UNL     1      -5.299 -33.282  -6.451  0.00  0.00    +0.000 A 
ATOM      9  C   UNL     1      -3.089 -33.932  -6.159  0.00  0.00    +0.000 A 
ATOM     10  H   UNL     1      -4.341 -34.559  -2.324  0.00  0.00    +0.000 HD
ENDROOT
TORSDOF 0
ENDMDL
MODEL 9
REMARK VINA RESULT:      -2.8      8.663     10.006
REMARK  Name = 67499_Pyrazolo.pdbqt.pdb
REMARK  0 active torsions:
REMARK  status: ('A' for Active; 'I' for Inactive)
REMARK                            x       y       z     vdW  Elec       q    Type
REMARK                         _______ _______ _______ _____ _____    ______ ____
ROOT
ATOM      1  N   UNL     1      -3.485 -36.553   0.669  0.00  0.00    +0.000 N 
ATOM      2  N   UNL     1      -3.900 -36.811   1.928  0.00  0.00    +0.000 NA
ATOM      3  N   UNL     1      -1.861 -37.348  -0.943  0.00  0.00    +0.000 NA
ATOM      4  N   UNL     1      -0.547 -39.183  -0.065  0.00  0.00    +0.000 NA
ATOM      5  C   UNL     1      -2.209 -38.216   1.305  0.00  0.00    +0.000 A 
ATOM      6  C   UNL     1      -2.473 -37.367   0.250  0.00  0.00    +0.000 A 
ATOM      7  C   UNL     1      -3.115 -37.829   2.308  0.00  0.00    +0.000 A 
ATOM      8  C   UNL     1      -1.203 -39.154   1.122  0.00  0.00    +0.000 A 
ATOM      9  C   UNL     1      -0.905 -38.295  -1.015  0.00  0.00    +0.000 A 
ATOM     10  H   UNL     1      -3.929 -35.808   0.145  0.00  0.00    +0.000 HD
ENDROOT
TORSDOF 0
ENDMDL
