MODEL 1
REMARK VINA RESULT:      -4.3      0.000      0.000
REMARK  Name = 71369791_5FluoroDione.pdbqt.pdb
REMARK  1 active torsions:
REMARK  status: ('A' for Active; 'I' for Inactive)
REMARK    1  A    between atoms: N_4  and  C_12
REMARK                            x       y       z     vdW  Elec       q    Type
REMARK                         _______ _______ _______ _____ _____    ______ ____
ROOT
ATOM      1  F   UNL     1      -5.547 -34.606  -8.213  0.00  0.00    +0.000 F 
ATOM      2  O   UNL     1      -2.138 -33.850  -4.033  0.00  0.00    +0.000 OA
ATOM      3  O   UNL     1      -4.672 -32.037  -7.399  0.00  0.00    +0.000 OA
ATOM      4  N   UNL     1      -3.560 -35.331  -5.204  0.00  0.00    +0.000 N 
ATOM      5  N   UNL     1      -3.503 -33.016  -5.671  0.00  0.00    +0.000 N 
ATOM      6  C   UNL     1      -4.483 -35.370  -6.184  0.00  0.00    +0.000 C 
ATOM      7  C   UNL     1      -5.033 -34.370  -6.994  0.00  0.00    +0.000 C 
ATOM      8  C   UNL     1      -2.993 -34.076  -4.883  0.00  0.00    +0.000 C 
ATOM      9  C   UNL     1      -4.419 -33.034  -6.734  0.00  0.00    +0.000 C 
ATOM     10  H   UNL     1      -3.080 -32.117  -5.485  0.00  0.00    +0.000 HD
ENDROOT
BRANCH   4  12
ATOM     11  O   UNL     1      -4.048 -37.123  -3.639  0.00  0.00    +0.000 OA
ATOM     12  C   UNL     1      -3.219 -36.496  -4.577  0.00  0.00    +0.000 C 
ATOM     13  C   UNL     1      -2.041 -37.276  -4.718  0.00  0.00    +0.000 C 
ATOM     14  C   UNL     1      -1.817 -38.568  -3.929  0.00  0.00    +0.000 C 
ATOM     15  C   UNL     1      -3.192 -38.130  -3.428  0.00  0.00    +0.000 C 
ENDBRANCH   4  12
TORSDOF 1
ENDMDL
MODEL 2
REMARK VINA RESULT:      -4.2      3.829      4.302
REMARK  Name = 71369791_5FluoroDione.pdbqt.pdb
REMARK  1 active torsions:
REMARK  status: ('A' for Active; 'I' for Inactive)
REMARK    1  A    between atoms: N_4  and  C_12
REMARK                            x       y       z     vdW  Elec       q    Type
REMARK                         _______ _______ _______ _____ _____    ______ ____
ROOT
ATOM      1  F   UNL     1      -8.046 -34.539  -1.267  0.00  0.00    +0.000 F 
ATOM      2  O   UNL     1      -5.703 -32.731  -5.839  0.00  0.00    +0.000 OA
ATOM      3  O   UNL     1      -9.199 -32.514  -2.879  0.00  0.00    +0.000 OA
ATOM      4  N   UNL     1      -5.485 -33.987  -3.849  0.00  0.00    +0.000 N 
ATOM      5  N   UNL     1      -7.361 -32.613  -4.265  0.00  0.00    +0.000 N 
ATOM      6  C   UNL     1      -6.115 -34.268  -2.691  0.00  0.00    +0.000 C 
ATOM      7  C   UNL     1      -7.332 -33.829  -2.157  0.00  0.00    +0.000 C 
ATOM      8  C   UNL     1      -6.118 -33.094  -4.743  0.00  0.00    +0.000 C 
ATOM      9  C   UNL     1      -8.067 -32.930  -3.095  0.00  0.00    +0.000 C 
ATOM     10  H   UNL     1      -7.848 -32.005  -4.908  0.00  0.00    +0.000 HD
ENDROOT
BRANCH   4  12
ATOM     11  O   UNL     1      -3.063 -34.026  -3.680  0.00  0.00    +0.000 OA
ATOM     12  C   UNL     1      -4.280 -34.579  -4.099  0.00  0.00    +0.000 C 
ATOM     13  C   UNL     1      -4.003 -35.790  -4.786  0.00  0.00    +0.000 C 
ATOM     14  C   UNL     1      -2.577 -36.311  -4.981  0.00  0.00    +0.000 C 
ATOM     15  C   UNL     1      -2.334 -35.018  -4.205  0.00  0.00    +0.000 C 
ENDBRANCH   4  12
TORSDOF 1
ENDMDL
MODEL 3
REMARK VINA RESULT:      -4.1      1.718      1.882
REMARK  Name = 71369791_5FluoroDione.pdbqt.pdb
REMARK  1 active torsions:
REMARK  status: ('A' for Active; 'I' for Inactive)
REMARK    1  A    between atoms: N_4  and  C_12
REMARK                            x       y       z     vdW  Elec       q    Type
REMARK                         _______ _______ _______ _____ _____    ______ ____
ROOT
ATOM      1  F   UNL     1      -5.084 -33.393  -9.394  0.00  0.00    +0.000 F 
ATOM      2  O   UNL     1      -2.177 -34.275  -4.873  0.00  0.00    +0.000 OA
ATOM      3  O   UNL     1      -4.222 -31.295  -7.696  0.00  0.00    +0.000 OA
ATOM      4  N   UNL     1      -3.500 -35.192  -6.604  0.00  0.00    +0.000 N 
ATOM      5  N   UNL     1      -3.305 -32.861  -6.276  0.00  0.00    +0.000 N 
ATOM      6  C   UNL     1      -4.300 -34.846  -7.632  0.00  0.00    +0.000 C 
ATOM      7  C   UNL     1      -4.713 -33.600  -8.119  0.00  0.00    +0.000 C 
ATOM      8  C   UNL     1      -2.931 -34.153  -5.833  0.00  0.00    +0.000 C 
ATOM      9  C   UNL     1      -4.086 -32.469  -7.373  0.00  0.00    +0.000 C 
ATOM     10  H   UNL     1      -2.876 -32.104  -5.764  0.00  0.00    +0.000 HD
ENDROOT
BRANCH   4  12
ATOM     11  O   UNL     1      -2.289 -37.254  -7.030  0.00  0.00    +0.000 OA
ATOM     12  C   UNL     1      -3.278 -36.519  -6.364  0.00  0.00    +0.000 C 
ATOM     13  C   UNL     1      -3.944 -37.388  -5.461  0.00  0.00    +0.000 C 
ATOM     14  C   UNL     1      -3.565 -38.864  -5.318  0.00  0.00    +0.000 C 
ATOM     15  C   UNL     1      -2.579 -38.390  -6.384  0.00  0.00    +0.000 C 
ENDBRANCH   4  12
TORSDOF 1
ENDMDL
MODEL 4
REMARK VINA RESULT:      -4.0     10.475     11.967
REMARK  Name = 71369791_5FluoroDione.pdbqt.pdb
REMARK  1 active torsions:
REMARK  status: ('A' for Active; 'I' for Inactive)
REMARK    1  A    between atoms: N_4  and  C_12
REMARK                            x       y       z     vdW  Elec       q    Type
REMARK                         _______ _______ _______ _____ _____    ______ ____
ROOT
ATOM      1  F   UNL     1      -5.430 -28.172 -14.674  0.00  0.00    +0.000 F 
ATOM      2  O   UNL     1     -10.349 -30.132 -15.945  0.00  0.00    +0.000 OA
ATOM      3  O   UNL     1      -7.254 -26.770 -16.327  0.00  0.00    +0.000 OA
ATOM      4  N   UNL     1      -8.211 -30.552 -15.031  0.00  0.00    +0.000 N 
ATOM      5  N   UNL     1      -8.716 -28.544 -16.168  0.00  0.00    +0.000 N 
ATOM      6  C   UNL     1      -6.990 -30.003 -14.880  0.00  0.00    +0.000 C 
ATOM      7  C   UNL     1      -6.455 -28.778 -15.295  0.00  0.00    +0.000 C 
ATOM      8  C   UNL     1      -9.189 -29.802 -15.722  0.00  0.00    +0.000 C 
ATOM      9  C   UNL     1      -7.472 -27.923 -15.977  0.00  0.00    +0.000 C 
ATOM     10  H   UNL     1      -9.412 -27.975 -16.628  0.00  0.00    +0.000 HD
ENDROOT
BRANCH   4  12
ATOM     11  O   UNL     1      -8.875 -32.874 -15.286  0.00  0.00    +0.000 OA
ATOM     12  C   UNL     1      -8.441 -31.793 -14.508  0.00  0.00    +0.000 C 
ATOM     13  C   UNL     1      -8.307 -32.238 -13.166  0.00  0.00    +0.000 C 
ATOM     14  C   UNL     1      -8.612 -33.678 -12.749  0.00  0.00    +0.000 C 
ATOM     15  C   UNL     1      -8.904 -33.719 -14.248  0.00  0.00    +0.000 C 
ENDBRANCH   4  12
TORSDOF 1
ENDMDL
MODEL 5
REMARK VINA RESULT:      -4.0     19.989     20.998
REMARK  Name = 71369791_5FluoroDione.pdbqt.pdb
REMARK  1 active torsions:
REMARK  status: ('A' for Active; 'I' for Inactive)
REMARK    1  A    between atoms: N_4  and  C_12
REMARK                            x       y       z     vdW  Elec       q    Type
REMARK                         _______ _______ _______ _____ _____    ______ ____
ROOT
ATOM      1  F   UNL     1      -7.826 -15.068 -15.068  0.00  0.00    +0.000 F 
ATOM      2  O   UNL     1      -4.912 -19.611 -15.801  0.00  0.00    +0.000 OA
ATOM      3  O   UNL     1      -9.000 -17.533 -15.827  0.00  0.00    +0.000 OA
ATOM      4  N   UNL     1      -4.910 -17.265 -15.513  0.00  0.00    +0.000 N 
ATOM      5  N   UNL     1      -6.901 -18.480 -15.888  0.00  0.00    +0.000 N 
ATOM      6  C   UNL     1      -5.729 -16.196 -15.468  0.00  0.00    +0.000 C 
ATOM      7  C   UNL     1      -7.115 -16.071 -15.611  0.00  0.00    +0.000 C 
ATOM      8  C   UNL     1      -5.494 -18.533 -15.739  0.00  0.00    +0.000 C 
ATOM      9  C   UNL     1      -7.784 -17.395 -15.789  0.00  0.00    +0.000 C 
ATOM     10  H   UNL     1      -7.342 -19.381 -16.008  0.00  0.00    +0.000 HD
ENDROOT
BRANCH   4  12
ATOM     11  O   UNL     1      -2.649 -17.139 -16.391  0.00  0.00    +0.000 OA
ATOM     12  C   UNL     1      -3.569 -17.072 -15.337  0.00  0.00    +0.000 C 
ATOM     13  C   UNL     1      -2.855 -16.784 -14.144  0.00  0.00    +0.000 C 
ATOM     14  C   UNL     1      -1.337 -16.598 -14.125  0.00  0.00    +0.000 C 
ATOM     15  C   UNL     1      -1.599 -16.879 -15.604  0.00  0.00    +0.000 C 
ENDBRANCH   4  12
TORSDOF 1
ENDMDL
MODEL 6
REMARK VINA RESULT:      -3.9     18.699     20.189
REMARK  Name = 71369791_5FluoroDione.pdbqt.pdb
REMARK  1 active torsions:
REMARK  status: ('A' for Active; 'I' for Inactive)
REMARK    1  A    between atoms: N_4  and  C_12
REMARK                            x       y       z     vdW  Elec       q    Type
REMARK                         _______ _______ _______ _____ _____    ______ ____
ROOT
ATOM      1  F   UNL     1       3.757 -15.271 -12.017  0.00  0.00    +0.000 F 
ATOM      2  O   UNL     1       0.717 -19.778 -11.687  0.00  0.00    +0.000 OA
ATOM      3  O   UNL     1       4.264 -17.322 -10.130  0.00  0.00    +0.000 OA
ATOM      4  N   UNL     1       0.957 -17.593 -12.557  0.00  0.00    +0.000 N 
ATOM      5  N   UNL     1       2.408 -18.449 -10.901  0.00  0.00    +0.000 N 
ATOM      6  C   UNL     1       1.719 -16.486 -12.463  0.00  0.00    +0.000 C 
ATOM      7  C   UNL     1       2.829 -16.178 -11.668  0.00  0.00    +0.000 C 
ATOM      8  C   UNL     1       1.287 -18.692 -11.731  0.00  0.00    +0.000 C 
ATOM      9  C   UNL     1       3.253 -17.333 -10.823  0.00  0.00    +0.000 C 
ATOM     10  H   UNL     1       2.685 -19.238 -10.334  0.00  0.00    +0.000 HD
ENDROOT
BRANCH   4  12
ATOM     11  O   UNL     1      -1.288 -16.925 -13.198  0.00  0.00    +0.000 OA
ATOM     12  C   UNL     1      -0.085 -17.599 -13.441  0.00  0.00    +0.000 C 
ATOM     13  C   UNL     1      -0.182 -18.238 -14.706  0.00  0.00    +0.000 C 
ATOM     14  C   UNL     1      -1.437 -18.142 -15.575  0.00  0.00    +0.000 C 
ATOM     15  C   UNL     1      -1.834 -17.306 -14.360  0.00  0.00    +0.000 C 
ENDBRANCH   4  12
TORSDOF 1
ENDMDL
MODEL 7
REMARK VINA RESULT:      -3.8      2.247      2.419
REMARK  Name = 71369791_5FluoroDione.pdbqt.pdb
REMARK  1 active torsions:
REMARK  status: ('A' for Active; 'I' for Inactive)
REMARK    1  A    between atoms: N_4  and  C_12
REMARK                            x       y       z     vdW  Elec       q    Type
REMARK                         _______ _______ _______ _____ _____    ______ ____
ROOT
ATOM      1  F   UNL     1      -4.245 -32.807  -9.753  0.00  0.00    +0.000 F 
ATOM      2  O   UNL     1      -2.229 -34.670  -5.049  0.00  0.00    +0.000 OA
ATOM      3  O   UNL     1      -3.925 -31.163  -7.468  0.00  0.00    +0.000 OA
ATOM      4  N   UNL     1      -3.095 -35.179  -7.189  0.00  0.00    +0.000 N 
ATOM      5  N   UNL     1      -3.175 -32.996  -6.291  0.00  0.00    +0.000 N 
ATOM      6  C   UNL     1      -3.702 -34.620  -8.253  0.00  0.00    +0.000 C 
ATOM      7  C   UNL     1      -4.118 -33.309  -8.513  0.00  0.00    +0.000 C 
ATOM      8  C   UNL     1      -2.785 -34.342  -6.092  0.00  0.00    +0.000 C 
ATOM      9  C   UNL     1      -3.754 -32.374  -7.407  0.00  0.00    +0.000 C 
ATOM     10  H   UNL     1      -2.925 -32.373  -5.536  0.00  0.00    +0.000 HD
ENDROOT
BRANCH   4  12
ATOM     11  O   UNL     1      -3.546 -37.466  -6.505  0.00  0.00    +0.000 OA
ATOM     12  C   UNL     1      -2.810 -36.515  -7.223  0.00  0.00    +0.000 C 
ATOM     13  C   UNL     1      -1.785 -37.193  -7.935  0.00  0.00    +0.000 C 
ATOM     14  C   UNL     1      -1.604 -38.710  -7.858  0.00  0.00    +0.000 C 
ATOM     15  C   UNL     1      -2.806 -38.492  -6.941  0.00  0.00    +0.000 C 
ENDBRANCH   4  12
TORSDOF 1
ENDMDL
MODEL 8
REMARK VINA RESULT:      -3.8     19.525     20.254
REMARK  Name = 71369791_5FluoroDione.pdbqt.pdb
REMARK  1 active torsions:
REMARK  status: ('A' for Active; 'I' for Inactive)
REMARK    1  A    between atoms: N_4  and  C_12
REMARK                            x       y       z     vdW  Elec       q    Type
REMARK                         _______ _______ _______ _____ _____    ______ ____
ROOT
ATOM      1  F   UNL     1      -2.031 -19.925 -17.317  0.00  0.00    +0.000 F 
ATOM      2  O   UNL     1      -3.280 -16.261 -13.487  0.00  0.00    +0.000 OA
ATOM      3  O   UNL     1      -4.702 -19.322 -16.591  0.00  0.00    +0.000 OA
ATOM      4  N   UNL     1      -1.611 -17.581 -14.515  0.00  0.00    +0.000 N 
ATOM      5  N   UNL     1      -3.907 -17.875 -14.985  0.00  0.00    +0.000 N 
ATOM      6  C   UNL     1      -1.438 -18.580 -15.402  0.00  0.00    +0.000 C 
ATOM      7  C   UNL     1      -2.348 -19.333 -16.154  0.00  0.00    +0.000 C 
ATOM      8  C   UNL     1      -2.933 -17.156 -14.250  0.00  0.00    +0.000 C 
ATOM      9  C   UNL     1      -3.756 -18.877 -15.954  0.00  0.00    +0.000 C 
ATOM     10  H   UNL     1      -4.856 -17.558 -14.841  0.00  0.00    +0.000 HD
ENDROOT
BRANCH   4  12
ATOM     11  O   UNL     1      -0.273 -17.101 -12.546  0.00  0.00    +0.000 OA
ATOM     12  C   UNL     1      -0.508 -17.030 -13.925  0.00  0.00    +0.000 C 
ATOM     13  C   UNL     1       0.565 -16.317 -14.522  0.00  0.00    +0.000 C 
ATOM     14  C   UNL     1       1.731 -15.761 -13.703  0.00  0.00    +0.000 C 
ATOM     15  C   UNL     1       0.877 -16.421 -12.622  0.00  0.00    +0.000 C 
ENDBRANCH   4  12
TORSDOF 1
ENDMDL
MODEL 9
REMARK VINA RESULT:      -3.7      9.764     12.115
REMARK  Name = 71369791_5FluoroDione.pdbqt.pdb
REMARK  1 active torsions:
REMARK  status: ('A' for Active; 'I' for Inactive)
REMARK    1  A    between atoms: N_4  and  C_12
REMARK                            x       y       z     vdW  Elec       q    Type
REMARK                         _______ _______ _______ _____ _____    ______ ____
ROOT
ATOM      1  F   UNL     1      -9.191 -33.375 -13.060  0.00  0.00    +0.000 F 
ATOM      2  O   UNL     1      -5.280 -30.451 -15.470  0.00  0.00    +0.000 OA
ATOM      3  O   UNL     1      -6.618 -34.425 -13.612  0.00  0.00    +0.000 OA
ATOM      4  N   UNL     1      -7.566 -30.637 -14.900  0.00  0.00    +0.000 N 
ATOM      5  N   UNL     1      -6.054 -32.430 -14.618  0.00  0.00    +0.000 N 
ATOM      6  C   UNL     1      -8.472 -31.498 -14.396  0.00  0.00    +0.000 C 
ATOM      7  C   UNL     1      -8.365 -32.825 -13.965  0.00  0.00    +0.000 C 
ATOM      8  C   UNL     1      -6.235 -31.091 -15.042  0.00  0.00    +0.000 C 
ATOM      9  C   UNL     1      -6.961 -33.329 -14.038  0.00  0.00    +0.000 C 
ATOM     10  H   UNL     1      -5.100 -32.760 -14.673  0.00  0.00    +0.000 HD
ENDROOT
BRANCH   4  12
ATOM     11  O   UNL     1      -8.537 -29.078 -16.488  0.00  0.00    +0.000 OA
ATOM     12  C   UNL     1      -7.975 -29.379 -15.241  0.00  0.00    +0.000 C 
ATOM     13  C   UNL     1      -7.928 -28.184 -14.476  0.00  0.00    +0.000 C 
ATOM     14  C   UNL     1      -8.433 -26.846 -15.019  0.00  0.00    +0.000 C 
ATOM     15  C   UNL     1      -8.700 -27.782 -16.197  0.00  0.00    +0.000 C 
ENDBRANCH   4  12
TORSDOF 1
ENDMDL
