MODEL 1
REMARK VINA RESULT:      -2.6      0.000      0.000
REMARK  Name = 7288_3Pentanone.pdbqt.pdb
REMARK  2 active torsions:
REMARK  status: ('A' for Active; 'I' for Inactive)
REMARK    1  A    between atoms: C_2  and  C_3
REMARK    2  A    between atoms: C_2  and  C_5
REMARK                            x       y       z     vdW  Elec       q    Type
REMARK                         _______ _______ _______ _____ _____    ______ ____
ROOT
ATOM      1  O   UNL     1      -5.560 -32.763  -5.772  0.00  0.00    +0.000 OA
ATOM      2  C   UNL     1      -4.392 -32.949  -6.091  0.00  0.00    +0.000 C 
ENDROOT
BRANCH   2   3
ATOM      3  C   UNL     1      -3.529 -33.784  -5.290  0.00  0.00    +0.000 C 
ATOM      4  C   UNL     1      -2.598 -34.656  -4.425  0.00  0.00    +0.000 C 
ENDBRANCH   2   3
BRANCH   2   5
ATOM      5  C   UNL     1      -3.842 -32.338  -7.278  0.00  0.00    +0.000 C 
ATOM      6  C   UNL     1      -3.237 -31.703  -8.546  0.00  0.00    +0.000 C 
ENDBRANCH   2   5
TORSDOF 2
ENDMDL
MODEL 2
REMARK VINA RESULT:      -2.5     27.790     28.428
REMARK  Name = 7288_3Pentanone.pdbqt.pdb
REMARK  2 active torsions:
REMARK  status: ('A' for Active; 'I' for Inactive)
REMARK    1  A    between atoms: C_2  and  C_3
REMARK    2  A    between atoms: C_2  and  C_5
REMARK                            x       y       z     vdW  Elec       q    Type
REMARK                         _______ _______ _______ _____ _____    ______ ____
ROOT
ATOM      1  O   UNL     1     -11.342  -7.126  -5.841  0.00  0.00    +0.000 OA
ATOM      2  C   UNL     1     -11.562  -6.280  -4.983  0.00  0.00    +0.000 C 
ENDROOT
BRANCH   2   3
ATOM      3  C   UNL     1     -10.499  -5.447  -4.474  0.00  0.00    +0.000 C 
ATOM      4  C   UNL     1      -9.376  -4.537  -3.938  0.00  0.00    +0.000 C 
ENDBRANCH   2   3
BRANCH   2   5
ATOM      5  C   UNL     1     -12.892  -6.089  -4.454  0.00  0.00    +0.000 C 
ATOM      6  C   UNL     1     -14.310  -5.907  -3.877  0.00  0.00    +0.000 C 
ENDBRANCH   2   5
TORSDOF 2
ENDMDL
MODEL 3
REMARK VINA RESULT:      -2.4     27.138     28.108
REMARK  Name = 7288_3Pentanone.pdbqt.pdb
REMARK  2 active torsions:
REMARK  status: ('A' for Active; 'I' for Inactive)
REMARK    1  A    between atoms: C_2  and  C_3
REMARK    2  A    between atoms: C_2  and  C_5
REMARK                            x       y       z     vdW  Elec       q    Type
REMARK                         _______ _______ _______ _____ _____    ______ ____
ROOT
ATOM      1  O   UNL     1     -12.855  -6.127  -4.228  0.00  0.00    +0.000 OA
ATOM      2  C   UNL     1     -11.841  -6.110  -4.914  0.00  0.00    +0.000 C 
ENDROOT
BRANCH   2   3
ATOM      3  C   UNL     1     -11.797  -6.788  -6.188  0.00  0.00    +0.000 C 
ATOM      4  C   UNL     1     -11.753  -7.491  -7.560  0.00  0.00    +0.000 C 
ENDBRANCH   2   3
BRANCH   2   5
ATOM      5  C   UNL     1     -10.657  -5.413  -4.472  0.00  0.00    +0.000 C 
ATOM      6  C   UNL     1      -9.396  -4.676  -3.977  0.00  0.00    +0.000 C 
ENDBRANCH   2   5
TORSDOF 2
ENDMDL
MODEL 4
REMARK VINA RESULT:      -2.3     15.347     15.537
REMARK  Name = 7288_3Pentanone.pdbqt.pdb
REMARK  2 active torsions:
REMARK  status: ('A' for Active; 'I' for Inactive)
REMARK    1  A    between atoms: C_2  and  C_3
REMARK    2  A    between atoms: C_2  and  C_5
REMARK                            x       y       z     vdW  Elec       q    Type
REMARK                         _______ _______ _______ _____ _____    ______ ____
ROOT
ATOM      1  O   UNL     1      -2.462 -18.770   2.460  0.00  0.00    +0.000 OA
ATOM      2  C   UNL     1      -3.002 -19.288   1.490  0.00  0.00    +0.000 C 
ENDROOT
BRANCH   2   3
ATOM      3  C   UNL     1      -2.385 -20.398   0.804  0.00  0.00    +0.000 C 
ATOM      4  C   UNL     1      -1.733 -21.599   0.091  0.00  0.00    +0.000 C 
ENDBRANCH   2   3
BRANCH   2   5
ATOM      5  C   UNL     1      -4.272 -18.804   1.003  0.00  0.00    +0.000 C 
ATOM      6  C   UNL     1      -5.624 -18.266   0.493  0.00  0.00    +0.000 C 
ENDBRANCH   2   5
TORSDOF 2
ENDMDL
MODEL 5
REMARK VINA RESULT:      -2.3     27.995     28.436
REMARK  Name = 7288_3Pentanone.pdbqt.pdb
REMARK  2 active torsions:
REMARK  status: ('A' for Active; 'I' for Inactive)
REMARK    1  A    between atoms: C_2  and  C_3
REMARK    2  A    between atoms: C_2  and  C_5
REMARK                            x       y       z     vdW  Elec       q    Type
REMARK                         _______ _______ _______ _____ _____    ______ ____
ROOT
ATOM      1  O   UNL     1     -12.255  -6.906  -6.490  0.00  0.00    +0.000 OA
ATOM      2  C   UNL     1     -12.252  -6.309  -5.420  0.00  0.00    +0.000 C 
ENDROOT
BRANCH   2   3
ATOM      3  C   UNL     1     -13.472  -6.121  -4.673  0.00  0.00    +0.000 C 
ATOM      4  C   UNL     1     -14.768  -5.898  -3.869  0.00  0.00    +0.000 C 
ENDBRANCH   2   3
BRANCH   2   5
ATOM      5  C   UNL     1     -11.027  -5.773  -4.874  0.00  0.00    +0.000 C 
ATOM      6  C   UNL     1      -9.729  -5.200  -4.270  0.00  0.00    +0.000 C 
ENDBRANCH   2   5
TORSDOF 2
ENDMDL
MODEL 6
REMARK VINA RESULT:      -2.3     18.249     18.797
REMARK  Name = 7288_3Pentanone.pdbqt.pdb
REMARK  2 active torsions:
REMARK  status: ('A' for Active; 'I' for Inactive)
REMARK    1  A    between atoms: C_2  and  C_3
REMARK    2  A    between atoms: C_2  and  C_5
REMARK                            x       y       z     vdW  Elec       q    Type
REMARK                         _______ _______ _______ _____ _____    ______ ____
ROOT
ATOM      1  O   UNL     1      -0.422 -14.141  -3.459  0.00  0.00    +0.000 OA
ATOM      2  C   UNL     1      -1.363 -14.413  -4.194  0.00  0.00    +0.000 C 
ENDROOT
BRANCH   2   3
ATOM      3  C   UNL     1      -2.601 -14.924  -3.655  0.00  0.00    +0.000 C 
ATOM      4  C   UNL     1      -3.912 -15.490  -3.074  0.00  0.00    +0.000 C 
ENDBRANCH   2   3
BRANCH   2   5
ATOM      5  C   UNL     1      -1.264 -14.231  -5.623  0.00  0.00    +0.000 C 
ATOM      6  C   UNL     1      -1.176 -14.053  -7.152  0.00  0.00    +0.000 C 
ENDBRANCH   2   5
TORSDOF 2
ENDMDL
MODEL 7
REMARK VINA RESULT:      -2.2      9.501     11.636
REMARK  Name = 7288_3Pentanone.pdbqt.pdb
REMARK  2 active torsions:
REMARK  status: ('A' for Active; 'I' for Inactive)
REMARK    1  A    between atoms: C_2  and  C_3
REMARK    2  A    between atoms: C_2  and  C_5
REMARK                            x       y       z     vdW  Elec       q    Type
REMARK                         _______ _______ _______ _____ _____    ______ ____
ROOT
ATOM      1  O   UNL     1      -6.801 -28.625 -16.636  0.00  0.00    +0.000 OA
ATOM      2  C   UNL     1      -7.320 -28.076 -15.672  0.00  0.00    +0.000 C 
ENDROOT
BRANCH   2   3
ATOM      3  C   UNL     1      -8.048 -26.839 -15.827  0.00  0.00    +0.000 C 
ATOM      4  C   UNL     1      -8.835 -25.527 -16.013  0.00  0.00    +0.000 C 
ENDBRANCH   2   3
BRANCH   2   5
ATOM      5  C   UNL     1      -7.220 -28.649 -14.351  0.00  0.00    +0.000 C 
ATOM      6  C   UNL     1      -7.133 -29.274 -12.943  0.00  0.00    +0.000 C 
ENDBRANCH   2   5
TORSDOF 2
ENDMDL
MODEL 8
REMARK VINA RESULT:      -2.2     18.365     18.712
REMARK  Name = 7288_3Pentanone.pdbqt.pdb
REMARK  2 active torsions:
REMARK  status: ('A' for Active; 'I' for Inactive)
REMARK    1  A    between atoms: C_2  and  C_3
REMARK    2  A    between atoms: C_2  and  C_5
REMARK                            x       y       z     vdW  Elec       q    Type
REMARK                         _______ _______ _______ _____ _____    ______ ____
ROOT
ATOM      1  O   UNL     1      -1.082 -13.568  -5.695  0.00  0.00    +0.000 OA
ATOM      2  C   UNL     1      -1.031 -14.426  -4.821  0.00  0.00    +0.000 C 
ENDROOT
BRANCH   2   3
ATOM      3  C   UNL     1       0.227 -15.025  -4.444  0.00  0.00    +0.000 C 
ATOM      4  C   UNL     1       1.557 -15.681  -4.026  0.00  0.00    +0.000 C 
ENDBRANCH   2   3
BRANCH   2   5
ATOM      5  C   UNL     1      -2.228 -14.863  -4.142  0.00  0.00    +0.000 C 
ATOM      6  C   UNL     1      -3.492 -15.341  -3.399  0.00  0.00    +0.000 C 
ENDBRANCH   2   5
TORSDOF 2
ENDMDL
MODEL 9
REMARK VINA RESULT:      -2.2     18.445     19.119
REMARK  Name = 7288_3Pentanone.pdbqt.pdb
REMARK  2 active torsions:
REMARK  status: ('A' for Active; 'I' for Inactive)
REMARK    1  A    between atoms: C_2  and  C_3
REMARK    2  A    between atoms: C_2  and  C_5
REMARK                            x       y       z     vdW  Elec       q    Type
REMARK                         _______ _______ _______ _____ _____    ______ ____
ROOT
ATOM      1  O   UNL     1      -0.852 -13.534  -2.988  0.00  0.00    +0.000 OA
ATOM      2  C   UNL     1      -1.581 -14.154  -3.753  0.00  0.00    +0.000 C 
ENDROOT
BRANCH   2   3
ATOM      3  C   UNL     1      -1.244 -14.288  -5.151  0.00  0.00    +0.000 C 
ATOM      4  C   UNL     1      -0.909 -14.430  -6.648  0.00  0.00    +0.000 C 
ENDBRANCH   2   3
BRANCH   2   5
ATOM      5  C   UNL     1      -2.798 -14.771  -3.281  0.00  0.00    +0.000 C 
ATOM      6  C   UNL     1      -4.088 -15.431  -2.755  0.00  0.00    +0.000 C 
ENDBRANCH   2   5
TORSDOF 2
ENDMDL
