MODEL 1
REMARK VINA RESULT:      -6.4      0.000      0.000
REMARK  Name = 73299_Hederagenin.pdbqt.pdb
REMARK  5 active torsions:
REMARK  status: ('A' for Active; 'I' for Inactive)
REMARK    1  A    between atoms: C_9  and  C_35
REMARK    2  A    between atoms: C_14  and  C_32
REMARK    3  A    between atoms: C_17  and  O_29
REMARK    4  A    between atoms: C_32  and  O_33
REMARK    5  A    between atoms: C_35  and  O_36
REMARK                            x       y       z     vdW  Elec       q    Type
REMARK                         _______ _______ _______ _____ _____    ______ ____
ROOT
ATOM      1  C   UNL     1      -2.762 -36.539  -3.568  0.00  0.00    +0.000 C 
ATOM      2  C   UNL     1      -3.734 -37.164  -4.653  0.00  0.00    +0.000 C 
ATOM      3  C   UNL     1      -4.187 -36.416  -5.912  0.00  0.00    +0.000 C 
ATOM      4  C   UNL     1      -3.218 -36.923  -2.023  0.00  0.00    +0.000 C 
ATOM      5  C   UNL     1      -4.371 -34.876  -5.792  0.00  0.00    +0.000 C 
ATOM      6  C   UNL     1      -2.812 -35.089  -3.791  0.00  0.00    +0.000 C 
ATOM      7  C   UNL     1      -3.543 -34.274  -4.804  0.00  0.00    +0.000 C 
ATOM      8  C   UNL     1      -3.518 -38.510  -1.849  0.00  0.00    +0.000 C 
ATOM      9  C   UNL     1      -5.521 -34.111  -6.469  0.00  0.00    +0.000 C 
ATOM     10  C   UNL     1      -3.106 -39.324  -0.684  0.00  0.00    +0.000 C 
ATOM     11  C   UNL     1      -4.201 -38.463  -4.277  0.00  0.00    +0.000 C 
ATOM     12  C   UNL     1      -5.486 -36.921  -6.346  0.00  0.00    +0.000 C 
ATOM     13  C   UNL     1      -2.174 -36.656  -1.017  0.00  0.00    +0.000 C 
ATOM     14  C   UNL     1      -1.756 -39.002   0.208  0.00  0.00    +0.000 C 
ATOM     15  C   UNL     1      -1.311 -37.084  -3.890  0.00  0.00    +0.000 C 
ATOM     16  C   UNL     1      -1.536 -37.570   0.003  0.00  0.00    +0.000 C 
ATOM     17  C   UNL     1      -6.587 -34.928  -7.247  0.00  0.00    +0.000 C 
ATOM     18  C   UNL     1      -4.040 -39.059  -2.907  0.00  0.00    +0.000 C 
ATOM     19  C   UNL     1      -3.127 -36.670  -7.014  0.00  0.00    +0.000 C 
ATOM     20  C   UNL     1      -6.680 -36.310  -7.000  0.00  0.00    +0.000 C 
ATOM     21  C   UNL     1      -4.567 -36.196  -1.597  0.00  0.00    +0.000 C 
ATOM     22  C   UNL     1      -4.140 -40.075   0.028  0.00  0.00    +0.000 C 
ATOM     23  C   UNL     1      -2.129 -39.409   1.589  0.00  0.00    +0.000 C 
ATOM     24  C   UNL     1      -4.572 -40.607   1.376  0.00  0.00    +0.000 C 
ATOM     25  C   UNL     1      -4.913 -33.059  -7.454  0.00  0.00    +0.000 C 
ATOM     26  C   UNL     1      -3.373 -40.147   2.148  0.00  0.00    +0.000 C 
ATOM     27  C   UNL     1      -5.862 -39.917   1.857  0.00  0.00    +0.000 C 
ATOM     28  C   UNL     1      -4.696 -42.141   1.364  0.00  0.00    +0.000 C 
ENDROOT
BRANCH  17  29
ATOM     29  O   UNL     1      -7.218 -34.405  -8.363  0.00  0.00    +0.000 OA
ATOM     30  H   UNL     1      -6.720 -34.623  -9.179  0.00  0.00    +0.000 HD
ENDBRANCH  17  29
BRANCH  14  32
ATOM     31  O   UNL     1      -0.358 -41.021   0.018  0.00  0.00    +0.000 OA
ATOM     32  C   UNL     1      -0.622 -39.880  -0.337  0.00  0.00    +0.000 C 
BRANCH  32  33
ATOM     33  O   UNL     1       0.172 -39.267  -1.242  0.00  0.00    +0.000 OA
ATOM     34  H   UNL     1       1.032 -39.142  -0.785  0.00  0.00    +0.000 HD
ENDBRANCH  32  33
ENDBRANCH  14  32
BRANCH   9  35
ATOM     35  C   UNL     1      -6.284 -33.399  -5.396  0.00  0.00    +0.000 C 
BRANCH  35  36
ATOM     36  O   UNL     1      -6.953 -32.765  -4.429  0.00  0.00    +0.000 OA
ATOM     37  H   UNL     1      -6.578 -32.967  -3.552  0.00  0.00    +0.000 HD
ENDBRANCH  35  36
ENDBRANCH   9  35
TORSDOF 5
ENDMDL
MODEL 2
REMARK VINA RESULT:      -6.2      4.221      8.001
REMARK  Name = 73299_Hederagenin.pdbqt.pdb
REMARK  5 active torsions:
REMARK  status: ('A' for Active; 'I' for Inactive)
REMARK    1  A    between atoms: C_9  and  C_35
REMARK    2  A    between atoms: C_14  and  C_32
REMARK    3  A    between atoms: C_17  and  O_29
REMARK    4  A    between atoms: C_32  and  O_33
REMARK    5  A    between atoms: C_35  and  O_36
REMARK                            x       y       z     vdW  Elec       q    Type
REMARK                         _______ _______ _______ _____ _____    ______ ____
ROOT
ATOM      1  C   UNL     1      -7.481 -36.685  -3.804  0.00  0.00    +0.000 C 
ATOM      2  C   UNL     1      -8.684 -35.665  -3.643  0.00  0.00    +0.000 C 
ATOM      3  C   UNL     1     -10.080 -36.075  -3.162  0.00  0.00    +0.000 C 
ATOM      4  C   UNL     1      -6.587 -36.388  -5.167  0.00  0.00    +0.000 C 
ATOM      5  C   UNL     1     -10.577 -37.496  -3.560  0.00  0.00    +0.000 C 
ATOM      6  C   UNL     1      -8.102 -38.013  -3.857  0.00  0.00    +0.000 C 
ATOM      7  C   UNL     1      -9.528 -38.438  -3.752  0.00  0.00    +0.000 C 
ATOM      8  C   UNL     1      -6.187 -34.820  -5.308  0.00  0.00    +0.000 C 
ATOM      9  C   UNL     1     -12.027 -37.792  -3.978  0.00  0.00    +0.000 C 
ATOM     10  C   UNL     1      -4.864 -34.322  -5.744  0.00  0.00    +0.000 C 
ATOM     11  C   UNL     1      -8.339 -34.346  -4.079  0.00  0.00    +0.000 C 
ATOM     12  C   UNL     1     -11.079 -35.158  -3.702  0.00  0.00    +0.000 C 
ATOM     13  C   UNL     1      -5.284 -37.079  -5.178  0.00  0.00    +0.000 C 
ATOM     14  C   UNL     1      -3.458 -35.141  -5.468  0.00  0.00    +0.000 C 
ATOM     15  C   UNL     1      -6.596 -36.553  -2.498  0.00  0.00    +0.000 C 
ATOM     16  C   UNL     1      -3.885 -36.535  -5.343  0.00  0.00    +0.000 C 
ATOM     17  C   UNL     1     -13.020 -36.603  -4.077  0.00  0.00    +0.000 C 
ATOM     18  C   UNL     1      -7.101 -34.008  -4.861  0.00  0.00    +0.000 C 
ATOM     19  C   UNL     1     -10.081 -36.004  -1.613  0.00  0.00    +0.000 C 
ATOM     20  C   UNL     1     -12.495 -35.301  -4.149  0.00  0.00    +0.000 C 
ATOM     21  C   UNL     1      -7.386 -36.734  -6.497  0.00  0.00    +0.000 C 
ATOM     22  C   UNL     1      -4.817 -33.399  -6.878  0.00  0.00    +0.000 C 
ATOM     23  C   UNL     1      -2.617 -34.826  -6.654  0.00  0.00    +0.000 C 
ATOM     24  C   UNL     1      -4.001 -32.944  -8.066  0.00  0.00    +0.000 C 
ATOM     25  C   UNL     1     -12.631 -38.840  -2.986  0.00  0.00    +0.000 C 
ATOM     26  C   UNL     1      -2.818 -33.833  -7.828  0.00  0.00    +0.000 C 
ATOM     27  C   UNL     1      -4.712 -33.280  -9.390  0.00  0.00    +0.000 C 
ATOM     28  C   UNL     1      -3.631 -31.454  -7.959  0.00  0.00    +0.000 C 
ENDROOT
BRANCH  17  29
ATOM     29  O   UNL     1     -14.365 -36.768  -3.793  0.00  0.00    +0.000 OA
ATOM     30  H   UNL     1     -14.487 -37.297  -2.977  0.00  0.00    +0.000 HD
ENDBRANCH  17  29
BRANCH  14  32
ATOM     31  O   UNL     1      -2.723 -35.157  -3.117  0.00  0.00    +0.000 OA
ATOM     32  C   UNL     1      -2.836 -34.573  -4.186  0.00  0.00    +0.000 C 
BRANCH  32  33
ATOM     33  O   UNL     1      -2.453 -33.280  -4.279  0.00  0.00    +0.000 OA
ATOM     34  H   UNL     1      -1.559 -33.249  -3.877  0.00  0.00    +0.000 HD
ENDBRANCH  32  33
ENDBRANCH  14  32
BRANCH   9  35
ATOM     35  C   UNL     1     -11.989 -38.382  -5.354  0.00  0.00    +0.000 C 
BRANCH  35  36
ATOM     36  O   UNL     1     -11.942 -38.915  -6.578  0.00  0.00    +0.000 OA
ATOM     37  H   UNL     1     -11.367 -38.391  -7.167  0.00  0.00    +0.000 HD
ENDBRANCH  35  36
ENDBRANCH   9  35
TORSDOF 5
ENDMDL
MODEL 3
REMARK VINA RESULT:      -6.1     20.611     24.626
REMARK  Name = 73299_Hederagenin.pdbqt.pdb
REMARK  5 active torsions:
REMARK  status: ('A' for Active; 'I' for Inactive)
REMARK    1  A    between atoms: C_9  and  C_35
REMARK    2  A    between atoms: C_14  and  C_32
REMARK    3  A    between atoms: C_17  and  O_29
REMARK    4  A    between atoms: C_32  and  O_33
REMARK    5  A    between atoms: C_35  and  O_36
REMARK                            x       y       z     vdW  Elec       q    Type
REMARK                         _______ _______ _______ _____ _____    ______ ____
ROOT
ATOM      1  C   UNL     1     -15.855 -18.510  -0.675  0.00  0.00    +0.000 C 
ATOM      2  C   UNL     1     -14.299 -18.235  -0.538  0.00  0.00    +0.000 C 
ATOM      3  C   UNL     1     -13.503 -18.507   0.743  0.00  0.00    +0.000 C 
ATOM      4  C   UNL     1     -16.629 -17.316  -1.522  0.00  0.00    +0.000 C 
ATOM      5  C   UNL     1     -14.246 -18.300   2.095  0.00  0.00    +0.000 C 
ATOM      6  C   UNL     1     -16.357 -18.595   0.701  0.00  0.00    +0.000 C 
ATOM      7  C   UNL     1     -15.653 -18.501   2.013  0.00  0.00    +0.000 C 
ATOM      8  C   UNL     1     -15.867 -16.956  -2.910  0.00  0.00    +0.000 C 
ATOM      9  C   UNL     1     -13.582 -17.674   3.332  0.00  0.00    +0.000 C 
ATOM     10  C   UNL     1     -16.542 -16.697  -4.201  0.00  0.00    +0.000 C 
ATOM     11  C   UNL     1     -13.751 -17.630  -1.713  0.00  0.00    +0.000 C 
ATOM     12  C   UNL     1     -12.348 -17.617   0.805  0.00  0.00    +0.000 C 
ATOM     13  C   UNL     1     -17.986 -17.691  -1.960  0.00  0.00    +0.000 C 
ATOM     14  C   UNL     1     -17.977 -17.394  -4.622  0.00  0.00    +0.000 C 
ATOM     15  C   UNL     1     -16.007 -19.913  -1.393  0.00  0.00    +0.000 C 
ATOM     16  C   UNL     1     -18.607 -17.699  -3.338  0.00  0.00    +0.000 C 
ATOM     17  C   UNL     1     -12.124 -17.158   3.200  0.00  0.00    +0.000 C 
ATOM     18  C   UNL     1     -14.571 -17.053  -2.832  0.00  0.00    +0.000 C 
ATOM     19  C   UNL     1     -13.031 -19.982   0.697  0.00  0.00    +0.000 C 
ATOM     20  C   UNL     1     -11.609 -16.939   1.910  0.00  0.00    +0.000 C 
ATOM     21  C   UNL     1     -16.688 -15.948  -0.714  0.00  0.00    +0.000 C 
ATOM     22  C   UNL     1     -16.252 -15.438  -4.888  0.00  0.00    +0.000 C 
ATOM     23  C   UNL     1     -18.655 -16.355  -5.444  0.00  0.00    +0.000 C 
ATOM     24  C   UNL     1     -16.819 -14.366  -5.790  0.00  0.00    +0.000 C 
ATOM     25  C   UNL     1     -13.617 -18.714   4.501  0.00  0.00    +0.000 C 
ATOM     26  C   UNL     1     -18.161 -14.995  -6.003  0.00  0.00    +0.000 C 
ATOM     27  C   UNL     1     -16.928 -13.019  -5.052  0.00  0.00    +0.000 C 
ATOM     28  C   UNL     1     -16.021 -14.253  -7.101  0.00  0.00    +0.000 C 
ENDROOT
BRANCH  17  29
ATOM     29  O   UNL     1     -11.248 -17.202   4.272  0.00  0.00    +0.000 OA
ATOM     30  H   UNL     1     -10.419 -17.663   4.026  0.00  0.00    +0.000 HD
ENDBRANCH  17  29
BRANCH  14  32
ATOM     31  O   UNL     1     -17.436 -19.761  -5.031  0.00  0.00    +0.000 OA
ATOM     32  C   UNL     1     -17.660 -18.637  -5.461  0.00  0.00    +0.000 C 
BRANCH  32  33
ATOM     33  O   UNL     1     -17.563 -18.404  -6.789  0.00  0.00    +0.000 OA
ATOM     34  H   UNL     1     -17.981 -17.527  -6.926  0.00  0.00    +0.000 HD
ENDBRANCH  32  33
ENDBRANCH  14  32
BRANCH   9  35
ATOM     35  C   UNL     1     -14.387 -16.471   3.718  0.00  0.00    +0.000 C 
BRANCH  35  36
ATOM     36  O   UNL     1     -15.093 -15.394   4.070  0.00  0.00    +0.000 OA
ATOM     37  H   UNL     1     -15.994 -15.429   3.699  0.00  0.00    +0.000 HD
ENDBRANCH  35  36
ENDBRANCH   9  35
TORSDOF 5
ENDMDL
MODEL 4
REMARK VINA RESULT:      -6.1      1.689      8.395
REMARK  Name = 73299_Hederagenin.pdbqt.pdb
REMARK  5 active torsions:
REMARK  status: ('A' for Active; 'I' for Inactive)
REMARK    1  A    between atoms: C_9  and  C_35
REMARK    2  A    between atoms: C_14  and  C_32
REMARK    3  A    between atoms: C_17  and  O_29
REMARK    4  A    between atoms: C_32  and  O_33
REMARK    5  A    between atoms: C_35  and  O_36
REMARK                            x       y       z     vdW  Elec       q    Type
REMARK                         _______ _______ _______ _____ _____    ______ ____
ROOT
ATOM      1  C   UNL     1      -3.975 -36.740  -2.795  0.00  0.00    +0.000 C 
ATOM      2  C   UNL     1      -4.435 -38.231  -3.080  0.00  0.00    +0.000 C 
ATOM      3  C   UNL     1      -4.413 -39.338  -2.020  0.00  0.00    +0.000 C 
ATOM      4  C   UNL     1      -3.112 -36.101  -4.055  0.00  0.00    +0.000 C 
ATOM      5  C   UNL     1      -3.278 -39.278  -0.956  0.00  0.00    +0.000 C 
ATOM      6  C   UNL     1      -3.160 -36.811  -1.577  0.00  0.00    +0.000 C 
ATOM      7  C   UNL     1      -2.807 -37.961  -0.694  0.00  0.00    +0.000 C 
ATOM      8  C   UNL     1      -3.848 -36.335  -5.484  0.00  0.00    +0.000 C 
ATOM      9  C   UNL     1      -2.542 -40.526  -0.440  0.00  0.00    +0.000 C 
ATOM     10  C   UNL     1      -3.942 -35.326  -6.562  0.00  0.00    +0.000 C 
ATOM     11  C   UNL     1      -4.787 -38.437  -4.451  0.00  0.00    +0.000 C 
ATOM     12  C   UNL     1      -4.258 -40.638  -2.666  0.00  0.00    +0.000 C 
ATOM     13  C   UNL     1      -2.961 -34.635  -3.981  0.00  0.00    +0.000 C 
ATOM     14  C   UNL     1      -3.987 -33.702  -6.273  0.00  0.00    +0.000 C 
ATOM     15  C   UNL     1      -5.290 -35.905  -2.517  0.00  0.00    +0.000 C 
ATOM     16  C   UNL     1      -3.321 -33.559  -4.979  0.00  0.00    +0.000 C 
ATOM     17  C   UNL     1      -2.901 -41.900  -1.066  0.00  0.00    +0.000 C 
ATOM     18  C   UNL     1      -4.492 -37.464  -5.558  0.00  0.00    +0.000 C 
ATOM     19  C   UNL     1      -5.762 -39.285  -1.258  0.00  0.00    +0.000 C 
ATOM     20  C   UNL     1      -3.581 -41.915  -2.297  0.00  0.00    +0.000 C 
ATOM     21  C   UNL     1      -1.682 -36.777  -4.209  0.00  0.00    +0.000 C 
ATOM     22  C   UNL     1      -3.454 -35.694  -7.892  0.00  0.00    +0.000 C 
ATOM     23  C   UNL     1      -3.274 -33.108  -7.437  0.00  0.00    +0.000 C 
ATOM     24  C   UNL     1      -2.806 -35.176  -9.155  0.00  0.00    +0.000 C 
ATOM     25  C   UNL     1      -2.758 -40.632   1.106  0.00  0.00    +0.000 C 
ATOM     26  C   UNL     1      -2.748 -33.734  -8.755  0.00  0.00    +0.000 C 
ATOM     27  C   UNL     1      -1.400 -35.775  -9.345  0.00  0.00    +0.000 C 
ATOM     28  C   UNL     1      -3.709 -35.397 -10.382  0.00  0.00    +0.000 C 
ENDROOT
BRANCH  17  29
ATOM     29  O   UNL     1      -2.844 -43.064  -0.319  0.00  0.00    +0.000 OA
ATOM     30  H   UNL     1      -3.511 -43.052   0.398  0.00  0.00    +0.000 HD
ENDBRANCH  17  29
BRANCH  14  32
ATOM     31  O   UNL     1      -6.061 -32.794  -5.305  0.00  0.00    +0.000 OA
ATOM     32  C   UNL     1      -5.460 -33.276  -6.255  0.00  0.00    +0.000 C 
BRANCH  32  33
ATOM     33  O   UNL     1      -6.130 -33.541  -7.398  0.00  0.00    +0.000 OA
ATOM     34  H   UNL     1      -5.997 -34.500  -7.557  0.00  0.00    +0.000 HD
ENDBRANCH  32  33
ENDBRANCH  14  32
BRANCH   9  35
ATOM     35  C   UNL     1      -1.083 -40.339  -0.722  0.00  0.00    +0.000 C 
BRANCH  35  36
ATOM     36  O   UNL     1       0.217 -40.181  -0.986  0.00  0.00    +0.000 OA
ATOM     37  H   UNL     1       0.723 -40.978  -0.745  0.00  0.00    +0.000 HD
ENDBRANCH  35  36
ENDBRANCH   9  35
TORSDOF 5
ENDMDL
MODEL 5
REMARK VINA RESULT:      -6.0      1.717      8.402
REMARK  Name = 73299_Hederagenin.pdbqt.pdb
REMARK  5 active torsions:
REMARK  status: ('A' for Active; 'I' for Inactive)
REMARK    1  A    between atoms: C_9  and  C_35
REMARK    2  A    between atoms: C_14  and  C_32
REMARK    3  A    between atoms: C_17  and  O_29
REMARK    4  A    between atoms: C_32  and  O_33
REMARK    5  A    between atoms: C_35  and  O_36
REMARK                            x       y       z     vdW  Elec       q    Type
REMARK                         _______ _______ _______ _____ _____    ______ ____
ROOT
ATOM      1  C   UNL     1      -5.082 -37.365  -2.386  0.00  0.00    +0.000 C 
ATOM      2  C   UNL     1      -4.160 -38.646  -2.538  0.00  0.00    +0.000 C 
ATOM      3  C   UNL     1      -3.598 -39.428  -1.345  0.00  0.00    +0.000 C 
ATOM      4  C   UNL     1      -4.707 -36.190  -3.490  0.00  0.00    +0.000 C 
ATOM      5  C   UNL     1      -3.247 -38.613  -0.067  0.00  0.00    +0.000 C 
ATOM      6  C   UNL     1      -4.866 -36.891  -1.014  0.00  0.00    +0.000 C 
ATOM      7  C   UNL     1      -4.025 -37.433   0.094  0.00  0.00    +0.000 C 
ATOM      8  C   UNL     1      -4.590 -36.781  -4.999  0.00  0.00    +0.000 C 
ATOM      9  C   UNL     1      -2.003 -38.894   0.794  0.00  0.00    +0.000 C 
ATOM     10  C   UNL     1      -5.116 -36.115  -6.210  0.00  0.00    +0.000 C 
ATOM     11  C   UNL     1      -3.849 -38.931  -3.905  0.00  0.00    +0.000 C 
ATOM     12  C   UNL     1      -2.354 -40.087  -1.729  0.00  0.00    +0.000 C 
ATOM     13  C   UNL     1      -5.739 -35.143  -3.609  0.00  0.00    +0.000 C 
ATOM     14  C   UNL     1      -6.443 -35.134  -6.194  0.00  0.00    +0.000 C 
ATOM     15  C   UNL     1      -6.577 -37.858  -2.557  0.00  0.00    +0.000 C 
ATOM     16  C   UNL     1      -6.498 -34.644  -4.817  0.00  0.00    +0.000 C 
ATOM     17  C   UNL     1      -1.017 -39.994   0.320  0.00  0.00    +0.000 C 
ATOM     18  C   UNL     1      -4.107 -37.989  -5.047  0.00  0.00    +0.000 C 
ATOM     19  C   UNL     1      -4.654 -40.488  -0.940  0.00  0.00    +0.000 C 
ATOM     20  C   UNL     1      -1.084 -40.419  -1.018  0.00  0.00    +0.000 C 
ATOM     21  C   UNL     1      -3.296 -35.517  -3.197  0.00  0.00    +0.000 C 
ATOM     22  C   UNL     1      -4.190 -35.865  -7.315  0.00  0.00    +0.000 C 
ATOM     23  C   UNL     1      -6.150 -34.111  -7.234  0.00  0.00    +0.000 C 
ATOM     24  C   UNL     1      -3.850 -34.932  -8.454  0.00  0.00    +0.000 C 
ATOM     25  C   UNL     1      -2.468 -39.258   2.243  0.00  0.00    +0.000 C 
ATOM     26  C   UNL     1      -5.009 -33.998  -8.278  0.00  0.00    +0.000 C 
ATOM     27  C   UNL     1      -2.504 -34.226  -8.213  0.00  0.00    +0.000 C 
ATOM     28  C   UNL     1      -3.898 -35.658  -9.810  0.00  0.00    +0.000 C 
ENDROOT
BRANCH  17  29
ATOM     29  O   UNL     1      -0.306 -40.759   1.230  0.00  0.00    +0.000 OA
ATOM     30  H   UNL     1       0.635 -40.489   1.253  0.00  0.00    +0.000 HD
ENDBRANCH  17  29
BRANCH  14  32
ATOM     31  O   UNL     1      -7.626 -37.028  -7.234  0.00  0.00    +0.000 OA
ATOM     32  C   UNL     1      -7.654 -35.988  -6.589  0.00  0.00    +0.000 C 
BRANCH  32  33
ATOM     33  O   UNL     1      -8.847 -35.466  -6.226  0.00  0.00    +0.000 OA
ATOM     34  H   UNL     1      -9.489 -36.200  -6.329  0.00  0.00    +0.000 HD
ENDBRANCH  32  33
ENDBRANCH  14  32
BRANCH   9  35
ATOM     35  C   UNL     1      -1.191 -37.636   0.838  0.00  0.00    +0.000 C 
BRANCH  35  36
ATOM     36  O   UNL     1      -0.459 -36.520   0.890  0.00  0.00    +0.000 OA
ATOM     37  H   UNL     1       0.448 -36.709   1.192  0.00  0.00    +0.000 HD
ENDBRANCH  35  36
ENDBRANCH   9  35
TORSDOF 5
ENDMDL
MODEL 6
REMARK VINA RESULT:      -5.7     21.412     24.192
REMARK  Name = 73299_Hederagenin.pdbqt.pdb
REMARK  5 active torsions:
REMARK  status: ('A' for Active; 'I' for Inactive)
REMARK    1  A    between atoms: C_9  and  C_35
REMARK    2  A    between atoms: C_14  and  C_32
REMARK    3  A    between atoms: C_17  and  O_29
REMARK    4  A    between atoms: C_32  and  O_33
REMARK    5  A    between atoms: C_35  and  O_36
REMARK                            x       y       z     vdW  Elec       q    Type
REMARK                         _______ _______ _______ _____ _____    ______ ____
ROOT
ATOM      1  C   UNL     1     -11.815 -15.662   2.695  0.00  0.00    +0.000 C 
ATOM      2  C   UNL     1     -10.710 -16.742   2.335  0.00  0.00    +0.000 C 
ATOM      3  C   UNL     1      -9.252 -16.642   2.795  0.00  0.00    +0.000 C 
ATOM      4  C   UNL     1     -12.822 -15.349   1.418  0.00  0.00    +0.000 C 
ATOM      5  C   UNL     1      -8.645 -15.214   2.919  0.00  0.00    +0.000 C 
ATOM      6  C   UNL     1     -11.071 -14.461   3.090  0.00  0.00    +0.000 C 
ATOM      7  C   UNL     1      -9.605 -14.205   3.206  0.00  0.00    +0.000 C 
ATOM      8  C   UNL     1     -13.384 -16.710   0.731  0.00  0.00    +0.000 C 
ATOM      9  C   UNL     1      -7.203 -14.875   2.503  0.00  0.00    +0.000 C 
ATOM     10  C   UNL     1     -14.776 -16.912   0.273  0.00  0.00    +0.000 C 
ATOM     11  C   UNL     1     -11.213 -17.763   1.468  0.00  0.00    +0.000 C 
ATOM     12  C   UNL     1      -8.387 -17.341   1.850  0.00  0.00    +0.000 C 
ATOM     13  C   UNL     1     -14.048 -14.624   1.800  0.00  0.00    +0.000 C 
ATOM     14  C   UNL     1     -16.073 -16.174   0.979  0.00  0.00    +0.000 C 
ATOM     15  C   UNL     1     -12.620 -16.231   3.934  0.00  0.00    +0.000 C 
ATOM     16  C   UNL     1     -15.503 -14.969   1.581  0.00  0.00    +0.000 C 
ATOM     17  C   UNL     1      -6.342 -15.995   1.862  0.00  0.00    +0.000 C 
ATOM     18  C   UNL     1     -12.527 -17.689   0.743  0.00  0.00    +0.000 C 
ATOM     19  C   UNL     1      -9.155 -17.308   4.192  0.00  0.00    +0.000 C 
ATOM     20  C   UNL     1      -6.996 -17.130   1.352  0.00  0.00    +0.000 C 
ATOM     21  C   UNL     1     -12.083 -14.567   0.247  0.00  0.00    +0.000 C 
ATOM     22  C   UNL     1     -14.990 -17.318  -1.116  0.00  0.00    +0.000 C 
ATOM     23  C   UNL     1     -17.018 -15.949  -0.148  0.00  0.00    +0.000 C 
ATOM     24  C   UNL     1     -15.924 -17.222  -2.300  0.00  0.00    +0.000 C 
ATOM     25  C   UNL     1      -6.434 -14.336   3.755  0.00  0.00    +0.000 C 
ATOM     26  C   UNL     1     -16.994 -16.420  -1.625  0.00  0.00    +0.000 C 
ATOM     27  C   UNL     1     -15.273 -16.447  -3.461  0.00  0.00    +0.000 C 
ATOM     28  C   UNL     1     -16.431 -18.610  -2.732  0.00  0.00    +0.000 C 
ENDROOT
BRANCH  17  29
ATOM     29  O   UNL     1      -4.971 -16.042   2.052  0.00  0.00    +0.000 OA
ATOM     30  H   UNL     1      -4.730 -16.757   2.676  0.00  0.00    +0.000 HD
ENDBRANCH  17  29
BRANCH  14  32
ATOM     31  O   UNL     1     -17.275 -18.181   1.750  0.00  0.00    +0.000 OA
ATOM     32  C   UNL     1     -16.661 -17.152   2.003  0.00  0.00    +0.000 C 
BRANCH  32  33
ATOM     33  O   UNL     1     -16.521 -16.763   3.289  0.00  0.00    +0.000 OA
ATOM     34  H   UNL     1     -17.132 -17.339   3.798  0.00  0.00    +0.000 HD
ENDBRANCH  32  33
ENDBRANCH  14  32
BRANCH   9  35
ATOM     35  C   UNL     1      -7.274 -13.797   1.467  0.00  0.00    +0.000 C 
BRANCH  35  36
ATOM     36  O   UNL     1      -7.329 -12.843   0.532  0.00  0.00    +0.000 OA
ATOM     37  H   UNL     1      -6.687 -13.014  -0.181  0.00  0.00    +0.000 HD
ENDBRANCH  35  36
ENDBRANCH   9  35
TORSDOF 5
ENDMDL
MODEL 7
REMARK VINA RESULT:      -5.7     19.545     22.671
REMARK  Name = 73299_Hederagenin.pdbqt.pdb
REMARK  5 active torsions:
REMARK  status: ('A' for Active; 'I' for Inactive)
REMARK    1  A    between atoms: C_9  and  C_35
REMARK    2  A    between atoms: C_14  and  C_32
REMARK    3  A    between atoms: C_17  and  O_29
REMARK    4  A    between atoms: C_32  and  O_33
REMARK    5  A    between atoms: C_35  and  O_36
REMARK                            x       y       z     vdW  Elec       q    Type
REMARK                         _______ _______ _______ _____ _____    ______ ____
ROOT
ATOM      1  C   UNL     1      -3.575 -15.652  -0.813  0.00  0.00    +0.000 C 
ATOM      2  C   UNL     1      -3.516 -17.115  -0.204  0.00  0.00    +0.000 C 
ATOM      3  C   UNL     1      -4.559 -17.665   0.774  0.00  0.00    +0.000 C 
ATOM      4  C   UNL     1      -2.079 -14.946  -0.890  0.00  0.00    +0.000 C 
ATOM      5  C   UNL     1      -5.201 -16.653   1.767  0.00  0.00    +0.000 C 
ATOM      6  C   UNL     1      -4.471 -14.899   0.072  0.00  0.00    +0.000 C 
ATOM      7  C   UNL     1      -5.243 -15.317   1.279  0.00  0.00    +0.000 C 
ATOM      8  C   UNL     1      -0.971 -15.928  -1.559  0.00  0.00    +0.000 C 
ATOM      9  C   UNL     1      -5.508 -16.995   3.235  0.00  0.00    +0.000 C 
ATOM     10  C   UNL     1       0.062 -15.499  -2.527  0.00  0.00    +0.000 C 
ATOM     11  C   UNL     1      -2.339 -17.822  -0.607  0.00  0.00    +0.000 C 
ATOM     12  C   UNL     1      -3.954 -18.692   1.617  0.00  0.00    +0.000 C 
ATOM     13  C   UNL     1      -2.038 -13.746  -1.746  0.00  0.00    +0.000 C 
ATOM     14  C   UNL     1      -0.155 -14.251  -3.584  0.00  0.00    +0.000 C 
ATOM     15  C   UNL     1      -4.222 -15.783  -2.251  0.00  0.00    +0.000 C 
ATOM     16  C   UNL     1      -1.162 -13.413  -2.931  0.00  0.00    +0.000 C 
ATOM     17  C   UNL     1      -5.089 -18.392   3.766  0.00  0.00    +0.000 C 
ATOM     18  C   UNL     1      -1.156 -17.186  -1.279  0.00  0.00    +0.000 C 
ATOM     19  C   UNL     1      -5.709 -18.280  -0.064  0.00  0.00    +0.000 C 
ATOM     20  C   UNL     1      -4.142 -19.128   3.031  0.00  0.00    +0.000 C 
ATOM     21  C   UNL     1      -1.505 -14.594   0.551  0.00  0.00    +0.000 C 
ATOM     22  C   UNL     1       1.461 -15.793  -2.213  0.00  0.00    +0.000 C 
ATOM     23  C   UNL     1       1.199 -13.650  -3.717  0.00  0.00    +0.000 C 
ATOM     24  C   UNL     1       2.887 -15.313  -2.362  0.00  0.00    +0.000 C 
ATOM     25  C   UNL     1      -7.045 -16.832   3.477  0.00  0.00    +0.000 C 
ATOM     26  C   UNL     1       2.588 -14.108  -3.201  0.00  0.00    +0.000 C 
ATOM     27  C   UNL     1       3.490 -14.928  -0.999  0.00  0.00    +0.000 C 
ATOM     28  C   UNL     1       3.750 -16.339  -3.117  0.00  0.00    +0.000 C 
ENDROOT
BRANCH  17  29
ATOM     29  O   UNL     1      -5.828 -19.039   4.742  0.00  0.00    +0.000 OA
ATOM     30  H   UNL     1      -5.269 -19.668   5.243  0.00  0.00    +0.000 HD
ENDBRANCH  17  29
BRANCH  14  32
ATOM     31  O   UNL     1       0.025 -14.904  -5.952  0.00  0.00    +0.000 OA
ATOM     32  C   UNL     1      -0.625 -14.849  -4.916  0.00  0.00    +0.000 C 
BRANCH  32  33
ATOM     33  O   UNL     1      -1.905 -15.281  -4.912  0.00  0.00    +0.000 OA
ATOM     34  H   UNL     1      -2.144 -15.382  -5.859  0.00  0.00    +0.000 HD
ENDBRANCH  32  33
ENDBRANCH  14  32
BRANCH   9  35
ATOM     35  C   UNL     1      -4.768 -16.015   4.092  0.00  0.00    +0.000 C 
BRANCH  35  36
ATOM     36  O   UNL     1      -4.094 -15.149   4.854  0.00  0.00    +0.000 OA
ATOM     37  H   UNL     1      -4.645 -14.376   5.078  0.00  0.00    +0.000 HD
ENDBRANCH  35  36
ENDBRANCH   9  35
TORSDOF 5
ENDMDL
MODEL 8
REMARK VINA RESULT:      -5.5     18.949     23.056
REMARK  Name = 73299_Hederagenin.pdbqt.pdb
REMARK  5 active torsions:
REMARK  status: ('A' for Active; 'I' for Inactive)
REMARK    1  A    between atoms: C_9  and  C_35
REMARK    2  A    between atoms: C_14  and  C_32
REMARK    3  A    between atoms: C_17  and  O_29
REMARK    4  A    between atoms: C_32  and  O_33
REMARK    5  A    between atoms: C_35  and  O_36
REMARK                            x       y       z     vdW  Elec       q    Type
REMARK                         _______ _______ _______ _____ _____    ______ ____
ROOT
ATOM      1  C   UNL     1      -1.059 -16.136  -1.278  0.00  0.00    +0.000 C 
ATOM      2  C   UNL     1      -0.423 -17.564  -1.008  0.00  0.00    +0.000 C 
ATOM      3  C   UNL     1      -0.719 -18.397   0.243  0.00  0.00    +0.000 C 
ATOM      4  C   UNL     1       0.035 -15.078  -1.932  0.00  0.00    +0.000 C 
ATOM      5  C   UNL     1      -0.975 -17.620   1.567  0.00  0.00    +0.000 C 
ATOM      6  C   UNL     1      -1.532 -15.668   0.030  0.00  0.00    +0.000 C 
ATOM      7  C   UNL     1      -1.512 -16.317   1.374  0.00  0.00    +0.000 C 
ATOM      8  C   UNL     1       0.839 -15.724  -3.187  0.00  0.00    +0.000 C 
ATOM      9  C   UNL     1      -0.447 -18.091   2.933  0.00  0.00    +0.000 C 
ATOM     10  C   UNL     1       1.156 -15.010  -4.443  0.00  0.00    +0.000 C 
ATOM     11  C   UNL     1       0.517 -17.938  -2.020  0.00  0.00    +0.000 C 
ATOM     12  C   UNL     1       0.410 -19.276   0.530  0.00  0.00    +0.000 C 
ATOM     13  C   UNL     1      -0.587 -13.869  -2.505  0.00  0.00    +0.000 C 
ATOM     14  C   UNL     1       0.207 -13.811  -5.063  0.00  0.00    +0.000 C 
ATOM     15  C   UNL     1      -2.289 -16.363  -2.248  0.00  0.00    +0.000 C 
ATOM     16  C   UNL     1      -0.491 -13.279  -3.892  0.00  0.00    +0.000 C 
ATOM     17  C   UNL     1       0.443 -19.361   2.977  0.00  0.00    +0.000 C 
ATOM     18  C   UNL     1       1.066 -16.999  -3.057  0.00  0.00    +0.000 C 
ATOM     19  C   UNL     1      -1.986 -19.243  -0.047  0.00  0.00    +0.000 C 
ATOM     20  C   UNL     1       1.031 -19.806   1.779  0.00  0.00    +0.000 C 
ATOM     21  C   UNL     1       1.160 -14.656  -0.891  0.00  0.00    +0.000 C 
ATOM     22  C   UNL     1       2.555 -14.960  -4.870  0.00  0.00    +0.000 C 
ATOM     23  C   UNL     1       1.172 -12.887  -5.716  0.00  0.00    +0.000 C 
ATOM     24  C   UNL     1       3.596 -14.135  -5.590  0.00  0.00    +0.000 C 
ATOM     25  C   UNL     1      -1.664 -18.326   3.887  0.00  0.00    +0.000 C 
ATOM     26  C   UNL     1       2.694 -13.007  -5.988  0.00  0.00    +0.000 C 
ATOM     27  C   UNL     1       4.702 -13.671  -4.624  0.00  0.00    +0.000 C 
ATOM     28  C   UNL     1       4.160 -14.880  -6.813  0.00  0.00    +0.000 C 
ENDROOT
BRANCH  17  29
ATOM     29  O   UNL     1       0.423 -20.213   4.069  0.00  0.00    +0.000 OA
ATOM     30  H   UNL     1      -0.385 -20.074   4.605  0.00  0.00    +0.000 HD
ENDBRANCH  17  29
BRANCH  14  32
ATOM     31  O   UNL     1      -1.805 -14.984  -5.866  0.00  0.00    +0.000 OA
ATOM     32  C   UNL     1      -0.729 -14.449  -6.097  0.00  0.00    +0.000 C 
BRANCH  32  33
ATOM     33  O   UNL     1      -0.243 -14.456  -7.358  0.00  0.00    +0.000 OA
ATOM     34  H   UNL     1      -0.236 -15.400  -7.624  0.00  0.00    +0.000 HD
ENDBRANCH  32  33
ENDBRANCH  14  32
BRANCH   9  35
ATOM     35  C   UNL     1       0.410 -16.996   3.488  0.00  0.00    +0.000 C 
BRANCH  35  36
ATOM     36  O   UNL     1       1.173 -16.011   3.971  0.00  0.00    +0.000 OA
ATOM     37  H   UNL     1       1.547 -16.250   4.838  0.00  0.00    +0.000 HD
ENDBRANCH  35  36
ENDBRANCH   9  35
TORSDOF 5
ENDMDL
MODEL 9
REMARK VINA RESULT:      -5.5      2.326      8.233
REMARK  Name = 73299_Hederagenin.pdbqt.pdb
REMARK  5 active torsions:
REMARK  status: ('A' for Active; 'I' for Inactive)
REMARK    1  A    between atoms: C_9  and  C_35
REMARK    2  A    between atoms: C_14  and  C_32
REMARK    3  A    between atoms: C_17  and  O_29
REMARK    4  A    between atoms: C_32  and  O_33
REMARK    5  A    between atoms: C_35  and  O_36
REMARK                            x       y       z     vdW  Elec       q    Type
REMARK                         _______ _______ _______ _____ _____    ______ ____
ROOT
ATOM      1  C   UNL     1      -2.764 -38.727  -1.849  0.00  0.00    +0.000 C 
ATOM      2  C   UNL     1      -3.182 -38.581  -0.326  0.00  0.00    +0.000 C 
ATOM      3  C   UNL     1      -2.873 -39.639   0.739  0.00  0.00    +0.000 C 
ATOM      4  C   UNL     1      -3.947 -38.193  -2.876  0.00  0.00    +0.000 C 
ATOM      5  C   UNL     1      -2.875 -41.126   0.281  0.00  0.00    +0.000 C 
ATOM      6  C   UNL     1      -2.499 -40.158  -2.044  0.00  0.00    +0.000 C 
ATOM      7  C   UNL     1      -2.541 -41.305  -1.090  0.00  0.00    +0.000 C 
ATOM      8  C   UNL     1      -4.513 -36.730  -2.453  0.00  0.00    +0.000 C 
ATOM      9  C   UNL     1      -3.446 -42.269   1.137  0.00  0.00    +0.000 C 
ATOM     10  C   UNL     1      -4.821 -35.637  -3.401  0.00  0.00    +0.000 C 
ATOM     11  C   UNL     1      -3.947 -37.397  -0.086  0.00  0.00    +0.000 C 
ATOM     12  C   UNL     1      -3.866 -39.569   1.807  0.00  0.00    +0.000 C 
ATOM     13  C   UNL     1      -3.480 -37.994  -4.261  0.00  0.00    +0.000 C 
ATOM     14  C   UNL     1      -4.025 -35.435  -4.833  0.00  0.00    +0.000 C 
ATOM     15  C   UNL     1      -1.427 -37.901  -2.035  0.00  0.00    +0.000 C 
ATOM     16  C   UNL     1      -3.538 -36.776  -5.153  0.00  0.00    +0.000 C 
ATOM     17  C   UNL     1      -4.118 -41.907   2.489  0.00  0.00    +0.000 C 
ATOM     18  C   UNL     1      -4.541 -36.537  -1.166  0.00  0.00    +0.000 C 
ATOM     19  C   UNL     1      -1.464 -39.334   1.309  0.00  0.00    +0.000 C 
ATOM     20  C   UNL     1      -4.509 -40.574   2.704  0.00  0.00    +0.000 C 
ATOM     21  C   UNL     1      -5.220 -39.145  -2.875  0.00  0.00    +0.000 C 
ATOM     22  C   UNL     1      -6.162 -35.053  -3.364  0.00  0.00    +0.000 C 
ATOM     23  C   UNL     1      -5.062 -34.887  -5.748  0.00  0.00    +0.000 C 
ATOM     24  C   UNL     1      -7.252 -34.409  -4.190  0.00  0.00    +0.000 C 
ATOM     25  C   UNL     1      -2.303 -43.296   1.430  0.00  0.00    +0.000 C 
ATOM     26  C   UNL     1      -6.512 -34.398  -5.493  0.00  0.00    +0.000 C 
ATOM     27  C   UNL     1      -8.505 -35.302  -4.251  0.00  0.00    +0.000 C 
ATOM     28  C   UNL     1      -7.567 -32.986  -3.696  0.00  0.00    +0.000 C 
ENDROOT
BRANCH  17  29
ATOM     29  O   UNL     1      -4.063 -42.771   3.570  0.00  0.00    +0.000 OA
ATOM     30  H   UNL     1      -4.464 -43.637   3.345  0.00  0.00    +0.000 HD
ENDBRANCH  17  29
BRANCH  14  32
ATOM     31  O   UNL     1      -2.409 -34.121  -3.519  0.00  0.00    +0.000 OA
ATOM     32  C   UNL     1      -2.905 -34.414  -4.599  0.00  0.00    +0.000 C 
BRANCH  32  33
ATOM     33  O   UNL     1      -2.509 -33.756  -5.711  0.00  0.00    +0.000 OA
ATOM     34  H   UNL     1      -3.333 -33.587  -6.215  0.00  0.00    +0.000 HD
ENDBRANCH  32  33
ENDBRANCH  14  32
BRANCH   9  35
ATOM     35  C   UNL     1      -4.519 -42.940   0.337  0.00  0.00    +0.000 C 
BRANCH  35  36
ATOM     36  O   UNL     1      -5.468 -43.539  -0.389  0.00  0.00    +0.000 OA
ATOM     37  H   UNL     1      -5.165 -44.407  -0.714  0.00  0.00    +0.000 HD
ENDBRANCH  35  36
ENDBRANCH   9  35
TORSDOF 5
ENDMDL
