MODEL 1
REMARK VINA RESULT:      -7.2      0.000      0.000
REMARK  Name = 73659_MaslinicAcid.pdbqt.pdb
REMARK  4 active torsions:
REMARK  status: ('A' for Active; 'I' for Inactive)
REMARK    1  A    between atoms: C_14  and  C_35
REMARK    2  A    between atoms: C_17  and  O_30
REMARK    3  A    between atoms: C_19  and  O_32
REMARK    4  A    between atoms: C_35  and  O_36
REMARK                            x       y       z     vdW  Elec       q    Type
REMARK                         _______ _______ _______ _____ _____    ______ ____
ROOT
ATOM      1  C   UNL     1      -5.007 -37.348  -3.991  0.00  0.00    +0.000 C 
ATOM      2  C   UNL     1      -3.614 -37.320  -3.229  0.00  0.00    +0.000 C 
ATOM      3  C   UNL     1      -3.427 -37.820  -1.794  0.00  0.00    +0.000 C 
ATOM      4  C   UNL     1      -5.252 -35.988  -4.901  0.00  0.00    +0.000 C 
ATOM      5  C   UNL     1      -4.609 -37.658  -0.832  0.00  0.00    +0.000 C 
ATOM      6  C   UNL     1      -6.019 -37.475  -2.936  0.00  0.00    +0.000 C 
ATOM      7  C   UNL     1      -5.885 -37.622  -1.456  0.00  0.00    +0.000 C 
ATOM      8  C   UNL     1      -3.967 -35.634  -5.830  0.00  0.00    +0.000 C 
ATOM      9  C   UNL     1      -4.358 -37.403   0.647  0.00  0.00    +0.000 C 
ATOM     10  C   UNL     1      -4.038 -35.194  -7.240  0.00  0.00    +0.000 C 
ATOM     11  C   UNL     1      -2.584 -36.705  -4.009  0.00  0.00    +0.000 C 
ATOM     12  C   UNL     1      -2.349 -37.086  -1.150  0.00  0.00    +0.000 C 
ATOM     13  C   UNL     1      -6.354 -36.121  -5.871  0.00  0.00    +0.000 C 
ATOM     14  C   UNL     1      -5.250 -35.647  -8.265  0.00  0.00    +0.000 C 
ATOM     15  C   UNL     1      -5.003 -38.651  -4.890  0.00  0.00    +0.000 C 
ATOM     16  C   UNL     1      -6.371 -35.941  -7.372  0.00  0.00    +0.000 C 
ATOM     17  C   UNL     1      -2.960 -36.900   1.088  0.00  0.00    +0.000 C 
ATOM     18  C   UNL     1      -3.081 -39.326  -1.865  0.00  0.00    +0.000 C 
ATOM     19  C   UNL     1      -1.979 -36.602   0.100  0.00  0.00    +0.000 C 
ATOM     20  C   UNL     1      -2.827 -35.925  -5.269  0.00  0.00    +0.000 C 
ATOM     21  C   UNL     1      -5.481 -34.699  -4.000  0.00  0.00    +0.000 C 
ATOM     22  C   UNL     1      -3.364 -33.950  -7.609  0.00  0.00    +0.000 C 
ATOM     23  C   UNL     1      -5.425 -34.471  -9.159  0.00  0.00    +0.000 C 
ATOM     24  C   UNL     1      -3.400 -32.753  -8.531  0.00  0.00    +0.000 C 
ATOM     25  C   UNL     1      -5.340 -36.280   1.131  0.00  0.00    +0.000 C 
ATOM     26  C   UNL     1      -4.661 -38.700   1.451  0.00  0.00    +0.000 C 
ATOM     27  C   UNL     1      -4.605 -33.166  -9.322  0.00  0.00    +0.000 C 
ATOM     28  C   UNL     1      -2.136 -32.678  -9.407  0.00  0.00    +0.000 C 
ATOM     29  C   UNL     1      -3.650 -31.452  -7.745  0.00  0.00    +0.000 C 
ENDROOT
BRANCH  17  30
ATOM     30  O   UNL     1      -2.583 -36.739   2.419  0.00  0.00    +0.000 OA
ATOM     31  H   UNL     1      -3.023 -37.399   2.993  0.00  0.00    +0.000 HD
ENDBRANCH  17  30
BRANCH  19  32
ATOM     32  O   UNL     1      -0.690 -36.337   0.454  0.00  0.00    +0.000 OA
ATOM     33  H   UNL     1      -0.232 -37.150   0.744  0.00  0.00    +0.000 HD
ENDBRANCH  19  32
BRANCH  14  35
ATOM     34  O   UNL     1      -3.709 -37.469  -8.878  0.00  0.00    +0.000 OA
ATOM     35  C   UNL     1      -4.762 -36.870  -9.051  0.00  0.00    +0.000 C 
BRANCH  35  36
ATOM     36  O   UNL     1      -5.577 -37.240 -10.064  0.00  0.00    +0.000 OA
ATOM     37  H   UNL     1      -5.186 -38.070 -10.415  0.00  0.00    +0.000 HD
ENDBRANCH  35  36
ENDBRANCH  14  35
TORSDOF 4
ENDMDL
MODEL 2
REMARK VINA RESULT:      -6.7     19.840     24.602
REMARK  Name = 73659_MaslinicAcid.pdbqt.pdb
REMARK  4 active torsions:
REMARK  status: ('A' for Active; 'I' for Inactive)
REMARK    1  A    between atoms: C_14  and  C_35
REMARK    2  A    between atoms: C_17  and  O_30
REMARK    3  A    between atoms: C_19  and  O_32
REMARK    4  A    between atoms: C_35  and  O_36
REMARK                            x       y       z     vdW  Elec       q    Type
REMARK                         _______ _______ _______ _____ _____    ______ ____
ROOT
ATOM      1  C   UNL     1      -3.678 -15.117 -16.535  0.00  0.00    +0.000 C 
ATOM      2  C   UNL     1      -4.639 -14.761 -15.321  0.00  0.00    +0.000 C 
ATOM      3  C   UNL     1      -5.728 -13.686 -15.393  0.00  0.00    +0.000 C 
ATOM      4  C   UNL     1      -2.124 -15.401 -16.041  0.00  0.00    +0.000 C 
ATOM      5  C   UNL     1      -5.458 -12.470 -16.287  0.00  0.00    +0.000 C 
ATOM      6  C   UNL     1      -3.752 -13.960 -17.434  0.00  0.00    +0.000 C 
ATOM      7  C   UNL     1      -4.562 -12.708 -17.364  0.00  0.00    +0.000 C 
ATOM      8  C   UNL     1      -2.059 -16.431 -14.786  0.00  0.00    +0.000 C 
ATOM      9  C   UNL     1      -6.012 -11.106 -15.904  0.00  0.00    +0.000 C 
ATOM     10  C   UNL     1      -1.083 -17.533 -14.647  0.00  0.00    +0.000 C 
ATOM     11  C   UNL     1      -4.316 -15.502 -14.140  0.00  0.00    +0.000 C 
ATOM     12  C   UNL     1      -5.945 -13.111 -14.076  0.00  0.00    +0.000 C 
ATOM     13  C   UNL     1      -1.293 -16.053 -17.069  0.00  0.00    +0.000 C 
ATOM     14  C   UNL     1      -0.422 -18.321 -15.939  0.00  0.00    +0.000 C 
ATOM     15  C   UNL     1      -4.301 -16.388 -17.244  0.00  0.00    +0.000 C 
ATOM     16  C   UNL     1      -0.504 -17.342 -17.023  0.00  0.00    +0.000 C 
ATOM     17  C   UNL     1      -6.471 -10.874 -14.442  0.00  0.00    +0.000 C 
ATOM     18  C   UNL     1      -7.021 -14.365 -15.901  0.00  0.00    +0.000 C 
ATOM     19  C   UNL     1      -6.280 -11.902 -13.476  0.00  0.00    +0.000 C 
ATOM     20  C   UNL     1      -3.060 -16.306 -13.961  0.00  0.00    +0.000 C 
ATOM     21  C   UNL     1      -1.408 -14.077 -15.531  0.00  0.00    +0.000 C 
ATOM     22  C   UNL     1      -0.282 -17.593 -13.425  0.00  0.00    +0.000 C 
ATOM     23  C   UNL     1       0.950 -18.672 -15.483  0.00  0.00    +0.000 C 
ATOM     24  C   UNL     1       1.053 -17.997 -12.842  0.00  0.00    +0.000 C 
ATOM     25  C   UNL     1      -4.891 -10.032 -16.129  0.00  0.00    +0.000 C 
ATOM     26  C   UNL     1      -7.214 -10.762 -16.830  0.00  0.00    +0.000 C 
ATOM     27  C   UNL     1       1.640 -18.561 -14.100  0.00  0.00    +0.000 C 
ATOM     28  C   UNL     1       0.890 -19.072 -11.751  0.00  0.00    +0.000 C 
ATOM     29  C   UNL     1       1.837 -16.769 -12.345  0.00  0.00    +0.000 C 
ENDROOT
BRANCH  17  30
ATOM     30  O   UNL     1      -7.094  -9.707 -14.005  0.00  0.00    +0.000 OA
ATOM     31  H   UNL     1      -7.936  -9.556 -14.484  0.00  0.00    +0.000 HD
ENDBRANCH  17  30
BRANCH  19  32
ATOM     32  O   UNL     1      -6.835 -11.805 -12.235  0.00  0.00    +0.000 OA
ATOM     33  H   UNL     1      -6.201 -11.426 -11.596  0.00  0.00    +0.000 HD
ENDBRANCH  19  32
BRANCH  14  35
ATOM     34  O   UNL     1      -2.091 -19.732 -17.075  0.00  0.00    +0.000 OA
ATOM     35  C   UNL     1      -1.258 -19.580 -16.192  0.00  0.00    +0.000 C 
BRANCH  35  36
ATOM     36  O   UNL     1      -1.068 -20.565 -15.284  0.00  0.00    +0.000 OA
ATOM     37  H   UNL     1      -1.332 -20.172 -14.423  0.00  0.00    +0.000 HD
ENDBRANCH  35  36
ENDBRANCH  14  35
TORSDOF 4
ENDMDL
MODEL 3
REMARK VINA RESULT:      -6.6      8.759     12.105
REMARK  Name = 73659_MaslinicAcid.pdbqt.pdb
REMARK  4 active torsions:
REMARK  status: ('A' for Active; 'I' for Inactive)
REMARK    1  A    between atoms: C_14  and  C_35
REMARK    2  A    between atoms: C_17  and  O_30
REMARK    3  A    between atoms: C_19  and  O_32
REMARK    4  A    between atoms: C_35  and  O_36
REMARK                            x       y       z     vdW  Elec       q    Type
REMARK                         _______ _______ _______ _____ _____    ______ ____
ROOT
ATOM      1  C   UNL     1      -8.638 -31.699   7.103  0.00  0.00    +0.000 C 
ATOM      2  C   UNL     1      -7.533 -32.835   7.200  0.00  0.00    +0.000 C 
ATOM      3  C   UNL     1      -6.593 -32.998   8.398  0.00  0.00    +0.000 C 
ATOM      4  C   UNL     1      -8.748 -31.060   5.580  0.00  0.00    +0.000 C 
ATOM      5  C   UNL     1      -6.172 -31.725   9.141  0.00  0.00    +0.000 C 
ATOM      6  C   UNL     1      -8.230 -30.683   8.081  0.00  0.00    +0.000 C 
ATOM      7  C   UNL     1      -7.095 -30.649   9.049  0.00  0.00    +0.000 C 
ATOM      8  C   UNL     1      -8.845 -32.213   4.439  0.00  0.00    +0.000 C 
ATOM      9  C   UNL     1      -4.793 -31.634   9.775  0.00  0.00    +0.000 C 
ATOM     10  C   UNL     1      -9.755 -32.176   3.274  0.00  0.00    +0.000 C 
ATOM     11  C   UNL     1      -7.470 -33.631   6.012  0.00  0.00    +0.000 C 
ATOM     12  C   UNL     1      -5.334 -33.582   7.964  0.00  0.00    +0.000 C 
ATOM     13  C   UNL     1      -9.967 -30.259   5.367  0.00  0.00    +0.000 C 
ATOM     14  C   UNL     1     -11.219 -31.412   3.298  0.00  0.00    +0.000 C 
ATOM     15  C   UNL     1     -10.005 -32.359   7.553  0.00  0.00    +0.000 C 
ATOM     16  C   UNL     1     -11.062 -30.389   4.332  0.00  0.00    +0.000 C 
ATOM     17  C   UNL     1      -3.697 -32.630   9.317  0.00  0.00    +0.000 C 
ATOM     18  C   UNL     1      -7.292 -33.929   9.417  0.00  0.00    +0.000 C 
ATOM     19  C   UNL     1      -3.975 -33.540   8.256  0.00  0.00    +0.000 C 
ATOM     20  C   UNL     1      -8.150 -33.279   4.720  0.00  0.00    +0.000 C 
ATOM     21  C   UNL     1      -7.467 -30.202   5.197  0.00  0.00    +0.000 C 
ATOM     22  C   UNL     1      -9.175 -32.335   1.941  0.00  0.00    +0.000 C 
ATOM     23  C   UNL     1     -11.385 -30.909   1.908  0.00  0.00    +0.000 C 
ATOM     24  C   UNL     1      -9.305 -31.953   0.484  0.00  0.00    +0.000 C 
ATOM     25  C   UNL     1      -4.188 -30.224   9.451  0.00  0.00    +0.000 C 
ATOM     26  C   UNL     1      -4.926 -31.769  11.319  0.00  0.00    +0.000 C 
ATOM     27  C   UNL     1     -10.561 -31.147   0.617  0.00  0.00    +0.000 C 
ATOM     28  C   UNL     1      -9.508 -33.192  -0.407  0.00  0.00    +0.000 C 
ATOM     29  C   UNL     1      -8.115 -31.089   0.028  0.00  0.00    +0.000 C 
ENDROOT
BRANCH  17  30
ATOM     30  O   UNL     1      -2.436 -32.713   9.902  0.00  0.00    +0.000 OA
ATOM     31  H   UNL     1      -2.087 -31.823  10.117  0.00  0.00    +0.000 HD
ENDBRANCH  17  30
BRANCH  19  32
ATOM     32  O   UNL     1      -3.108 -34.545   7.955  0.00  0.00    +0.000 OA
ATOM     33  H   UNL     1      -2.346 -34.548   8.567  0.00  0.00    +0.000 HD
ENDBRANCH  19  32
BRANCH  14  35
ATOM     34  O   UNL     1     -12.420 -33.037   4.707  0.00  0.00    +0.000 OA
ATOM     35  C   UNL     1     -12.284 -32.461   3.636  0.00  0.00    +0.000 C 
BRANCH  35  36
ATOM     36  O   UNL     1     -13.085 -32.794   2.599  0.00  0.00    +0.000 OA
ATOM     37  H   UNL     1     -12.567 -32.569   1.795  0.00  0.00    +0.000 HD
ENDBRANCH  35  36
ENDBRANCH  14  35
TORSDOF 4
ENDMDL
MODEL 4
REMARK VINA RESULT:      -6.6      5.095      9.023
REMARK  Name = 73659_MaslinicAcid.pdbqt.pdb
REMARK  4 active torsions:
REMARK  status: ('A' for Active; 'I' for Inactive)
REMARK    1  A    between atoms: C_14  and  C_35
REMARK    2  A    between atoms: C_17  and  O_30
REMARK    3  A    between atoms: C_19  and  O_32
REMARK    4  A    between atoms: C_35  and  O_36
REMARK                            x       y       z     vdW  Elec       q    Type
REMARK                         _______ _______ _______ _____ _____    ______ ____
ROOT
ATOM      1  C   UNL     1      -8.534 -34.208  -2.322  0.00  0.00    +0.000 C 
ATOM      2  C   UNL     1      -7.066 -33.679  -2.621  0.00  0.00    +0.000 C 
ATOM      3  C   UNL     1      -6.203 -34.194  -3.777  0.00  0.00    +0.000 C 
ATOM      4  C   UNL     1      -8.820 -34.380  -0.701  0.00  0.00    +0.000 C 
ATOM      5  C   UNL     1      -6.379 -35.659  -4.190  0.00  0.00    +0.000 C 
ATOM      6  C   UNL     1      -8.627 -35.494  -3.022  0.00  0.00    +0.000 C 
ATOM      7  C   UNL     1      -7.656 -36.211  -3.900  0.00  0.00    +0.000 C 
ATOM      8  C   UNL     1      -8.378 -33.063   0.141  0.00  0.00    +0.000 C 
ATOM      9  C   UNL     1      -5.191 -36.450  -4.717  0.00  0.00    +0.000 C 
ATOM     10  C   UNL     1      -9.164 -32.457   1.238  0.00  0.00    +0.000 C 
ATOM     11  C   UNL     1      -6.623 -32.733  -1.644  0.00  0.00    +0.000 C 
ATOM     12  C   UNL     1      -4.795 -34.095  -3.426  0.00  0.00    +0.000 C 
ATOM     13  C   UNL     1     -10.248 -34.540  -0.371  0.00  0.00    +0.000 C 
ATOM     14  C   UNL     1     -10.811 -32.538   1.317  0.00  0.00    +0.000 C 
ATOM     15  C   UNL     1      -9.530 -33.167  -2.977  0.00  0.00    +0.000 C 
ATOM     16  C   UNL     1     -11.139 -33.740   0.552  0.00  0.00    +0.000 C 
ATOM     17  C   UNL     1      -3.762 -35.915  -4.444  0.00  0.00    +0.000 C 
ATOM     18  C   UNL     1      -6.509 -33.317  -5.014  0.00  0.00    +0.000 C 
ATOM     19  C   UNL     1      -3.590 -34.757  -3.634  0.00  0.00    +0.000 C 
ATOM     20  C   UNL     1      -7.322 -32.470  -0.340  0.00  0.00    +0.000 C 
ATOM     21  C   UNL     1      -7.986 -35.577  -0.071  0.00  0.00    +0.000 C 
ATOM     22  C   UNL     1      -8.504 -32.252   2.526  0.00  0.00    +0.000 C 
ATOM     23  C   UNL     1     -11.100 -32.597   2.775  0.00  0.00    +0.000 C 
ATOM     24  C   UNL     1      -8.706 -32.204   4.024  0.00  0.00    +0.000 C 
ATOM     25  C   UNL     1      -5.203 -37.870  -4.051  0.00  0.00    +0.000 C 
ATOM     26  C   UNL     1      -5.335 -36.628  -6.256  0.00  0.00    +0.000 C 
ATOM     27  C   UNL     1     -10.187 -32.432   4.017  0.00  0.00    +0.000 C 
ATOM     28  C   UNL     1      -8.339 -30.824   4.599  0.00  0.00    +0.000 C 
ATOM     29  C   UNL     1      -7.954 -33.352   4.723  0.00  0.00    +0.000 C 
ENDROOT
BRANCH  17  30
ATOM     30  O   UNL     1      -2.609 -36.492  -4.970  0.00  0.00    +0.000 OA
ATOM     31  H   UNL     1      -2.812 -37.336  -5.426  0.00  0.00    +0.000 HD
ENDBRANCH  17  30
BRANCH  19  32
ATOM     32  O   UNL     1      -2.372 -34.156  -3.527  0.00  0.00    +0.000 OA
ATOM     33  H   UNL     1      -1.799 -34.634  -2.897  0.00  0.00    +0.000 HD
ENDBRANCH  19  32
BRANCH  14  35
ATOM     34  O   UNL     1     -10.730 -30.245   0.416  0.00  0.00    +0.000 OA
ATOM     35  C   UNL     1     -11.369 -31.251   0.696  0.00  0.00    +0.000 C 
BRANCH  35  36
ATOM     36  O   UNL     1     -12.710 -31.254   0.524  0.00  0.00    +0.000 OA
ATOM     37  H   UNL     1     -12.923 -32.156   0.199  0.00  0.00    +0.000 HD
ENDBRANCH  35  36
ENDBRANCH  14  35
TORSDOF 4
ENDMDL
MODEL 5
REMARK VINA RESULT:      -6.6      4.238      6.455
REMARK  Name = 73659_MaslinicAcid.pdbqt.pdb
REMARK  4 active torsions:
REMARK  status: ('A' for Active; 'I' for Inactive)
REMARK    1  A    between atoms: C_14  and  C_35
REMARK    2  A    between atoms: C_17  and  O_30
REMARK    3  A    between atoms: C_19  and  O_32
REMARK    4  A    between atoms: C_35  and  O_36
REMARK                            x       y       z     vdW  Elec       q    Type
REMARK                         _______ _______ _______ _____ _____    ______ ____
ROOT
ATOM      1  C   UNL     1      -7.332 -36.960  -3.791  0.00  0.00    +0.000 C 
ATOM      2  C   UNL     1      -8.606 -36.026  -3.616  0.00  0.00    +0.000 C 
ATOM      3  C   UNL     1      -9.958 -36.531  -3.105  0.00  0.00    +0.000 C 
ATOM      4  C   UNL     1      -6.481 -36.608  -5.166  0.00  0.00    +0.000 C 
ATOM      5  C   UNL     1     -10.348 -37.972  -3.450  0.00  0.00    +0.000 C 
ATOM      6  C   UNL     1      -7.863 -38.328  -3.826  0.00  0.00    +0.000 C 
ATOM      7  C   UNL     1      -9.253 -38.850  -3.673  0.00  0.00    +0.000 C 
ATOM      8  C   UNL     1      -6.193 -35.016  -5.315  0.00  0.00    +0.000 C 
ATOM      9  C   UNL     1     -11.809 -38.333  -3.677  0.00  0.00    +0.000 C 
ATOM     10  C   UNL     1      -4.907 -34.426  -5.749  0.00  0.00    +0.000 C 
ATOM     11  C   UNL     1      -8.361 -34.689  -4.064  0.00  0.00    +0.000 C 
ATOM     12  C   UNL     1     -11.032 -35.732  -3.674  0.00  0.00    +0.000 C 
ATOM     13  C   UNL     1      -5.135 -37.208  -5.192  0.00  0.00    +0.000 C 
ATOM     14  C   UNL     1      -3.447 -35.147  -5.475  0.00  0.00    +0.000 C 
ATOM     15  C   UNL     1      -6.446 -36.761  -2.495  0.00  0.00    +0.000 C 
ATOM     16  C   UNL     1      -3.775 -36.567  -5.360  0.00  0.00    +0.000 C 
ATOM     17  C   UNL     1     -12.819 -37.193  -3.968  0.00  0.00    +0.000 C 
ATOM     18  C   UNL     1      -9.953 -36.401  -1.564  0.00  0.00    +0.000 C 
ATOM     19  C   UNL     1     -12.347 -35.857  -4.108  0.00  0.00    +0.000 C 
ATOM     20  C   UNL     1      -7.159 -34.269  -4.861  0.00  0.00    +0.000 C 
ATOM     21  C   UNL     1      -7.275 -37.012  -6.481  0.00  0.00    +0.000 C 
ATOM     22  C   UNL     1      -4.922 -33.494  -6.875  0.00  0.00    +0.000 C 
ATOM     23  C   UNL     1      -2.629 -34.763  -6.657  0.00  0.00    +0.000 C 
ATOM     24  C   UNL     1      -4.137 -32.971  -8.057  0.00  0.00    +0.000 C 
ATOM     25  C   UNL     1     -11.903 -39.260  -4.939  0.00  0.00    +0.000 C 
ATOM     26  C   UNL     1     -12.340 -39.122  -2.446  0.00  0.00    +0.000 C 
ATOM     27  C   UNL     1      -2.895 -33.777  -7.823  0.00  0.00    +0.000 C 
ATOM     28  C   UNL     1      -3.872 -31.460  -7.935  0.00  0.00    +0.000 C 
ATOM     29  C   UNL     1      -4.819 -33.344  -9.387  0.00  0.00    +0.000 C 
ENDROOT
BRANCH  17  30
ATOM     30  O   UNL     1     -14.193 -37.391  -4.082  0.00  0.00    +0.000 OA
ATOM     31  H   UNL     1     -14.672 -36.536  -4.103  0.00  0.00    +0.000 HD
ENDBRANCH  17  30
BRANCH  19  32
ATOM     32  O   UNL     1     -13.220 -34.813  -4.179  0.00  0.00    +0.000 OA
ATOM     33  H   UNL     1     -13.732 -34.840  -5.010  0.00  0.00    +0.000 HD
ENDBRANCH  19  32
BRANCH  14  35
ATOM     34  O   UNL     1      -2.804 -35.102  -3.097  0.00  0.00    +0.000 OA
ATOM     35  C   UNL     1      -2.869 -34.549  -4.187  0.00  0.00    +0.000 C 
BRANCH  35  36
ATOM     36  O   UNL     1      -2.466 -33.263  -4.304  0.00  0.00    +0.000 OA
ATOM     37  H   UNL     1      -3.277 -32.728  -4.157  0.00  0.00    +0.000 HD
ENDBRANCH  35  36
ENDBRANCH  14  35
TORSDOF 4
ENDMDL
MODEL 6
REMARK VINA RESULT:      -6.4      2.112      8.626
REMARK  Name = 73659_MaslinicAcid.pdbqt.pdb
REMARK  4 active torsions:
REMARK  status: ('A' for Active; 'I' for Inactive)
REMARK    1  A    between atoms: C_14  and  C_35
REMARK    2  A    between atoms: C_17  and  O_30
REMARK    3  A    between atoms: C_19  and  O_32
REMARK    4  A    between atoms: C_35  and  O_36
REMARK                            x       y       z     vdW  Elec       q    Type
REMARK                         _______ _______ _______ _____ _____    ______ ____
ROOT
ATOM      1  C   UNL     1      -2.349 -37.025  -3.690  0.00  0.00    +0.000 C 
ATOM      2  C   UNL     1      -3.333 -37.612  -4.792  0.00  0.00    +0.000 C 
ATOM      3  C   UNL     1      -3.595 -36.930  -6.138  0.00  0.00    +0.000 C 
ATOM      4  C   UNL     1      -2.945 -37.209  -2.157  0.00  0.00    +0.000 C 
ATOM      5  C   UNL     1      -3.544 -35.398  -6.173  0.00  0.00    +0.000 C 
ATOM      6  C   UNL     1      -2.189 -35.608  -4.036  0.00  0.00    +0.000 C 
ATOM      7  C   UNL     1      -2.723 -34.805  -5.176  0.00  0.00    +0.000 C 
ATOM      8  C   UNL     1      -3.464 -38.724  -1.880  0.00  0.00    +0.000 C 
ATOM      9  C   UNL     1      -4.449 -34.628  -7.122  0.00  0.00    +0.000 C 
ATOM     10  C   UNL     1      -3.217 -39.488  -0.638  0.00  0.00    +0.000 C 
ATOM     11  C   UNL     1      -3.995 -38.800  -4.347  0.00  0.00    +0.000 C 
ATOM     12  C   UNL     1      -4.937 -37.246  -6.599  0.00  0.00    +0.000 C 
ATOM     13  C   UNL     1      -1.935 -36.991  -1.106  0.00  0.00    +0.000 C 
ATOM     14  C   UNL     1      -1.882 -39.266   0.307  0.00  0.00    +0.000 C 
ATOM     15  C   UNL     1      -0.970 -37.780  -3.869  0.00  0.00    +0.000 C 
ATOM     16  C   UNL     1      -1.475 -37.891   0.018  0.00  0.00    +0.000 C 
ATOM     17  C   UNL     1      -5.681 -35.350  -7.725  0.00  0.00    +0.000 C 
ATOM     18  C   UNL     1      -2.545 -37.458  -7.142  0.00  0.00    +0.000 C 
ATOM     19  C   UNL     1      -5.989 -36.677  -7.310  0.00  0.00    +0.000 C 
ATOM     20  C   UNL     1      -3.995 -39.289  -2.927  0.00  0.00    +0.000 C 
ATOM     21  C   UNL     1      -4.207 -36.282  -1.891  0.00  0.00    +0.000 C 
ATOM     22  C   UNL     1      -4.370 -40.054   0.062  0.00  0.00    +0.000 C 
ATOM     23  C   UNL     1      -2.372 -39.521   1.688  0.00  0.00    +0.000 C 
ATOM     24  C   UNL     1      -4.930 -40.429   1.415  0.00  0.00    +0.000 C 
ATOM     25  C   UNL     1      -5.061 -33.408  -6.348  0.00  0.00    +0.000 C 
ATOM     26  C   UNL     1      -3.603 -34.082  -8.308  0.00  0.00    +0.000 C 
ATOM     27  C   UNL     1      -3.723 -40.061   2.223  0.00  0.00    +0.000 C 
ATOM     28  C   UNL     1      -5.240 -41.935   1.499  0.00  0.00    +0.000 C 
ATOM     29  C   UNL     1      -6.147 -39.557   1.775  0.00  0.00    +0.000 C 
ENDROOT
BRANCH  17  30
ATOM     30  O   UNL     1      -6.513 -34.783  -8.687  0.00  0.00    +0.000 OA
ATOM     31  H   UNL     1      -6.567 -33.810  -8.579  0.00  0.00    +0.000 HD
ENDBRANCH  17  30
BRANCH  19  32
ATOM     32  O   UNL     1      -6.946 -37.404  -7.950  0.00  0.00    +0.000 OA
ATOM     33  H   UNL     1      -6.550 -38.147  -8.445  0.00  0.00    +0.000 HD
ENDBRANCH  19  32
BRANCH  14  35
ATOM     34  O   UNL     1      -0.817 -41.487   0.227  0.00  0.00    +0.000 OA
ATOM     35  C   UNL     1      -0.840 -40.310  -0.110  0.00  0.00    +0.000 C 
BRANCH  35  36
ATOM     36  O   UNL     1       0.167 -39.819  -0.867  0.00  0.00    +0.000 OA
ATOM     37  H   UNL     1      -0.274 -39.423  -1.651  0.00  0.00    +0.000 HD
ENDBRANCH  35  36
ENDBRANCH  14  35
TORSDOF 4
ENDMDL
MODEL 7
REMARK VINA RESULT:      -6.3     21.100     24.800
REMARK  Name = 73659_MaslinicAcid.pdbqt.pdb
REMARK  4 active torsions:
REMARK  status: ('A' for Active; 'I' for Inactive)
REMARK    1  A    between atoms: C_14  and  C_35
REMARK    2  A    between atoms: C_17  and  O_30
REMARK    3  A    between atoms: C_19  and  O_32
REMARK    4  A    between atoms: C_35  and  O_36
REMARK                            x       y       z     vdW  Elec       q    Type
REMARK                         _______ _______ _______ _____ _____    ______ ____
ROOT
ATOM      1  C   UNL     1      -6.457 -15.119 -16.129  0.00  0.00    +0.000 C 
ATOM      2  C   UNL     1      -6.408 -16.682 -15.851  0.00  0.00    +0.000 C 
ATOM      3  C   UNL     1      -5.189 -17.556 -16.158  0.00  0.00    +0.000 C 
ATOM      4  C   UNL     1      -7.925 -14.633 -16.720  0.00  0.00    +0.000 C 
ATOM      5  C   UNL     1      -4.324 -17.160 -17.361  0.00  0.00    +0.000 C 
ATOM      6  C   UNL     1      -5.382 -14.868 -17.095  0.00  0.00    +0.000 C 
ATOM      7  C   UNL     1      -4.365 -15.780 -17.697  0.00  0.00    +0.000 C 
ATOM      8  C   UNL     1      -9.161 -15.215 -15.841  0.00  0.00    +0.000 C 
ATOM      9  C   UNL     1      -3.626 -18.233 -18.182  0.00  0.00    +0.000 C 
ATOM     10  C   UNL     1     -10.357 -14.439 -15.446  0.00  0.00    +0.000 C 
ATOM     11  C   UNL     1      -7.655 -17.182 -15.357  0.00  0.00    +0.000 C 
ATOM     12  C   UNL     1      -5.616 -18.911 -16.465  0.00  0.00    +0.000 C 
ATOM     13  C   UNL     1      -8.123 -13.173 -16.672  0.00  0.00    +0.000 C 
ATOM     14  C   UNL     1     -10.333 -12.806 -15.203  0.00  0.00    +0.000 C 
ATOM     15  C   UNL     1      -6.123 -14.406 -14.756  0.00  0.00    +0.000 C 
ATOM     16  C   UNL     1      -9.211 -12.349 -16.023  0.00  0.00    +0.000 C 
ATOM     17  C   UNL     1      -4.119 -19.698 -18.064  0.00  0.00    +0.000 C 
ATOM     18  C   UNL     1      -4.282 -17.550 -14.905  0.00  0.00    +0.000 C 
ATOM     19  C   UNL     1      -5.263 -19.991 -17.267  0.00  0.00    +0.000 C 
ATOM     20  C   UNL     1      -8.941 -16.407 -15.362  0.00  0.00    +0.000 C 
ATOM     21  C   UNL     1      -8.179 -15.162 -18.196  0.00  0.00    +0.000 C 
ATOM     22  C   UNL     1     -11.672 -14.984 -15.781  0.00  0.00    +0.000 C 
ATOM     23  C   UNL     1     -11.682 -12.357 -15.639  0.00  0.00    +0.000 C 
ATOM     24  C   UNL     1     -13.097 -14.634 -16.148  0.00  0.00    +0.000 C 
ATOM     25  C   UNL     1      -3.806 -17.891 -19.703  0.00  0.00    +0.000 C 
ATOM     26  C   UNL     1      -2.106 -18.226 -17.853  0.00  0.00    +0.000 C 
ATOM     27  C   UNL     1     -12.951 -13.145 -16.051  0.00  0.00    +0.000 C 
ATOM     28  C   UNL     1     -14.096 -15.182 -15.114  0.00  0.00    +0.000 C 
ATOM     29  C   UNL     1     -13.428 -15.083 -17.583  0.00  0.00    +0.000 C 
ENDROOT
BRANCH  17  30
ATOM     30  O   UNL     1      -3.489 -20.777 -18.680  0.00  0.00    +0.000 OA
ATOM     31  H   UNL     1      -3.270 -21.477 -18.030  0.00  0.00    +0.000 HD
ENDBRANCH  17  30
BRANCH  19  32
ATOM     32  O   UNL     1      -5.610 -21.279 -16.992  0.00  0.00    +0.000 OA
ATOM     33  H   UNL     1      -6.554 -21.344 -16.751  0.00  0.00    +0.000 HD
ENDBRANCH  19  32
BRANCH  14  35
ATOM     34  O   UNL     1      -9.567 -13.315 -12.917  0.00  0.00    +0.000 OA
ATOM     35  C   UNL     1     -10.129 -12.563 -13.703  0.00  0.00    +0.000 C 
BRANCH  35  36
ATOM     36  O   UNL     1     -10.701 -11.428 -13.242  0.00  0.00    +0.000 OA
ATOM     37  H   UNL     1     -10.922 -11.617 -12.304  0.00  0.00    +0.000 HD
ENDBRANCH  35  36
ENDBRANCH  14  35
TORSDOF 4
ENDMDL
MODEL 8
REMARK VINA RESULT:      -6.2      2.869      5.017
REMARK  Name = 73659_MaslinicAcid.pdbqt.pdb
REMARK  4 active torsions:
REMARK  status: ('A' for Active; 'I' for Inactive)
REMARK    1  A    between atoms: C_14  and  C_35
REMARK    2  A    between atoms: C_17  and  O_30
REMARK    3  A    between atoms: C_19  and  O_32
REMARK    4  A    between atoms: C_35  and  O_36
REMARK                            x       y       z     vdW  Elec       q    Type
REMARK                         _______ _______ _______ _____ _____    ______ ____
ROOT
ATOM      1  C   UNL     1      -2.698 -38.722  -1.844  0.00  0.00    +0.000 C 
ATOM      2  C   UNL     1      -3.098 -38.588  -0.313  0.00  0.00    +0.000 C 
ATOM      3  C   UNL     1      -2.742 -39.635   0.747  0.00  0.00    +0.000 C 
ATOM      4  C   UNL     1      -3.907 -38.214  -2.854  0.00  0.00    +0.000 C 
ATOM      5  C   UNL     1      -2.679 -41.099   0.297  0.00  0.00    +0.000 C 
ATOM      6  C   UNL     1      -2.401 -40.145  -2.039  0.00  0.00    +0.000 C 
ATOM      7  C   UNL     1      -2.378 -41.288  -1.078  0.00  0.00    +0.000 C 
ATOM      8  C   UNL     1      -4.497 -36.763  -2.421  0.00  0.00    +0.000 C 
ATOM      9  C   UNL     1      -3.073 -42.209   1.260  0.00  0.00    +0.000 C 
ATOM     10  C   UNL     1      -4.822 -35.668  -3.361  0.00  0.00    +0.000 C 
ATOM     11  C   UNL     1      -3.890 -37.423  -0.061  0.00  0.00    +0.000 C 
ATOM     12  C   UNL     1      -3.746 -39.635   1.799  0.00  0.00    +0.000 C 
ATOM     13  C   UNL     1      -3.461 -38.006  -4.244  0.00  0.00    +0.000 C 
ATOM     14  C   UNL     1      -4.038 -35.449  -4.797  0.00  0.00    +0.000 C 
ATOM     15  C   UNL     1      -1.382 -37.866  -2.043  0.00  0.00    +0.000 C 
ATOM     16  C   UNL     1      -3.542 -36.784  -5.131  0.00  0.00    +0.000 C 
ATOM     17  C   UNL     1      -3.916 -41.845   2.509  0.00  0.00    +0.000 C 
ATOM     18  C   UNL     1      -1.358 -39.260   1.327  0.00  0.00    +0.000 C 
ATOM     19  C   UNL     1      -4.377 -40.508   2.679  0.00  0.00    +0.000 C 
ATOM     20  C   UNL     1      -4.515 -36.576  -1.132  0.00  0.00    +0.000 C 
ATOM     21  C   UNL     1      -5.157 -39.195  -2.831  0.00  0.00    +0.000 C 
ATOM     22  C   UNL     1      -6.166 -35.094  -3.309  0.00  0.00    +0.000 C 
ATOM     23  C   UNL     1      -5.084 -34.900  -5.699  0.00  0.00    +0.000 C 
ATOM     24  C   UNL     1      -7.264 -34.446  -4.122  0.00  0.00    +0.000 C 
ATOM     25  C   UNL     1      -3.962 -43.245   0.487  0.00  0.00    +0.000 C 
ATOM     26  C   UNL     1      -1.792 -42.935   1.759  0.00  0.00    +0.000 C 
ATOM     27  C   UNL     1      -6.534 -34.421  -5.430  0.00  0.00    +0.000 C 
ATOM     28  C   UNL     1      -7.582 -33.029  -3.613  0.00  0.00    +0.000 C 
ATOM     29  C   UNL     1      -8.514 -35.344  -4.182  0.00  0.00    +0.000 C 
ENDROOT
BRANCH  17  30
ATOM     30  O   UNL     1      -4.240 -42.754   3.513  0.00  0.00    +0.000 OA
ATOM     31  H   UNL     1      -3.731 -43.585   3.414  0.00  0.00    +0.000 HD
ENDBRANCH  17  30
BRANCH  19  32
ATOM     32  O   UNL     1      -4.957 -40.113   3.846  0.00  0.00    +0.000 OA
ATOM     33  H   UNL     1      -5.826 -40.543   3.970  0.00  0.00    +0.000 HD
ENDBRANCH  19  32
BRANCH  14  35
ATOM     34  O   UNL     1      -2.458 -34.091  -3.480  0.00  0.00    +0.000 OA
ATOM     35  C   UNL     1      -2.919 -34.426  -4.563  0.00  0.00    +0.000 C 
BRANCH  35  36
ATOM     36  O   UNL     1      -2.481 -33.816  -5.688  0.00  0.00    +0.000 OA
ATOM     37  H   UNL     1      -3.271 -33.756  -6.269  0.00  0.00    +0.000 HD
ENDBRANCH  35  36
ENDBRANCH  14  35
TORSDOF 4
ENDMDL
MODEL 9
REMARK VINA RESULT:      -6.1      2.731      4.038
REMARK  Name = 73659_MaslinicAcid.pdbqt.pdb
REMARK  4 active torsions:
REMARK  status: ('A' for Active; 'I' for Inactive)
REMARK    1  A    between atoms: C_14  and  C_35
REMARK    2  A    between atoms: C_17  and  O_30
REMARK    3  A    between atoms: C_19  and  O_32
REMARK    4  A    between atoms: C_35  and  O_36
REMARK                            x       y       z     vdW  Elec       q    Type
REMARK                         _______ _______ _______ _____ _____    ______ ____
ROOT
ATOM      1  C   UNL     1      -3.615 -36.902  -2.616  0.00  0.00    +0.000 C 
ATOM      2  C   UNL     1      -4.170 -38.390  -2.661  0.00  0.00    +0.000 C 
ATOM      3  C   UNL     1      -4.233 -39.305  -1.434  0.00  0.00    +0.000 C 
ATOM      4  C   UNL     1      -2.708 -36.531  -3.949  0.00  0.00    +0.000 C 
ATOM      5  C   UNL     1      -3.144 -39.131  -0.370  0.00  0.00    +0.000 C 
ATOM      6  C   UNL     1      -2.817 -36.828  -1.387  0.00  0.00    +0.000 C 
ATOM      7  C   UNL     1      -2.567 -37.834  -0.312  0.00  0.00    +0.000 C 
ATOM      8  C   UNL     1      -3.453 -36.946  -5.332  0.00  0.00    +0.000 C 
ATOM      9  C   UNL     1      -2.655 -40.334   0.423  0.00  0.00    +0.000 C 
ATOM     10  C   UNL     1      -3.496 -36.113  -6.553  0.00  0.00    +0.000 C 
ATOM     11  C   UNL     1      -4.525 -38.795  -3.987  0.00  0.00    +0.000 C 
ATOM     12  C   UNL     1      -4.103 -40.694  -1.845  0.00  0.00    +0.000 C 
ATOM     13  C   UNL     1      -2.462 -35.086  -4.108  0.00  0.00    +0.000 C 
ATOM     14  C   UNL     1      -3.447 -34.463  -6.520  0.00  0.00    +0.000 C 
ATOM     15  C   UNL     1      -4.877 -35.955  -2.494  0.00  0.00    +0.000 C 
ATOM     16  C   UNL     1      -2.761 -34.159  -5.264  0.00  0.00    +0.000 C 
ATOM     17  C   UNL     1      -2.945 -41.754  -0.126  0.00  0.00    +0.000 C 
ATOM     18  C   UNL     1      -5.601 -39.074  -0.750  0.00  0.00    +0.000 C 
ATOM     19  C   UNL     1      -3.576 -41.900  -1.395  0.00  0.00    +0.000 C 
ATOM     20  C   UNL     1      -4.165 -38.033  -5.230  0.00  0.00    +0.000 C 
ATOM     21  C   UNL     1      -1.326 -37.316  -3.969  0.00  0.00    +0.000 C 
ATOM     22  C   UNL     1      -3.044 -36.708  -7.809  0.00  0.00    +0.000 C 
ATOM     23  C   UNL     1      -2.716 -34.099  -7.763  0.00  0.00    +0.000 C 
ATOM     24  C   UNL     1      -2.384 -36.430  -9.141  0.00  0.00    +0.000 C 
ATOM     25  C   UNL     1      -1.090 -40.270   0.511  0.00  0.00    +0.000 C 
ATOM     26  C   UNL     1      -3.231 -40.267   1.866  0.00  0.00    +0.000 C 
ATOM     27  C   UNL     1      -2.241 -34.949  -8.969  0.00  0.00    +0.000 C 
ATOM     28  C   UNL     1      -3.314 -36.785 -10.316  0.00  0.00    +0.000 C 
ATOM     29  C   UNL     1      -1.017 -37.130  -9.241  0.00  0.00    +0.000 C 
ENDROOT
BRANCH  17  30
ATOM     30  O   UNL     1      -2.645 -42.925   0.565  0.00  0.00    +0.000 OA
ATOM     31  H   UNL     1      -2.489 -42.744   1.515  0.00  0.00    +0.000 HD
ENDBRANCH  17  30
BRANCH  19  32
ATOM     32  O   UNL     1      -4.011 -43.118  -1.822  0.00  0.00    +0.000 OA
ATOM     33  H   UNL     1      -3.304 -43.595  -2.299  0.00  0.00    +0.000 HD
ENDBRANCH  19  32
BRANCH  14  35
ATOM     34  O   UNL     1      -5.893 -34.631  -6.759  0.00  0.00    +0.000 OA
ATOM     35  C   UNL     1      -4.893 -33.955  -6.562  0.00  0.00    +0.000 C 
BRANCH  35  36
ATOM     36  O   UNL     1      -5.014 -32.614  -6.431  0.00  0.00    +0.000 OA
ATOM     37  H   UNL     1      -5.103 -32.275  -7.349  0.00  0.00    +0.000 HD
ENDBRANCH  35  36
ENDBRANCH  14  35
TORSDOF 4
ENDMDL
