REMARK  Name = 73659_MaslinicAcid.pdbqt.pdb
REMARK  4 active torsions:
REMARK  status: ('A' for Active; 'I' for Inactive)
REMARK    1  A    between atoms: C_14  and  C_35
REMARK    2  A    between atoms: C_17  and  O_30
REMARK    3  A    between atoms: C_19  and  O_32
REMARK    4  A    between atoms: C_35  and  O_36
REMARK                            x       y       z     vdW  Elec       q    Type
REMARK                         _______ _______ _______ _____ _____    ______ ____
ROOT
ATOM      1  C   UNL     1       0.552   1.365   0.135  0.00  0.00    +0.000 C 
ATOM      2  C   UNL     1       1.397   0.195   0.799  0.00  0.00    +0.000 C 
ATOM      3  C   UNL     1       2.927   0.194   0.869  0.00  0.00    +0.000 C 
ATOM      4  C   UNL     1      -0.737   0.793  -0.731  0.00  0.00    +0.000 C 
ATOM      5  C   UNL     1       3.685   0.867  -0.281  0.00  0.00    +0.000 C 
ATOM      6  C   UNL     1       1.500   2.081  -0.726  0.00  0.00    +0.000 C 
ATOM      7  C   UNL     1       2.963   1.889  -0.954  0.00  0.00    +0.000 C 
ATOM      8  C   UNL     1      -1.606  -0.292   0.110  0.00  0.00    +0.000 C 
ATOM      9  C   UNL     1       5.039   0.329  -0.718  0.00  0.00    +0.000 C 
ATOM     10  C   UNL     1      -3.084  -0.343   0.151  0.00  0.00    +0.000 C 
ATOM     11  C   UNL     1       0.569  -0.882   1.248  0.00  0.00    +0.000 C 
ATOM     12  C   UNL     1       3.422  -1.173   0.862  0.00  0.00    +0.000 C 
ATOM     13  C   UNL     1      -1.722   1.835  -1.074  0.00  0.00    +0.000 C 
ATOM     14  C   UNL     1      -4.037   0.994  -0.021  0.00  0.00    +0.000 C 
ATOM     15  C   UNL     1       0.082   2.308   1.316  0.00  0.00    +0.000 C 
ATOM     16  C   UNL     1      -3.204   1.920  -0.788  0.00  0.00    +0.000 C 
ATOM     17  C   UNL     1       5.439  -1.108  -0.297  0.00  0.00    +0.000 C 
ATOM     18  C   UNL     1       3.335   0.905   2.181  0.00  0.00    +0.000 C 
ATOM     19  C   UNL     1       4.502  -1.920   0.404  0.00  0.00    +0.000 C 
ATOM     20  C   UNL     1      -0.882  -1.040   0.894  0.00  0.00    +0.000 C 
ATOM     21  C   UNL     1      -0.281   0.030  -2.048  0.00  0.00    +0.000 C 
ATOM     22  C   UNL     1      -3.739  -1.604  -0.193  0.00  0.00    +0.000 C 
ATOM     23  C   UNL     1      -5.250   0.485  -0.715  0.00  0.00    +0.000 C 
ATOM     24  C   UNL     1      -4.973  -2.228  -0.805  0.00  0.00    +0.000 C 
ATOM     25  C   UNL     1       5.078   0.294  -2.286  0.00  0.00    +0.000 C 
ATOM     26  C   UNL     1       6.158   1.288  -0.220  0.00  0.00    +0.000 C 
ATOM     27  C   UNL     1      -5.714  -0.952  -1.066  0.00  0.00    +0.000 C 
ATOM     28  C   UNL     1      -5.711  -3.125   0.205  0.00  0.00    +0.000 C 
ATOM     29  C   UNL     1      -4.632  -2.969  -2.111  0.00  0.00    +0.000 C 
ENDROOT
BRANCH  17  30
ATOM     30  O   UNL     1       6.692  -1.664  -0.544  0.00  0.00    +0.000 OA
ATOM     31  H   UNL     1       7.279  -1.024  -0.998  0.00  0.00    +0.000 HD
ENDBRANCH  17  30
BRANCH  19  32
ATOM     32  O   UNL     1       4.880  -3.110   0.948  0.00  0.00    +0.000 OA
ATOM     33  H   UNL     1       5.770  -3.370   0.640  0.00  0.00    +0.000 HD
ENDBRANCH  19  32
BRANCH  14  35
ATOM     34  O   UNL     1      -4.464   0.827   2.400  0.00  0.00    +0.000 OA
ATOM     35  C   UNL     1      -4.379   1.504   1.384  0.00  0.00    +0.000 C 
BRANCH  35  36
ATOM     36  O   UNL     1      -4.671   2.823   1.440  0.00  0.00    +0.000 OA
ATOM     37  H   UNL     1      -4.889   2.996   2.382  0.00  0.00    +0.000 HD
ENDBRANCH  35  36
ENDBRANCH  14  35
TORSDOF 4
