MODEL 1
REMARK VINA RESULT:      -3.9      0.000      0.000
REMARK  Name = 76617_Cardol.pdbqt.pdb
REMARK  10 active torsions:
REMARK  status: ('A' for Active; 'I' for Inactive)
REMARK    1  A    between atoms: C_1  and  C_2
REMARK    2  A    between atoms: C_3  and  C_4
REMARK    3  A    between atoms: C_5  and  C_6
REMARK    4  A    between atoms: C_7  and  C_8
REMARK    5  A    between atoms: C_8  and  C_9
REMARK    6  A    between atoms: C_10  and  C_11
REMARK    7  A    between atoms: C_14  and  C_15
REMARK    8  A    between atoms: C_15  and  C_16
REMARK    9  A    between atoms: C_19  and  O_24
REMARK   10  A    between atoms: C_20  and  O_22
REMARK                            x       y       z     vdW  Elec       q    Type
REMARK                         _______ _______ _______ _____ _____    ______ ____
ROOT
ATOM      1  C   UNL     1      -9.740 -16.449   1.851  0.00  0.00    +0.000 C 
ATOM      2  C   UNL     1     -10.850 -16.034   2.041  0.00  0.00    +0.000 C 
ENDROOT
BRANCH   1   3
ATOM      3  C   UNL     1      -8.323 -16.977   1.609  0.00  0.00    +0.000 C 
ATOM      4  C   UNL     1      -6.905 -17.506   1.367  0.00  0.00    +0.000 C 
BRANCH   4   5
ATOM      5  C   UNL     1      -5.489 -18.036   1.126  0.00  0.00    +0.000 C 
ATOM      6  C   UNL     1      -4.073 -18.566   0.884  0.00  0.00    +0.000 C 
BRANCH   6   7
ATOM      7  C   UNL     1      -2.656 -19.097   0.641  0.00  0.00    +0.000 C 
ATOM      8  C   UNL     1      -1.241 -19.627   0.398  0.00  0.00    +0.000 C 
BRANCH   8   9
ATOM      9  C   UNL     1       0.175 -20.158   0.155  0.00  0.00    +0.000 C 
BRANCH   9  10
ATOM     10  C   UNL     1       1.591 -20.690  -0.088  0.00  0.00    +0.000 C 
ATOM     11  C   UNL     1       3.006 -21.221  -0.333  0.00  0.00    +0.000 C 
BRANCH  11  12
ATOM     12  C   UNL     1       4.422 -21.752  -0.577  0.00  0.00    +0.000 C 
ATOM     13  C   UNL     1       5.837 -22.285  -0.822  0.00  0.00    +0.000 C 
ATOM     14  C   UNL     1       7.253 -22.816  -1.067  0.00  0.00    +0.000 C 
ENDBRANCH  11  12
ENDBRANCH   9  10
ENDBRANCH   8   9
ENDBRANCH   6   7
ENDBRANCH   4   5
ENDBRANCH   1   3
BRANCH   2  15
ATOM     15  C   UNL     1     -12.268 -15.506   2.284  0.00  0.00    +0.000 C 
BRANCH  15  16
ATOM     16  C   UNL     1     -13.585 -15.014   2.510  0.00  0.00    +0.000 A 
ATOM     17  C   UNL     1     -14.485 -14.927   1.449  0.00  0.00    +0.000 A 
ATOM     18  C   UNL     1     -13.969 -14.624   3.791  0.00  0.00    +0.000 A 
ATOM     19  C   UNL     1     -15.260 -14.145   4.002  0.00  0.00    +0.000 A 
ATOM     20  C   UNL     1     -15.771 -14.445   1.680  0.00  0.00    +0.000 A 
ATOM     21  C   UNL     1     -16.169 -14.051   2.953  0.00  0.00    +0.000 A 
BRANCH  20  22
ATOM     22  O   UNL     1     -16.670 -14.350   0.658  0.00  0.00    +0.000 OA
ATOM     23  H   UNL     1     -17.503 -14.766   0.941  0.00  0.00    +0.000 HD
ENDBRANCH  20  22
BRANCH  19  24
ATOM     24  O   UNL     1     -15.662 -13.754   5.247  0.00  0.00    +0.000 OA
ATOM     25  H   UNL     1     -15.525 -14.498   5.860  0.00  0.00    +0.000 HD
ENDBRANCH  19  24
ENDBRANCH  15  16
ENDBRANCH   2  15
TORSDOF 10
ENDMDL
MODEL 2
REMARK VINA RESULT:      -3.8      7.043     17.298
REMARK  Name = 76617_Cardol.pdbqt.pdb
REMARK  10 active torsions:
REMARK  status: ('A' for Active; 'I' for Inactive)
REMARK    1  A    between atoms: C_1  and  C_2
REMARK    2  A    between atoms: C_3  and  C_4
REMARK    3  A    between atoms: C_5  and  C_6
REMARK    4  A    between atoms: C_7  and  C_8
REMARK    5  A    between atoms: C_8  and  C_9
REMARK    6  A    between atoms: C_10  and  C_11
REMARK    7  A    between atoms: C_14  and  C_15
REMARK    8  A    between atoms: C_15  and  C_16
REMARK    9  A    between atoms: C_19  and  O_24
REMARK   10  A    between atoms: C_20  and  O_22
REMARK                            x       y       z     vdW  Elec       q    Type
REMARK                         _______ _______ _______ _____ _____    ______ ____
ROOT
ATOM      1  C   UNL     1      -0.670 -19.892   0.341  0.00  0.00    +0.000 C 
ATOM      2  C   UNL     1       0.440 -20.319   0.184  0.00  0.00    +0.000 C 
ENDROOT
BRANCH   1   3
ATOM      3  C   UNL     1      -2.087 -19.347   0.541  0.00  0.00    +0.000 C 
ATOM      4  C   UNL     1      -3.505 -18.801   0.740  0.00  0.00    +0.000 C 
BRANCH   4   5
ATOM      5  C   UNL     1      -4.922 -18.257   0.938  0.00  0.00    +0.000 C 
ATOM      6  C   UNL     1      -6.340 -17.713   1.137  0.00  0.00    +0.000 C 
BRANCH   6   7
ATOM      7  C   UNL     1      -7.758 -17.168   1.336  0.00  0.00    +0.000 C 
ATOM      8  C   UNL     1      -9.175 -16.623   1.534  0.00  0.00    +0.000 C 
BRANCH   8   9
ATOM      9  C   UNL     1     -10.592 -16.079   1.732  0.00  0.00    +0.000 C 
BRANCH   9  10
ATOM     10  C   UNL     1     -12.010 -15.533   1.930  0.00  0.00    +0.000 C 
ATOM     11  C   UNL     1     -13.427 -14.986   2.128  0.00  0.00    +0.000 C 
BRANCH  11  12
ATOM     12  C   UNL     1     -14.845 -14.441   2.326  0.00  0.00    +0.000 C 
ATOM     13  C   UNL     1     -16.262 -13.896   2.523  0.00  0.00    +0.000 C 
ATOM     14  C   UNL     1     -17.680 -13.350   2.721  0.00  0.00    +0.000 C 
ENDBRANCH  11  12
ENDBRANCH   9  10
ENDBRANCH   8   9
ENDBRANCH   6   7
ENDBRANCH   4   5
ENDBRANCH   1   3
BRANCH   2  15
ATOM     15  C   UNL     1       1.859 -20.864  -0.015  0.00  0.00    +0.000 C 
BRANCH  15  16
ATOM     16  C   UNL     1       3.178 -21.369  -0.201  0.00  0.00    +0.000 A 
ATOM     17  C   UNL     1       3.978 -21.644   0.906  0.00  0.00    +0.000 A 
ATOM     18  C   UNL     1       3.661 -21.585  -1.490  0.00  0.00    +0.000 A 
ATOM     19  C   UNL     1       4.952 -22.080  -1.661  0.00  0.00    +0.000 A 
ATOM     20  C   UNL     1       5.265 -22.139   0.713  0.00  0.00    +0.000 A 
ATOM     21  C   UNL     1       5.764 -22.360  -0.566  0.00  0.00    +0.000 A 
BRANCH  20  22
ATOM     22  O   UNL     1       6.069 -22.417   1.781  0.00  0.00    +0.000 OA
ATOM     23  H   UNL     1       5.650 -23.121   2.306  0.00  0.00    +0.000 HD
ENDBRANCH  20  22
BRANCH  19  24
ATOM     24  O   UNL     1       5.451 -22.300  -2.913  0.00  0.00    +0.000 OA
ATOM     25  H   UNL     1       4.725 -22.202  -3.554  0.00  0.00    +0.000 HD
ENDBRANCH  19  24
ENDBRANCH  15  16
ENDBRANCH   2  15
TORSDOF 10
ENDMDL
MODEL 3
REMARK VINA RESULT:      -3.8     18.709     24.416
REMARK  Name = 76617_Cardol.pdbqt.pdb
REMARK  10 active torsions:
REMARK  status: ('A' for Active; 'I' for Inactive)
REMARK    1  A    between atoms: C_1  and  C_2
REMARK    2  A    between atoms: C_3  and  C_4
REMARK    3  A    between atoms: C_5  and  C_6
REMARK    4  A    between atoms: C_7  and  C_8
REMARK    5  A    between atoms: C_8  and  C_9
REMARK    6  A    between atoms: C_10  and  C_11
REMARK    7  A    between atoms: C_14  and  C_15
REMARK    8  A    between atoms: C_15  and  C_16
REMARK    9  A    between atoms: C_19  and  O_24
REMARK   10  A    between atoms: C_20  and  O_22
REMARK                            x       y       z     vdW  Elec       q    Type
REMARK                         _______ _______ _______ _____ _____    ______ ____
ROOT
ATOM      1  C   UNL     1       3.062 -37.673   7.399  0.00  0.00    +0.000 C 
ATOM      2  C   UNL     1       2.928 -38.547   8.210  0.00  0.00    +0.000 C 
ENDROOT
BRANCH   1   3
ATOM      3  C   UNL     1       3.232 -36.557   6.365  0.00  0.00    +0.000 C 
ATOM      4  C   UNL     1       3.402 -35.441   5.329  0.00  0.00    +0.000 C 
BRANCH   4   5
ATOM      5  C   UNL     1       3.571 -34.325   4.294  0.00  0.00    +0.000 C 
ATOM      6  C   UNL     1       3.738 -33.209   3.259  0.00  0.00    +0.000 C 
BRANCH   6   7
ATOM      7  C   UNL     1       3.906 -32.092   2.223  0.00  0.00    +0.000 C 
ATOM      8  C   UNL     1       4.073 -30.976   1.188  0.00  0.00    +0.000 C 
BRANCH   8   9
ATOM      9  C   UNL     1       4.240 -29.860   0.154  0.00  0.00    +0.000 C 
BRANCH   9  10
ATOM     10  C   UNL     1       4.406 -28.743  -0.882  0.00  0.00    +0.000 C 
ATOM     11  C   UNL     1       4.572 -27.626  -1.916  0.00  0.00    +0.000 C 
BRANCH  11  12
ATOM     12  C   UNL     1       4.737 -26.508  -2.951  0.00  0.00    +0.000 C 
ATOM     13  C   UNL     1       4.901 -25.391  -3.985  0.00  0.00    +0.000 C 
ATOM     14  C   UNL     1       5.067 -24.273  -5.019  0.00  0.00    +0.000 C 
ENDBRANCH  11  12
ENDBRANCH   9  10
ENDBRANCH   8   9
ENDBRANCH   6   7
ENDBRANCH   4   5
ENDBRANCH   1   3
BRANCH   2  15
ATOM     15  C   UNL     1       2.758 -39.665   9.245  0.00  0.00    +0.000 C 
BRANCH  15  16
ATOM     16  C   UNL     1       2.601 -40.705  10.205  0.00  0.00    +0.000 A 
ATOM     17  C   UNL     1       2.993 -42.005   9.893  0.00  0.00    +0.000 A 
ATOM     18  C   UNL     1       2.055 -40.416  11.455  0.00  0.00    +0.000 A 
ATOM     19  C   UNL     1       1.905 -41.440  12.388  0.00  0.00    +0.000 A 
ATOM     20  C   UNL     1       2.836 -43.013  10.840  0.00  0.00    +0.000 A 
ATOM     21  C   UNL     1       2.292 -42.743  12.091  0.00  0.00    +0.000 A 
BRANCH  20  22
ATOM     22  O   UNL     1       3.213 -44.295  10.557  0.00  0.00    +0.000 OA
ATOM     23  H   UNL     1       2.559 -44.901  10.947  0.00  0.00    +0.000 HD
ENDBRANCH  20  22
BRANCH  19  24
ATOM     24  O   UNL     1       1.373 -41.185  13.619  0.00  0.00    +0.000 OA
ATOM     25  H   UNL     1       0.752 -40.440  13.536  0.00  0.00    +0.000 HD
ENDBRANCH  19  24
ENDBRANCH  15  16
ENDBRANCH   2  15
TORSDOF 10
ENDMDL
MODEL 4
REMARK VINA RESULT:      -3.8     21.042     24.335
REMARK  Name = 76617_Cardol.pdbqt.pdb
REMARK  10 active torsions:
REMARK  status: ('A' for Active; 'I' for Inactive)
REMARK    1  A    between atoms: C_1  and  C_2
REMARK    2  A    between atoms: C_3  and  C_4
REMARK    3  A    between atoms: C_5  and  C_6
REMARK    4  A    between atoms: C_7  and  C_8
REMARK    5  A    between atoms: C_8  and  C_9
REMARK    6  A    between atoms: C_10  and  C_11
REMARK    7  A    between atoms: C_14  and  C_15
REMARK    8  A    between atoms: C_15  and  C_16
REMARK    9  A    between atoms: C_19  and  O_24
REMARK   10  A    between atoms: C_20  and  O_22
REMARK                            x       y       z     vdW  Elec       q    Type
REMARK                         _______ _______ _______ _____ _____    ______ ____
ROOT
ATOM      1  C   UNL     1      -4.014 -36.416  -3.410  0.00  0.00    +0.000 C 
ATOM      2  C   UNL     1      -3.796 -35.764  -4.394  0.00  0.00    +0.000 C 
ENDROOT
BRANCH   1   3
ATOM      3  C   UNL     1      -4.291 -37.248  -2.155  0.00  0.00    +0.000 C 
ATOM      4  C   UNL     1      -4.569 -38.082  -0.900  0.00  0.00    +0.000 C 
BRANCH   4   5
ATOM      5  C   UNL     1      -4.848 -38.915   0.354  0.00  0.00    +0.000 C 
ATOM      6  C   UNL     1      -5.126 -39.749   1.608  0.00  0.00    +0.000 C 
BRANCH   6   7
ATOM      7  C   UNL     1      -5.406 -40.582   2.863  0.00  0.00    +0.000 C 
ATOM      8  C   UNL     1      -5.685 -41.416   4.117  0.00  0.00    +0.000 C 
BRANCH   8   9
ATOM      9  C   UNL     1      -5.965 -42.249   5.370  0.00  0.00    +0.000 C 
BRANCH   9  10
ATOM     10  C   UNL     1      -6.243 -43.084   6.625  0.00  0.00    +0.000 C 
ATOM     11  C   UNL     1      -6.523 -43.917   7.879  0.00  0.00    +0.000 C 
BRANCH  11  12
ATOM     12  C   UNL     1      -6.801 -44.750   9.134  0.00  0.00    +0.000 C 
ATOM     13  C   UNL     1      -7.079 -45.584  10.388  0.00  0.00    +0.000 C 
ATOM     14  C   UNL     1      -7.357 -46.418  11.643  0.00  0.00    +0.000 C 
ENDBRANCH  11  12
ENDBRANCH   9  10
ENDBRANCH   8   9
ENDBRANCH   6   7
ENDBRANCH   4   5
ENDBRANCH   1   3
BRANCH   2  15
ATOM     15  C   UNL     1      -3.519 -34.930  -5.649  0.00  0.00    +0.000 C 
BRANCH  15  16
ATOM     16  C   UNL     1      -3.261 -34.156  -6.816  0.00  0.00    +0.000 A 
ATOM     17  C   UNL     1      -3.640 -32.815  -6.858  0.00  0.00    +0.000 A 
ATOM     18  C   UNL     1      -2.630 -34.742  -7.912  0.00  0.00    +0.000 A 
ATOM     19  C   UNL     1      -2.381 -33.977  -9.048  0.00  0.00    +0.000 A 
ATOM     20  C   UNL     1      -3.382 -32.067  -8.004  0.00  0.00    +0.000 A 
ATOM     21  C   UNL     1      -2.754 -32.637  -9.106  0.00  0.00    +0.000 A 
BRANCH  20  22
ATOM     22  O   UNL     1      -3.743 -30.752  -8.069  0.00  0.00    +0.000 OA
ATOM     23  H   UNL     1      -4.242 -30.530  -7.264  0.00  0.00    +0.000 HD
ENDBRANCH  20  22
BRANCH  19  24
ATOM     24  O   UNL     1      -1.765 -34.527 -10.136  0.00  0.00    +0.000 OA
ATOM     25  H   UNL     1      -2.447 -34.756 -10.791  0.00  0.00    +0.000 HD
ENDBRANCH  19  24
ENDBRANCH  15  16
ENDBRANCH   2  15
TORSDOF 10
ENDMDL
MODEL 5
REMARK VINA RESULT:      -3.7     18.456     23.321
REMARK  Name = 76617_Cardol.pdbqt.pdb
REMARK  10 active torsions:
REMARK  status: ('A' for Active; 'I' for Inactive)
REMARK    1  A    between atoms: C_1  and  C_2
REMARK    2  A    between atoms: C_3  and  C_4
REMARK    3  A    between atoms: C_5  and  C_6
REMARK    4  A    between atoms: C_7  and  C_8
REMARK    5  A    between atoms: C_8  and  C_9
REMARK    6  A    between atoms: C_10  and  C_11
REMARK    7  A    between atoms: C_14  and  C_15
REMARK    8  A    between atoms: C_15  and  C_16
REMARK    9  A    between atoms: C_19  and  O_24
REMARK   10  A    between atoms: C_20  and  O_22
REMARK                            x       y       z     vdW  Elec       q    Type
REMARK                         _______ _______ _______ _____ _____    ______ ____
ROOT
ATOM      1  C   UNL     1      -2.747 -17.345 -14.415  0.00  0.00    +0.000 C 
ATOM      2  C   UNL     1      -1.692 -17.324 -13.844  0.00  0.00    +0.000 C 
ENDROOT
BRANCH   1   3
ATOM      3  C   UNL     1      -4.093 -17.371 -15.145  0.00  0.00    +0.000 C 
ATOM      4  C   UNL     1      -5.440 -17.396 -15.874  0.00  0.00    +0.000 C 
BRANCH   4   5
ATOM      5  C   UNL     1      -6.785 -17.420 -16.605  0.00  0.00    +0.000 C 
ATOM      6  C   UNL     1      -8.131 -17.444 -17.336  0.00  0.00    +0.000 C 
BRANCH   6   7
ATOM      7  C   UNL     1      -9.477 -17.468 -18.068  0.00  0.00    +0.000 C 
ATOM      8  C   UNL     1     -10.822 -17.493 -18.799  0.00  0.00    +0.000 C 
BRANCH   8   9
ATOM      9  C   UNL     1     -12.167 -17.517 -19.530  0.00  0.00    +0.000 C 
BRANCH   9  10
ATOM     10  C   UNL     1     -13.514 -17.542 -20.260  0.00  0.00    +0.000 C 
ATOM     11  C   UNL     1     -14.860 -17.568 -20.990  0.00  0.00    +0.000 C 
BRANCH  11  12
ATOM     12  C   UNL     1     -16.206 -17.593 -21.721  0.00  0.00    +0.000 C 
ATOM     13  C   UNL     1     -17.551 -17.618 -22.452  0.00  0.00    +0.000 C 
ATOM     14  C   UNL     1     -18.897 -17.643 -23.183  0.00  0.00    +0.000 C 
ENDBRANCH  11  12
ENDBRANCH   9  10
ENDBRANCH   8   9
ENDBRANCH   6   7
ENDBRANCH   4   5
ENDBRANCH   1   3
BRANCH   2  15
ATOM     15  C   UNL     1      -0.345 -17.298 -13.113  0.00  0.00    +0.000 C 
BRANCH  15  16
ATOM     16  C   UNL     1       0.906 -17.274 -12.433  0.00  0.00    +0.000 A 
ATOM     17  C   UNL     1       1.650 -16.096 -12.388  0.00  0.00    +0.000 A 
ATOM     18  C   UNL     1       1.381 -18.430 -11.816  0.00  0.00    +0.000 A 
ATOM     19  C   UNL     1       2.606 -18.397 -11.153  0.00  0.00    +0.000 A 
ATOM     20  C   UNL     1       2.872 -16.084 -11.720  0.00  0.00    +0.000 A 
ATOM     21  C   UNL     1       3.360 -17.229 -11.099  0.00  0.00    +0.000 A 
BRANCH  20  22
ATOM     22  O   UNL     1       3.618 -14.943 -11.661  0.00  0.00    +0.000 OA
ATOM     23  H   UNL     1       4.369 -15.096 -11.062  0.00  0.00    +0.000 HD
ENDBRANCH  20  22
BRANCH  19  24
ATOM     24  O   UNL     1       3.095 -19.515 -10.541  0.00  0.00    +0.000 OA
ATOM     25  H   UNL     1       2.521 -20.266 -10.771  0.00  0.00    +0.000 HD
ENDBRANCH  19  24
ENDBRANCH  15  16
ENDBRANCH   2  15
TORSDOF 10
ENDMDL
MODEL 6
REMARK VINA RESULT:      -3.6     18.257     23.394
REMARK  Name = 76617_Cardol.pdbqt.pdb
REMARK  10 active torsions:
REMARK  status: ('A' for Active; 'I' for Inactive)
REMARK    1  A    between atoms: C_1  and  C_2
REMARK    2  A    between atoms: C_3  and  C_4
REMARK    3  A    between atoms: C_5  and  C_6
REMARK    4  A    between atoms: C_7  and  C_8
REMARK    5  A    between atoms: C_8  and  C_9
REMARK    6  A    between atoms: C_10  and  C_11
REMARK    7  A    between atoms: C_14  and  C_15
REMARK    8  A    between atoms: C_15  and  C_16
REMARK    9  A    between atoms: C_19  and  O_24
REMARK   10  A    between atoms: C_20  and  O_22
REMARK                            x       y       z     vdW  Elec       q    Type
REMARK                         _______ _______ _______ _____ _____    ______ ____
ROOT
ATOM      1  C   UNL     1      -3.057 -16.998 -14.477  0.00  0.00    +0.000 C 
ATOM      2  C   UNL     1      -1.970 -17.042 -13.970  0.00  0.00    +0.000 C 
ENDROOT
BRANCH   1   3
ATOM      3  C   UNL     1      -4.443 -16.941 -15.125  0.00  0.00    +0.000 C 
ATOM      4  C   UNL     1      -5.831 -16.886 -15.772  0.00  0.00    +0.000 C 
BRANCH   4   5
ATOM      5  C   UNL     1      -7.218 -16.828 -16.417  0.00  0.00    +0.000 C 
ATOM      6  C   UNL     1      -8.606 -16.772 -17.062  0.00  0.00    +0.000 C 
BRANCH   6   7
ATOM      7  C   UNL     1      -9.995 -16.715 -17.707  0.00  0.00    +0.000 C 
ATOM      8  C   UNL     1     -11.383 -16.659 -18.352  0.00  0.00    +0.000 C 
BRANCH   8   9
ATOM      9  C   UNL     1     -12.771 -16.603 -18.996  0.00  0.00    +0.000 C 
BRANCH   9  10
ATOM     10  C   UNL     1     -14.160 -16.546 -19.639  0.00  0.00    +0.000 C 
ATOM     11  C   UNL     1     -15.548 -16.489 -20.284  0.00  0.00    +0.000 C 
BRANCH  11  12
ATOM     12  C   UNL     1     -16.937 -16.431 -20.928  0.00  0.00    +0.000 C 
ATOM     13  C   UNL     1     -18.325 -16.373 -21.572  0.00  0.00    +0.000 C 
ATOM     14  C   UNL     1     -19.714 -16.315 -22.216  0.00  0.00    +0.000 C 
ENDBRANCH  11  12
ENDBRANCH   9  10
ENDBRANCH   8   9
ENDBRANCH   6   7
ENDBRANCH   4   5
ENDBRANCH   1   3
BRANCH   2  15
ATOM     15  C   UNL     1      -0.583 -17.100 -13.322  0.00  0.00    +0.000 C 
BRANCH  15  16
ATOM     16  C   UNL     1       0.707 -17.154 -12.720  0.00  0.00    +0.000 A 
ATOM     17  C   UNL     1       1.088 -18.281 -11.996  0.00  0.00    +0.000 A 
ATOM     18  C   UNL     1       1.583 -16.079 -12.860  0.00  0.00    +0.000 A 
ATOM     19  C   UNL     1       2.842 -16.141 -12.268  0.00  0.00    +0.000 A 
ATOM     20  C   UNL     1       2.352 -18.324 -11.412  0.00  0.00    +0.000 A 
ATOM     21  C   UNL     1       3.237 -17.260 -11.541  0.00  0.00    +0.000 A 
BRANCH  20  22
ATOM     22  O   UNL     1       2.749 -19.418 -10.697  0.00  0.00    +0.000 OA
ATOM     23  H   UNL     1       3.421 -19.136 -10.052  0.00  0.00    +0.000 HD
ENDBRANCH  20  22
BRANCH  19  24
ATOM     24  O   UNL     1       3.719 -15.101 -12.389  0.00  0.00    +0.000 OA
ATOM     25  H   UNL     1       3.255 -14.358 -12.812  0.00  0.00    +0.000 HD
ENDBRANCH  19  24
ENDBRANCH  15  16
ENDBRANCH   2  15
TORSDOF 10
ENDMDL
MODEL 7
REMARK VINA RESULT:      -3.5     14.966     19.928
REMARK  Name = 76617_Cardol.pdbqt.pdb
REMARK  10 active torsions:
REMARK  status: ('A' for Active; 'I' for Inactive)
REMARK    1  A    between atoms: C_1  and  C_2
REMARK    2  A    between atoms: C_3  and  C_4
REMARK    3  A    between atoms: C_5  and  C_6
REMARK    4  A    between atoms: C_7  and  C_8
REMARK    5  A    between atoms: C_8  and  C_9
REMARK    6  A    between atoms: C_10  and  C_11
REMARK    7  A    between atoms: C_14  and  C_15
REMARK    8  A    between atoms: C_15  and  C_16
REMARK    9  A    between atoms: C_19  and  O_24
REMARK   10  A    between atoms: C_20  and  O_22
REMARK                            x       y       z     vdW  Elec       q    Type
REMARK                         _______ _______ _______ _____ _____    ______ ____
ROOT
ATOM      1  C   UNL     1      -7.314 -30.359   8.807  0.00  0.00    +0.000 C 
ATOM      2  C   UNL     1      -6.606 -31.041   9.494  0.00  0.00    +0.000 C 
ENDROOT
BRANCH   1   3
ATOM      3  C   UNL     1      -8.219 -29.488   7.930  0.00  0.00    +0.000 C 
ATOM      4  C   UNL     1      -9.125 -28.617   7.054  0.00  0.00    +0.000 C 
BRANCH   4   5
ATOM      5  C   UNL     1     -10.029 -27.745   6.177  0.00  0.00    +0.000 C 
ATOM      6  C   UNL     1     -10.933 -26.872   5.302  0.00  0.00    +0.000 C 
BRANCH   6   7
ATOM      7  C   UNL     1     -11.838 -25.999   4.426  0.00  0.00    +0.000 C 
ATOM      8  C   UNL     1     -12.741 -25.127   3.550  0.00  0.00    +0.000 C 
BRANCH   8   9
ATOM      9  C   UNL     1     -13.645 -24.255   2.674  0.00  0.00    +0.000 C 
BRANCH   9  10
ATOM     10  C   UNL     1     -14.550 -23.383   1.798  0.00  0.00    +0.000 C 
ATOM     11  C   UNL     1     -15.454 -22.511   0.922  0.00  0.00    +0.000 C 
BRANCH  11  12
ATOM     12  C   UNL     1     -16.359 -21.638   0.046  0.00  0.00    +0.000 C 
ATOM     13  C   UNL     1     -17.263 -20.767  -0.830  0.00  0.00    +0.000 C 
ATOM     14  C   UNL     1     -18.168 -19.894  -1.705  0.00  0.00    +0.000 C 
ENDBRANCH  11  12
ENDBRANCH   9  10
ENDBRANCH   8   9
ENDBRANCH   6   7
ENDBRANCH   4   5
ENDBRANCH   1   3
BRANCH   2  15
ATOM     15  C   UNL     1      -5.700 -31.911  10.371  0.00  0.00    +0.000 C 
BRANCH  15  16
ATOM     16  C   UNL     1      -4.858 -32.721  11.187  0.00  0.00    +0.000 A 
ATOM     17  C   UNL     1      -4.140 -32.143  12.232  0.00  0.00    +0.000 A 
ATOM     18  C   UNL     1      -4.758 -34.088  10.936  0.00  0.00    +0.000 A 
ATOM     19  C   UNL     1      -3.932 -34.871  11.739  0.00  0.00    +0.000 A 
ATOM     20  C   UNL     1      -3.321 -32.944  13.024  0.00  0.00    +0.000 A 
ATOM     21  C   UNL     1      -3.209 -34.309  12.786  0.00  0.00    +0.000 A 
BRANCH  20  22
ATOM     22  O   UNL     1      -2.607 -32.401  14.053  0.00  0.00    +0.000 OA
ATOM     23  H   UNL     1      -2.106 -33.113  14.489  0.00  0.00    +0.000 HD
ENDBRANCH  20  22
BRANCH  19  24
ATOM     24  O   UNL     1      -3.815 -36.213  11.514  0.00  0.00    +0.000 OA
ATOM     25  H   UNL     1      -2.910 -36.484  11.747  0.00  0.00    +0.000 HD
ENDBRANCH  19  24
ENDBRANCH  15  16
ENDBRANCH   2  15
TORSDOF 10
ENDMDL
MODEL 8
REMARK VINA RESULT:      -3.5      8.731     15.535
REMARK  Name = 76617_Cardol.pdbqt.pdb
REMARK  10 active torsions:
REMARK  status: ('A' for Active; 'I' for Inactive)
REMARK    1  A    between atoms: C_1  and  C_2
REMARK    2  A    between atoms: C_3  and  C_4
REMARK    3  A    between atoms: C_5  and  C_6
REMARK    4  A    between atoms: C_7  and  C_8
REMARK    5  A    between atoms: C_8  and  C_9
REMARK    6  A    between atoms: C_10  and  C_11
REMARK    7  A    between atoms: C_14  and  C_15
REMARK    8  A    between atoms: C_15  and  C_16
REMARK    9  A    between atoms: C_19  and  O_24
REMARK   10  A    between atoms: C_20  and  O_22
REMARK                            x       y       z     vdW  Elec       q    Type
REMARK                         _______ _______ _______ _____ _____    ______ ____
ROOT
ATOM      1  C   UNL     1     -11.079 -18.352   3.077  0.00  0.00    +0.000 C 
ATOM      2  C   UNL     1     -10.409 -18.599   4.041  0.00  0.00    +0.000 C 
ENDROOT
BRANCH   1   3
ATOM      3  C   UNL     1     -11.935 -18.038   1.847  0.00  0.00    +0.000 C 
ATOM      4  C   UNL     1     -12.793 -17.725   0.616  0.00  0.00    +0.000 C 
BRANCH   4   5
ATOM      5  C   UNL     1     -13.650 -17.412  -0.614  0.00  0.00    +0.000 C 
ATOM      6  C   UNL     1     -14.507 -17.100  -1.843  0.00  0.00    +0.000 C 
BRANCH   6   7
ATOM      7  C   UNL     1     -15.365 -16.787  -3.074  0.00  0.00    +0.000 C 
ATOM      8  C   UNL     1     -16.223 -16.474  -4.303  0.00  0.00    +0.000 C 
BRANCH   8   9
ATOM      9  C   UNL     1     -17.080 -16.161  -5.533  0.00  0.00    +0.000 C 
BRANCH   9  10
ATOM     10  C   UNL     1     -17.937 -15.849  -6.764  0.00  0.00    +0.000 C 
ATOM     11  C   UNL     1     -18.796 -15.538  -7.993  0.00  0.00    +0.000 C 
BRANCH  11  12
ATOM     12  C   UNL     1     -19.654 -15.226  -9.223  0.00  0.00    +0.000 C 
ATOM     13  C   UNL     1     -20.511 -14.916 -10.453  0.00  0.00    +0.000 C 
ATOM     14  C   UNL     1     -21.369 -14.605 -11.684  0.00  0.00    +0.000 C 
ENDBRANCH  11  12
ENDBRANCH   9  10
ENDBRANCH   8   9
ENDBRANCH   6   7
ENDBRANCH   4   5
ENDBRANCH   1   3
BRANCH   2  15
ATOM     15  C   UNL     1      -9.552 -18.912   5.272  0.00  0.00    +0.000 C 
BRANCH  15  16
ATOM     16  C   UNL     1      -8.755 -19.204   6.416  0.00  0.00    +0.000 A 
ATOM     17  C   UNL     1      -8.991 -18.535   7.616  0.00  0.00    +0.000 A 
ATOM     18  C   UNL     1      -7.742 -20.157   6.329  0.00  0.00    +0.000 A 
ATOM     19  C   UNL     1      -6.968 -20.436   7.453  0.00  0.00    +0.000 A 
ATOM     20  C   UNL     1      -8.205 -18.829   8.728  0.00  0.00    +0.000 A 
ATOM     21  C   UNL     1      -7.191 -19.777   8.658  0.00  0.00    +0.000 A 
BRANCH  20  22
ATOM     22  O   UNL     1      -8.417 -18.188   9.914  0.00  0.00    +0.000 OA
ATOM     23  H   UNL     1      -9.250 -17.690   9.850  0.00  0.00    +0.000 HD
ENDBRANCH  20  22
BRANCH  19  24
ATOM     24  O   UNL     1      -5.969 -21.365   7.395  0.00  0.00    +0.000 OA
ATOM     25  H   UNL     1      -6.168 -22.069   8.037  0.00  0.00    +0.000 HD
ENDBRANCH  19  24
ENDBRANCH  15  16
ENDBRANCH   2  15
TORSDOF 10
ENDMDL
MODEL 9
REMARK VINA RESULT:      -3.5     17.741     21.691
REMARK  Name = 76617_Cardol.pdbqt.pdb
REMARK  10 active torsions:
REMARK  status: ('A' for Active; 'I' for Inactive)
REMARK    1  A    between atoms: C_1  and  C_2
REMARK    2  A    between atoms: C_3  and  C_4
REMARK    3  A    between atoms: C_5  and  C_6
REMARK    4  A    between atoms: C_7  and  C_8
REMARK    5  A    between atoms: C_8  and  C_9
REMARK    6  A    between atoms: C_10  and  C_11
REMARK    7  A    between atoms: C_14  and  C_15
REMARK    8  A    between atoms: C_15  and  C_16
REMARK    9  A    between atoms: C_19  and  O_24
REMARK   10  A    between atoms: C_20  and  O_22
REMARK                            x       y       z     vdW  Elec       q    Type
REMARK                         _______ _______ _______ _____ _____    ______ ____
ROOT
ATOM      1  C   UNL     1      -4.704 -14.089 -14.102  0.00  0.00    +0.000 C 
ATOM      2  C   UNL     1      -4.469 -15.198 -14.498  0.00  0.00    +0.000 C 
ENDROOT
BRANCH   1   3
ATOM      3  C   UNL     1      -5.003 -12.675 -13.598  0.00  0.00    +0.000 C 
ATOM      4  C   UNL     1      -5.302 -11.259 -13.093  0.00  0.00    +0.000 C 
BRANCH   4   5
ATOM      5  C   UNL     1      -5.599  -9.844 -12.590  0.00  0.00    +0.000 C 
ATOM      6  C   UNL     1      -5.897  -8.428 -12.088  0.00  0.00    +0.000 C 
BRANCH   6   7
ATOM      7  C   UNL     1      -6.195  -7.012 -11.585  0.00  0.00    +0.000 C 
ATOM      8  C   UNL     1      -6.494  -5.597 -11.083  0.00  0.00    +0.000 C 
BRANCH   8   9
ATOM      9  C   UNL     1      -6.792  -4.181 -10.580  0.00  0.00    +0.000 C 
BRANCH   9  10
ATOM     10  C   UNL     1      -7.093  -2.766 -10.077  0.00  0.00    +0.000 C 
ATOM     11  C   UNL     1      -7.394  -1.352  -9.573  0.00  0.00    +0.000 C 
BRANCH  11  12
ATOM     12  C   UNL     1      -7.695   0.064  -9.069  0.00  0.00    +0.000 C 
ATOM     13  C   UNL     1      -7.996   1.479  -8.567  0.00  0.00    +0.000 C 
ATOM     14  C   UNL     1      -8.297   2.894  -8.064  0.00  0.00    +0.000 C 
ENDBRANCH  11  12
ENDBRANCH   9  10
ENDBRANCH   8   9
ENDBRANCH   6   7
ENDBRANCH   4   5
ENDBRANCH   1   3
BRANCH   2  15
ATOM     15  C   UNL     1      -4.170 -16.614 -15.001  0.00  0.00    +0.000 C 
BRANCH  15  16
ATOM     16  C   UNL     1      -3.890 -17.930 -15.469  0.00  0.00    +0.000 A 
ATOM     17  C   UNL     1      -4.938 -18.810 -15.731  0.00  0.00    +0.000 A 
ATOM     18  C   UNL     1      -2.570 -18.331 -15.662  0.00  0.00    +0.000 A 
ATOM     19  C   UNL     1      -2.307 -19.620 -16.120  0.00  0.00    +0.000 A 
ATOM     20  C   UNL     1      -4.654 -20.095 -16.188  0.00  0.00    +0.000 A 
ATOM     21  C   UNL     1      -3.342 -20.511 -16.386  0.00  0.00    +0.000 A 
BRANCH  20  22
ATOM     22  O   UNL     1      -5.663 -20.975 -16.452  0.00  0.00    +0.000 OA
ATOM     23  H   UNL     1      -6.102 -20.703 -17.277  0.00  0.00    +0.000 HD
ENDBRANCH  20  22
BRANCH  19  24
ATOM     24  O   UNL     1      -1.022 -20.038 -16.317  0.00  0.00    +0.000 OA
ATOM     25  H   UNL     1      -1.030 -21.003 -16.441  0.00  0.00    +0.000 HD
ENDBRANCH  19  24
ENDBRANCH  15  16
ENDBRANCH   2  15
TORSDOF 10
ENDMDL
