MODEL 1
REMARK VINA RESULT:      -5.4      0.000      0.000
REMARK  Name = 85668777_Hyaluronidase.pdbqt.pdb
REMARK  5 active torsions:
REMARK  status: ('A' for Active; 'I' for Inactive)
REMARK    1  A    between atoms: N_1  and  C_13
REMARK    2  A    between atoms: C_14  and  C_15
REMARK    3  A    between atoms: C_15  and  C_16
REMARK    4  A    between atoms: C_17  and  C_19
REMARK    5  A    between atoms: C_19  and  O_20
REMARK                            x       y       z     vdW  Elec       q    Type
REMARK                         _______ _______ _______ _____ _____    ______ ____
ROOT
ATOM      1  N   UNL     1      -4.992 -34.297  -6.566  0.00  0.00    +0.000 N 
ATOM      2  C   UNL     1      -3.824 -35.754  -8.105  0.00  0.00    +0.000 C 
ATOM      3  C   UNL     1      -3.486 -34.280  -8.325  0.00  0.00    +0.000 A 
ATOM      4  C   UNL     1      -4.839 -35.643  -6.902  0.00  0.00    +0.000 C 
ATOM      5  C   UNL     1      -4.199 -33.490  -7.399  0.00  0.00    +0.000 A 
ATOM      6  C   UNL     1      -4.491 -36.325  -9.396  0.00  0.00    +0.000 C 
ATOM      7  C   UNL     1      -2.521 -36.523  -7.713  0.00  0.00    +0.000 C 
ATOM      8  C   UNL     1      -2.635 -33.698  -9.253  0.00  0.00    +0.000 A 
ATOM      9  C   UNL     1      -4.068 -32.112  -7.390  0.00  0.00    +0.000 A 
ATOM     10  C   UNL     1      -5.504 -36.611  -6.239  0.00  0.00    +0.000 C 
ATOM     11  C   UNL     1      -2.503 -32.310  -9.243  0.00  0.00    +0.000 A 
ATOM     12  C   UNL     1      -3.211 -31.527  -8.321  0.00  0.00    +0.000 A 
ENDROOT
BRANCH   1  13
ATOM     13  C   UNL     1      -5.835 -33.775  -5.517  0.00  0.00    +0.000 C 
ATOM     14  C   UNL     1      -6.731 -33.227  -4.402  0.00  0.00    +0.000 C 
BRANCH  14  15
ATOM     15  C   UNL     1      -7.628 -32.679  -3.287  0.00  0.00    +0.000 C 
BRANCH  15  16
ATOM     16  C   UNL     1      -8.523 -32.131  -2.173  0.00  0.00    +0.000 C 
ATOM     17  C   UNL     1      -9.420 -31.583  -1.058  0.00  0.00    +0.000 C 
BRANCH  17  19
ATOM     18  O   UNL     1     -10.633 -31.742   0.932  0.00  0.00    +0.000 OA
ATOM     19  C   UNL     1     -10.257 -31.073  -0.015  0.00  0.00    +0.000 C 
BRANCH  19  20
ATOM     20  O   UNL     1     -10.598 -29.781  -0.170  0.00  0.00    +0.000 OA
ATOM     21  H   UNL     1      -9.738 -29.324  -0.262  0.00  0.00    +0.000 HD
ENDBRANCH  19  20
ENDBRANCH  17  19
ENDBRANCH  15  16
ENDBRANCH  14  15
ENDBRANCH   1  13
TORSDOF 5
ENDMDL
MODEL 2
REMARK VINA RESULT:      -4.8      3.882      4.155
REMARK  Name = 85668777_Hyaluronidase.pdbqt.pdb
REMARK  5 active torsions:
REMARK  status: ('A' for Active; 'I' for Inactive)
REMARK    1  A    between atoms: N_1  and  C_13
REMARK    2  A    between atoms: C_14  and  C_15
REMARK    3  A    between atoms: C_15  and  C_16
REMARK    4  A    between atoms: C_17  and  C_19
REMARK    5  A    between atoms: C_19  and  O_20
REMARK                            x       y       z     vdW  Elec       q    Type
REMARK                         _______ _______ _______ _____ _____    ______ ____
ROOT
ATOM      1  N   UNL     1      -5.682 -35.268  -5.389  0.00  0.00    +0.000 N 
ATOM      2  C   UNL     1      -3.317 -35.764  -5.260  0.00  0.00    +0.000 C 
ATOM      3  C   UNL     1      -3.623 -34.626  -6.234  0.00  0.00    +0.000 A 
ATOM      4  C   UNL     1      -4.770 -36.113  -4.754  0.00  0.00    +0.000 C 
ATOM      5  C   UNL     1      -5.014 -34.391  -6.260  0.00  0.00    +0.000 A 
ATOM      6  C   UNL     1      -2.659 -36.944  -6.042  0.00  0.00    +0.000 C 
ATOM      7  C   UNL     1      -2.403 -35.222  -4.113  0.00  0.00    +0.000 C 
ATOM      8  C   UNL     1      -2.757 -33.878  -7.018  0.00  0.00    +0.000 A 
ATOM      9  C   UNL     1      -5.552 -33.406  -7.068  0.00  0.00    +0.000 A 
ATOM     10  C   UNL     1      -5.177 -37.045  -3.868  0.00  0.00    +0.000 C 
ATOM     11  C   UNL     1      -3.301 -32.885  -7.832  0.00  0.00    +0.000 A 
ATOM     12  C   UNL     1      -4.683 -32.652  -7.856  0.00  0.00    +0.000 A 
ENDROOT
BRANCH   1  13
ATOM     13  C   UNL     1      -7.112 -35.267  -5.198  0.00  0.00    +0.000 C 
ATOM     14  C   UNL     1      -8.631 -35.264  -5.000  0.00  0.00    +0.000 C 
BRANCH  14  15
ATOM     15  C   UNL     1     -10.150 -35.260  -4.803  0.00  0.00    +0.000 C 
BRANCH  15  16
ATOM     16  C   UNL     1     -11.668 -35.257  -4.605  0.00  0.00    +0.000 C 
ATOM     17  C   UNL     1     -13.187 -35.254  -4.406  0.00  0.00    +0.000 C 
BRANCH  17  19
ATOM     18  O   UNL     1     -15.381 -35.849  -4.945  0.00  0.00    +0.000 OA
ATOM     19  C   UNL     1     -14.607 -35.249  -4.220  0.00  0.00    +0.000 C 
BRANCH  19  20
ATOM     20  O   UNL     1     -15.018 -34.520  -3.168  0.00  0.00    +0.000 OA
ATOM     21  H   UNL     1     -14.379 -33.780  -3.134  0.00  0.00    +0.000 HD
ENDBRANCH  19  20
ENDBRANCH  17  19
ENDBRANCH  15  16
ENDBRANCH  14  15
ENDBRANCH   1  13
TORSDOF 5
ENDMDL
MODEL 3
REMARK VINA RESULT:      -4.7      4.824      5.403
REMARK  Name = 85668777_Hyaluronidase.pdbqt.pdb
REMARK  5 active torsions:
REMARK  status: ('A' for Active; 'I' for Inactive)
REMARK    1  A    between atoms: N_1  and  C_13
REMARK    2  A    between atoms: C_14  and  C_15
REMARK    3  A    between atoms: C_15  and  C_16
REMARK    4  A    between atoms: C_17  and  C_19
REMARK    5  A    between atoms: C_19  and  O_20
REMARK                            x       y       z     vdW  Elec       q    Type
REMARK                         _______ _______ _______ _____ _____    ______ ____
ROOT
ATOM      1  N   UNL     1      -2.807 -35.668  -6.719  0.00  0.00    +0.000 N 
ATOM      2  C   UNL     1      -2.519 -35.772  -9.120  0.00  0.00    +0.000 C 
ATOM      3  C   UNL     1      -3.087 -34.431  -8.656  0.00  0.00    +0.000 A 
ATOM      4  C   UNL     1      -2.371 -36.518  -7.737  0.00  0.00    +0.000 C 
ATOM      5  C   UNL     1      -3.229 -34.439  -7.253  0.00  0.00    +0.000 A 
ATOM      6  C   UNL     1      -3.551 -36.467 -10.064  0.00  0.00    +0.000 C 
ATOM      7  C   UNL     1      -1.140 -35.530  -9.814  0.00  0.00    +0.000 C 
ATOM      8  C   UNL     1      -3.443 -33.317  -9.404  0.00  0.00    +0.000 A 
ATOM      9  C   UNL     1      -3.727 -33.336  -6.583  0.00  0.00    +0.000 A 
ATOM     10  C   UNL     1      -1.916 -37.759  -7.468  0.00  0.00    +0.000 C 
ATOM     11  C   UNL     1      -3.944 -32.206  -8.727  0.00  0.00    +0.000 A 
ATOM     12  C   UNL     1      -4.084 -32.216  -7.332  0.00  0.00    +0.000 A 
ENDROOT
BRANCH   1  13
ATOM     13  C   UNL     1      -2.832 -35.977  -5.310  0.00  0.00    +0.000 C 
ATOM     14  C   UNL     1      -2.859 -36.299  -3.812  0.00  0.00    +0.000 C 
BRANCH  14  15
ATOM     15  C   UNL     1      -2.886 -36.620  -2.315  0.00  0.00    +0.000 C 
BRANCH  15  16
ATOM     16  C   UNL     1      -2.912 -36.943  -0.819  0.00  0.00    +0.000 C 
ATOM     17  C   UNL     1      -2.938 -37.265   0.679  0.00  0.00    +0.000 C 
BRANCH  17  19
ATOM     18  O   UNL     1      -2.824 -38.691   2.526  0.00  0.00    +0.000 OA
ATOM     19  C   UNL     1      -2.961 -37.565   2.079  0.00  0.00    +0.000 C 
BRANCH  19  20
ATOM     20  O   UNL     1      -3.148 -36.492   2.866  0.00  0.00    +0.000 OA
ATOM     21  H   UNL     1      -3.266 -35.757   2.231  0.00  0.00    +0.000 HD
ENDBRANCH  19  20
ENDBRANCH  17  19
ENDBRANCH  15  16
ENDBRANCH  14  15
ENDBRANCH   1  13
TORSDOF 5
ENDMDL
MODEL 4
REMARK VINA RESULT:      -4.7     11.405     12.958
REMARK  Name = 85668777_Hyaluronidase.pdbqt.pdb
REMARK  5 active torsions:
REMARK  status: ('A' for Active; 'I' for Inactive)
REMARK    1  A    between atoms: N_1  and  C_13
REMARK    2  A    between atoms: C_14  and  C_15
REMARK    3  A    between atoms: C_15  and  C_16
REMARK    4  A    between atoms: C_17  and  C_19
REMARK    5  A    between atoms: C_19  and  O_20
REMARK                            x       y       z     vdW  Elec       q    Type
REMARK                         _______ _______ _______ _____ _____    ______ ____
ROOT
ATOM      1  N   UNL     1       5.694 -28.217  -3.284  0.00  0.00    +0.000 N 
ATOM      2  C   UNL     1       6.622 -26.161  -4.160  0.00  0.00    +0.000 C 
ATOM      3  C   UNL     1       6.584 -27.276  -5.204  0.00  0.00    +0.000 A 
ATOM      4  C   UNL     1       6.001 -26.906  -2.916  0.00  0.00    +0.000 C 
ATOM      5  C   UNL     1       6.035 -28.441  -4.629  0.00  0.00    +0.000 A 
ATOM      6  C   UNL     1       8.106 -25.736  -3.919  0.00  0.00    +0.000 C 
ATOM      7  C   UNL     1       5.731 -24.974  -4.647  0.00  0.00    +0.000 C 
ATOM      8  C   UNL     1       6.996 -27.260  -6.529  0.00  0.00    +0.000 A 
ATOM      9  C   UNL     1       5.890 -29.600  -5.371  0.00  0.00    +0.000 A 
ATOM     10  C   UNL     1       5.762 -26.455  -1.667  0.00  0.00    +0.000 C 
ATOM     11  C   UNL     1       6.850 -28.428  -7.275  0.00  0.00    +0.000 A 
ATOM     12  C   UNL     1       6.303 -29.585  -6.703  0.00  0.00    +0.000 A 
ENDROOT
BRANCH   1  13
ATOM     13  C   UNL     1       5.108 -29.223  -2.431  0.00  0.00    +0.000 C 
ATOM     14  C   UNL     1       4.491 -30.292  -1.524  0.00  0.00    +0.000 C 
BRANCH  14  15
ATOM     15  C   UNL     1       3.875 -31.361  -0.616  0.00  0.00    +0.000 C 
BRANCH  15  16
ATOM     16  C   UNL     1       3.260 -32.429   0.292  0.00  0.00    +0.000 C 
ATOM     17  C   UNL     1       2.645 -33.499   1.200  0.00  0.00    +0.000 C 
BRANCH  17  19
ATOM     18  O   UNL     1       2.448 -34.707   3.190  0.00  0.00    +0.000 OA
ATOM     19  C   UNL     1       2.072 -34.500   2.049  0.00  0.00    +0.000 C 
BRANCH  19  20
ATOM     20  O   UNL     1       1.076 -35.198   1.476  0.00  0.00    +0.000 OA
ATOM     21  H   UNL     1       1.422 -35.405   0.584  0.00  0.00    +0.000 HD
ENDBRANCH  19  20
ENDBRANCH  17  19
ENDBRANCH  15  16
ENDBRANCH  14  15
ENDBRANCH   1  13
TORSDOF 5
ENDMDL
MODEL 5
REMARK VINA RESULT:      -4.6     19.713     21.738
REMARK  Name = 85668777_Hyaluronidase.pdbqt.pdb
REMARK  5 active torsions:
REMARK  status: ('A' for Active; 'I' for Inactive)
REMARK    1  A    between atoms: N_1  and  C_13
REMARK    2  A    between atoms: C_14  and  C_15
REMARK    3  A    between atoms: C_15  and  C_16
REMARK    4  A    between atoms: C_17  and  C_19
REMARK    5  A    between atoms: C_19  and  O_20
REMARK                            x       y       z     vdW  Elec       q    Type
REMARK                         _______ _______ _______ _____ _____    ______ ____
ROOT
ATOM      1  N   UNL     1      -4.336 -14.312  -0.503  0.00  0.00    +0.000 N 
ATOM      2  C   UNL     1      -5.618 -14.752   1.501  0.00  0.00    +0.000 C 
ATOM      3  C   UNL     1      -6.231 -13.643   0.647  0.00  0.00    +0.000 A 
ATOM      4  C   UNL     1      -4.355 -15.124   0.632  0.00  0.00    +0.000 C 
ATOM      5  C   UNL     1      -5.437 -13.438  -0.500  0.00  0.00    +0.000 A 
ATOM      6  C   UNL     1      -5.229 -14.168   2.896  0.00  0.00    +0.000 C 
ATOM      7  C   UNL     1      -6.634 -15.935   1.609  0.00  0.00    +0.000 C 
ATOM      8  C   UNL     1      -7.377 -12.891   0.866  0.00  0.00    +0.000 A 
ATOM      9  C   UNL     1      -5.778 -12.482  -1.440  0.00  0.00    +0.000 A 
ATOM     10  C   UNL     1      -3.396 -16.047   0.850  0.00  0.00    +0.000 C 
ATOM     11  C   UNL     1      -7.720 -11.928  -0.082  0.00  0.00    +0.000 A 
ATOM     12  C   UNL     1      -6.930 -11.726  -1.222  0.00  0.00    +0.000 A 
ENDROOT
BRANCH   1  13
ATOM     13  C   UNL     1      -3.343 -14.341  -1.550  0.00  0.00    +0.000 C 
ATOM     14  C   UNL     1      -2.286 -14.375  -2.658  0.00  0.00    +0.000 C 
BRANCH  14  15
ATOM     15  C   UNL     1      -1.228 -14.409  -3.765  0.00  0.00    +0.000 C 
BRANCH  15  16
ATOM     16  C   UNL     1      -0.170 -14.443  -4.871  0.00  0.00    +0.000 C 
ATOM     17  C   UNL     1       0.889 -14.477  -5.978  0.00  0.00    +0.000 C 
BRANCH  17  19
ATOM     18  O   UNL     1       3.034 -14.849  -6.825  0.00  0.00    +0.000 OA
ATOM     19  C   UNL     1       1.878 -14.511  -7.012  0.00  0.00    +0.000 C 
BRANCH  19  20
ATOM     20  O   UNL     1       1.421 -14.135  -8.219  0.00  0.00    +0.000 OA
ATOM     21  H   UNL     1       0.701 -13.506  -8.009  0.00  0.00    +0.000 HD
ENDBRANCH  19  20
ENDBRANCH  17  19
ENDBRANCH  15  16
ENDBRANCH  14  15
ENDBRANCH   1  13
TORSDOF 5
ENDMDL
MODEL 6
REMARK VINA RESULT:      -4.6     17.350     19.282
REMARK  Name = 85668777_Hyaluronidase.pdbqt.pdb
REMARK  5 active torsions:
REMARK  status: ('A' for Active; 'I' for Inactive)
REMARK    1  A    between atoms: N_1  and  C_13
REMARK    2  A    between atoms: C_14  and  C_15
REMARK    3  A    between atoms: C_15  and  C_16
REMARK    4  A    between atoms: C_17  and  C_19
REMARK    5  A    between atoms: C_19  and  O_20
REMARK                            x       y       z     vdW  Elec       q    Type
REMARK                         _______ _______ _______ _____ _____    ______ ____
ROOT
ATOM      1  N   UNL     1      -5.040 -15.020   0.587  0.00  0.00    +0.000 N 
ATOM      2  C   UNL     1      -4.852 -13.062  -0.823  0.00  0.00    +0.000 C 
ATOM      3  C   UNL     1      -4.275 -14.315  -1.482  0.00  0.00    +0.000 A 
ATOM      4  C   UNL     1      -5.335 -13.656   0.557  0.00  0.00    +0.000 C 
ATOM      5  C   UNL     1      -4.416 -15.414  -0.609  0.00  0.00    +0.000 A 
ATOM      6  C   UNL     1      -3.716 -12.005  -0.650  0.00  0.00    +0.000 C 
ATOM      7  C   UNL     1      -6.039 -12.531  -1.689  0.00  0.00    +0.000 C 
ATOM      8  C   UNL     1      -3.683 -14.464  -2.728  0.00  0.00    +0.000 A 
ATOM      9  C   UNL     1      -3.969 -16.672  -0.972  0.00  0.00    +0.000 A 
ATOM     10  C   UNL     1      -5.939 -13.046   1.597  0.00  0.00    +0.000 C 
ATOM     11  C   UNL     1      -3.233 -15.732  -3.092  0.00  0.00    +0.000 A 
ATOM     12  C   UNL     1      -3.375 -16.823  -2.224  0.00  0.00    +0.000 A 
ENDROOT
BRANCH   1  13
ATOM     13  C   UNL     1      -5.323 -15.925   1.675  0.00  0.00    +0.000 C 
ATOM     14  C   UNL     1      -5.619 -16.883   2.832  0.00  0.00    +0.000 C 
BRANCH  14  15
ATOM     15  C   UNL     1      -5.915 -17.841   3.991  0.00  0.00    +0.000 C 
BRANCH  15  16
ATOM     16  C   UNL     1      -6.210 -18.798   5.148  0.00  0.00    +0.000 C 
ATOM     17  C   UNL     1      -6.507 -19.756   6.307  0.00  0.00    +0.000 C 
BRANCH  17  19
ATOM     18  O   UNL     1      -7.843 -20.671   7.991  0.00  0.00    +0.000 OA
ATOM     19  C   UNL     1      -6.783 -20.653   7.388  0.00  0.00    +0.000 C 
BRANCH  19  20
ATOM     20  O   UNL     1      -5.767 -21.481   7.687  0.00  0.00    +0.000 OA
ATOM     21  H   UNL     1      -6.190 -22.183   8.221  0.00  0.00    +0.000 HD
ENDBRANCH  19  20
ENDBRANCH  17  19
ENDBRANCH  15  16
ENDBRANCH  14  15
ENDBRANCH   1  13
TORSDOF 5
ENDMDL
MODEL 7
REMARK VINA RESULT:      -4.4     16.909     19.882
REMARK  Name = 85668777_Hyaluronidase.pdbqt.pdb
REMARK  5 active torsions:
REMARK  status: ('A' for Active; 'I' for Inactive)
REMARK    1  A    between atoms: N_1  and  C_13
REMARK    2  A    between atoms: C_14  and  C_15
REMARK    3  A    between atoms: C_15  and  C_16
REMARK    4  A    between atoms: C_17  and  C_19
REMARK    5  A    between atoms: C_19  and  O_20
REMARK                            x       y       z     vdW  Elec       q    Type
REMARK                         _______ _______ _______ _____ _____    ______ ____
ROOT
ATOM      1  N   UNL     1      -3.443 -16.523  -0.483  0.00  0.00    +0.000 N 
ATOM      2  C   UNL     1      -4.846 -16.896   1.454  0.00  0.00    +0.000 C 
ATOM      3  C   UNL     1      -3.913 -18.073   1.172  0.00  0.00    +0.000 A 
ATOM      4  C   UNL     1      -4.441 -15.918   0.283  0.00  0.00    +0.000 C 
ATOM      5  C   UNL     1      -3.128 -17.791   0.035  0.00  0.00    +0.000 A 
ATOM      6  C   UNL     1      -6.327 -17.377   1.342  0.00  0.00    +0.000 C 
ATOM      7  C   UNL     1      -4.512 -16.305   2.862  0.00  0.00    +0.000 C 
ATOM      8  C   UNL     1      -3.776 -19.274   1.854  0.00  0.00    +0.000 A 
ATOM      9  C   UNL     1      -2.198 -18.704  -0.432  0.00  0.00    +0.000 A 
ATOM     10  C   UNL     1      -4.911 -14.691  -0.021  0.00  0.00    +0.000 C 
ATOM     11  C   UNL     1      -2.839 -20.193   1.383  0.00  0.00    +0.000 A 
ATOM     12  C   UNL     1      -2.059 -19.910   0.253  0.00  0.00    +0.000 A 
ENDROOT
BRANCH   1  13
ATOM     13  C   UNL     1      -2.804 -15.955  -1.645  0.00  0.00    +0.000 C 
ATOM     14  C   UNL     1      -2.130 -15.349  -2.880  0.00  0.00    +0.000 C 
BRANCH  14  15
ATOM     15  C   UNL     1      -1.458 -14.743  -4.116  0.00  0.00    +0.000 C 
BRANCH  15  16
ATOM     16  C   UNL     1      -0.785 -14.136  -5.350  0.00  0.00    +0.000 C 
ATOM     17  C   UNL     1      -0.111 -13.530  -6.585  0.00  0.00    +0.000 C 
BRANCH  17  19
ATOM     18  O   UNL     1       0.371 -11.805  -8.085  0.00  0.00    +0.000 OA
ATOM     19  C   UNL     1       0.519 -12.964  -7.739  0.00  0.00    +0.000 C 
BRANCH  19  20
ATOM     20  O   UNL     1       1.296 -13.827  -8.417  0.00  0.00    +0.000 OA
ATOM     21  H   UNL     1       1.477 -14.536  -7.767  0.00  0.00    +0.000 HD
ENDBRANCH  19  20
ENDBRANCH  17  19
ENDBRANCH  15  16
ENDBRANCH  14  15
ENDBRANCH   1  13
TORSDOF 5
ENDMDL
MODEL 8
REMARK VINA RESULT:      -4.4     18.250     19.883
REMARK  Name = 85668777_Hyaluronidase.pdbqt.pdb
REMARK  5 active torsions:
REMARK  status: ('A' for Active; 'I' for Inactive)
REMARK    1  A    between atoms: N_1  and  C_13
REMARK    2  A    between atoms: C_14  and  C_15
REMARK    3  A    between atoms: C_15  and  C_16
REMARK    4  A    between atoms: C_17  and  C_19
REMARK    5  A    between atoms: C_19  and  O_20
REMARK                            x       y       z     vdW  Elec       q    Type
REMARK                         _______ _______ _______ _____ _____    ______ ____
ROOT
ATOM      1  N   UNL     1     -11.817 -17.261   1.483  0.00  0.00    +0.000 N 
ATOM      2  C   UNL     1     -10.063 -16.811   3.089  0.00  0.00    +0.000 C 
ATOM      3  C   UNL     1     -10.790 -18.126   3.370  0.00  0.00    +0.000 A 
ATOM      4  C   UNL     1     -10.835 -16.322   1.803  0.00  0.00    +0.000 C 
ATOM      5  C   UNL     1     -11.795 -18.325   2.401  0.00  0.00    +0.000 A 
ATOM      6  C   UNL     1     -10.258 -15.849   4.304  0.00  0.00    +0.000 C 
ATOM      7  C   UNL     1      -8.557 -17.112   2.799  0.00  0.00    +0.000 C 
ATOM      8  C   UNL     1     -10.581 -19.051   4.383  0.00  0.00    +0.000 A 
ATOM      9  C   UNL     1     -12.601 -19.449   2.433  0.00  0.00    +0.000 A 
ATOM     10  C   UNL     1     -10.663 -15.208   1.063  0.00  0.00    +0.000 C 
ATOM     11  C   UNL     1     -11.395 -20.184   4.414  0.00  0.00    +0.000 A 
ATOM     12  C   UNL     1     -12.392 -20.380   3.450  0.00  0.00    +0.000 A 
ENDROOT
BRANCH   1  13
ATOM     13  C   UNL     1     -12.737 -17.182   0.375  0.00  0.00    +0.000 C 
ATOM     14  C   UNL     1     -13.710 -17.100  -0.806  0.00  0.00    +0.000 C 
BRANCH  14  15
ATOM     15  C   UNL     1     -14.682 -17.019  -1.986  0.00  0.00    +0.000 C 
BRANCH  15  16
ATOM     16  C   UNL     1     -15.654 -16.936  -3.166  0.00  0.00    +0.000 C 
ATOM     17  C   UNL     1     -16.627 -16.854  -4.347  0.00  0.00    +0.000 C 
BRANCH  17  19
ATOM     18  O   UNL     1     -18.409 -15.929  -5.541  0.00  0.00    +0.000 OA
ATOM     19  C   UNL     1     -17.538 -16.776  -5.449  0.00  0.00    +0.000 C 
BRANCH  19  20
ATOM     20  O   UNL     1     -17.350 -17.725  -6.382  0.00  0.00    +0.000 OA
ATOM     21  H   UNL     1     -17.588 -18.554  -5.921  0.00  0.00    +0.000 HD
ENDBRANCH  19  20
ENDBRANCH  17  19
ENDBRANCH  15  16
ENDBRANCH  14  15
ENDBRANCH   1  13
TORSDOF 5
ENDMDL
MODEL 9
REMARK VINA RESULT:      -4.3      9.958     14.578
REMARK  Name = 85668777_Hyaluronidase.pdbqt.pdb
REMARK  5 active torsions:
REMARK  status: ('A' for Active; 'I' for Inactive)
REMARK    1  A    between atoms: N_1  and  C_13
REMARK    2  A    between atoms: C_14  and  C_15
REMARK    3  A    between atoms: C_15  and  C_16
REMARK    4  A    between atoms: C_17  and  C_19
REMARK    5  A    between atoms: C_19  and  O_20
REMARK                            x       y       z     vdW  Elec       q    Type
REMARK                         _______ _______ _______ _____ _____    ______ ____
ROOT
ATOM      1  N   UNL     1      -5.959 -31.840   7.992  0.00  0.00    +0.000 N 
ATOM      2  C   UNL     1      -4.281 -32.484   9.612  0.00  0.00    +0.000 C 
ATOM      3  C   UNL     1      -5.163 -31.338  10.108  0.00  0.00    +0.000 A 
ATOM      4  C   UNL     1      -4.907 -32.737   8.186  0.00  0.00    +0.000 C 
ATOM      5  C   UNL     1      -6.114 -31.014   9.118  0.00  0.00    +0.000 A 
ATOM      6  C   UNL     1      -2.800 -31.994   9.533  0.00  0.00    +0.000 C 
ATOM      7  C   UNL     1      -4.456 -33.711  10.564  0.00  0.00    +0.000 C 
ATOM      8  C   UNL     1      -5.123 -30.652  11.313  0.00  0.00    +0.000 A 
ATOM      9  C   UNL     1      -7.036 -30.003   9.322  0.00  0.00    +0.000 A 
ATOM     10  C   UNL     1      -4.567 -33.635   7.239  0.00  0.00    +0.000 C 
ATOM     11  C   UNL     1      -6.053 -29.633  11.517  0.00  0.00    +0.000 A 
ATOM     12  C   UNL     1      -6.999 -29.313  10.534  0.00  0.00    +0.000 A 
ENDROOT
BRANCH   1  13
ATOM     13  C   UNL     1      -6.788 -31.748   6.815  0.00  0.00    +0.000 C 
ATOM     14  C   UNL     1      -7.665 -31.648   5.563  0.00  0.00    +0.000 C 
BRANCH  14  15
ATOM     15  C   UNL     1      -8.542 -31.547   4.311  0.00  0.00    +0.000 C 
BRANCH  15  16
ATOM     16  C   UNL     1      -9.419 -31.447   3.060  0.00  0.00    +0.000 C 
ATOM     17  C   UNL     1     -10.297 -31.346   1.809  0.00  0.00    +0.000 C 
BRANCH  17  19
ATOM     18  O   UNL     1     -12.330 -31.386   0.657  0.00  0.00    +0.000 OA
ATOM     19  C   UNL     1     -11.118 -31.249   0.640  0.00  0.00    +0.000 C 
BRANCH  19  20
ATOM     20  O   UNL     1     -10.435 -30.995  -0.490  0.00  0.00    +0.000 OA
ATOM     21  H   UNL     1     -10.344 -30.021  -0.491  0.00  0.00    +0.000 HD
ENDBRANCH  19  20
ENDBRANCH  17  19
ENDBRANCH  15  16
ENDBRANCH  14  15
ENDBRANCH   1  13
TORSDOF 5
ENDMDL
