MODEL 1
REMARK VINA RESULT:      -4.2      0.000      0.000
REMARK  Name = 86311066_OplopantriolA.pdbqt.pdb
REMARK  12 active torsions:
REMARK  status: ('A' for Active; 'I' for Inactive)
REMARK    1  A    between atoms: C_1  and  C_3
REMARK    2  A    between atoms: C_2  and  C_13
REMARK    3  A    between atoms: C_4  and  C_5
REMARK    4  A    between atoms: C_6  and  C_7
REMARK    5  A    between atoms: C_8  and  C_9
REMARK    6  A    between atoms: C_10  and  O_11
REMARK    7  A    between atoms: C_13  and  O_14
REMARK    8  A    between atoms: C_13  and  C_16
REMARK    9  A    between atoms: C_17  and  C_18
REMARK   10  A    between atoms: C_19  and  C_20
REMARK   11  A    between atoms: C_20  and  C_21
REMARK   12  A    between atoms: C_20  and  O_23
REMARK                            x       y       z     vdW  Elec       q    Type
REMARK                         _______ _______ _______ _____ _____    ______ ____
ROOT
ATOM      1  C   UNL     1      -5.575 -13.491  -0.206  0.00  0.00    +0.000 C 
ATOM      2  C   UNL     1      -6.504 -13.349   0.542  0.00  0.00    +0.000 C 
ENDROOT
BRANCH   1   3
ATOM      3  C   UNL     1      -4.390 -13.673  -1.159  0.00  0.00    +0.000 C 
ATOM      4  C   UNL     1      -3.206 -13.854  -2.113  0.00  0.00    +0.000 C 
BRANCH   4   5
ATOM      5  C   UNL     1      -2.021 -14.036  -3.067  0.00  0.00    +0.000 C 
ATOM      6  C   UNL     1      -0.839 -14.217  -4.023  0.00  0.00    +0.000 C 
BRANCH   6   7
ATOM      7  C   UNL     1       0.345 -14.400  -4.978  0.00  0.00    +0.000 C 
ATOM      8  C   UNL     1       1.528 -14.582  -5.934  0.00  0.00    +0.000 C 
BRANCH   8   9
ATOM      9  C   UNL     1       2.712 -14.765  -6.888  0.00  0.00    +0.000 C 
ATOM     10  C   UNL     1       3.896 -14.948  -7.842  0.00  0.00    +0.000 C 
BRANCH  10  11
ATOM     11  O   UNL     1       4.922 -15.107  -8.669  0.00  0.00    +0.000 OA
ATOM     12  H   UNL     1       5.297 -14.243  -8.912  0.00  0.00    +0.000 HD
ENDBRANCH  10  11
ENDBRANCH   8   9
ENDBRANCH   6   7
ENDBRANCH   4   5
ENDBRANCH   1   3
BRANCH   2  13
ATOM     13  C   UNL     1      -7.599 -13.180   1.425  0.00  0.00    +0.000 C 
BRANCH  13  14
ATOM     14  O   UNL     1      -7.409 -12.378   2.527  0.00  0.00    +0.000 OA
ATOM     15  H   UNL     1      -6.701 -12.717   3.099  0.00  0.00    +0.000 HD
ENDBRANCH  13  14
BRANCH  13  16
ATOM     16  C   UNL     1      -8.866 -13.789   1.232  0.00  0.00    +0.000 C 
ATOM     17  C   UNL     1      -9.938 -14.303   1.068  0.00  0.00    +0.000 C 
BRANCH  17  18
ATOM     18  C   UNL     1     -11.305 -14.959   0.857  0.00  0.00    +0.000 C 
ATOM     19  C   UNL     1     -12.377 -15.473   0.692  0.00  0.00    +0.000 C 
BRANCH  19  20
ATOM     20  C   UNL     1     -13.646 -16.081   0.497  0.00  0.00    +0.000 C 
BRANCH  20  21
ATOM     21  C   UNL     1     -13.954 -16.906  -0.621  0.00  0.00    +0.000 C 
ATOM     22  C   UNL     1     -14.242 -17.668  -1.678  0.00  0.00    +0.000 C 
ENDBRANCH  20  21
BRANCH  20  23
ATOM     23  O   UNL     1     -14.630 -15.859   1.439  0.00  0.00    +0.000 OA
ATOM     24  H   UNL     1     -14.641 -16.553   2.121  0.00  0.00    +0.000 HD
ENDBRANCH  20  23
ENDBRANCH  19  20
ENDBRANCH  17  18
ENDBRANCH  13  16
ENDBRANCH   2  13
TORSDOF 12
ENDMDL
MODEL 2
REMARK VINA RESULT:      -4.0     18.156     22.469
REMARK  Name = 86311066_OplopantriolA.pdbqt.pdb
REMARK  12 active torsions:
REMARK  status: ('A' for Active; 'I' for Inactive)
REMARK    1  A    between atoms: C_1  and  C_3
REMARK    2  A    between atoms: C_2  and  C_13
REMARK    3  A    between atoms: C_4  and  C_5
REMARK    4  A    between atoms: C_6  and  C_7
REMARK    5  A    between atoms: C_8  and  C_9
REMARK    6  A    between atoms: C_10  and  O_11
REMARK    7  A    between atoms: C_13  and  O_14
REMARK    8  A    between atoms: C_13  and  C_16
REMARK    9  A    between atoms: C_17  and  C_18
REMARK   10  A    between atoms: C_19  and  C_20
REMARK   11  A    between atoms: C_20  and  C_21
REMARK   12  A    between atoms: C_20  and  O_23
REMARK                            x       y       z     vdW  Elec       q    Type
REMARK                         _______ _______ _______ _____ _____    ______ ____
ROOT
ATOM      1  C   UNL     1      -6.381 -33.127  -4.968  0.00  0.00    +0.000 C 
ATOM      2  C   UNL     1      -5.675 -33.495  -5.867  0.00  0.00    +0.000 C 
ENDROOT
BRANCH   1   3
ATOM      3  C   UNL     1      -7.281 -32.658  -3.821  0.00  0.00    +0.000 C 
ATOM      4  C   UNL     1      -8.182 -32.191  -2.674  0.00  0.00    +0.000 C 
BRANCH   4   5
ATOM      5  C   UNL     1      -9.084 -31.723  -1.528  0.00  0.00    +0.000 C 
ATOM      6  C   UNL     1      -9.985 -31.255  -0.380  0.00  0.00    +0.000 C 
BRANCH   6   7
ATOM      7  C   UNL     1     -10.886 -30.788   0.767  0.00  0.00    +0.000 C 
ATOM      8  C   UNL     1     -11.787 -30.321   1.914  0.00  0.00    +0.000 C 
BRANCH   8   9
ATOM      9  C   UNL     1     -12.688 -29.854   3.060  0.00  0.00    +0.000 C 
ATOM     10  C   UNL     1     -13.591 -29.387   4.206  0.00  0.00    +0.000 C 
BRANCH  10  11
ATOM     11  O   UNL     1     -14.373 -28.982   5.200  0.00  0.00    +0.000 OA
ATOM     12  H   UNL     1     -14.898 -28.212   4.925  0.00  0.00    +0.000 HD
ENDBRANCH  10  11
ENDBRANCH   8   9
ENDBRANCH   6   7
ENDBRANCH   4   5
ENDBRANCH   1   3
BRANCH   2  13
ATOM     13  C   UNL     1      -4.843 -33.928  -6.929  0.00  0.00    +0.000 C 
BRANCH  13  14
ATOM     14  O   UNL     1      -3.563 -34.322  -6.613  0.00  0.00    +0.000 OA
ATOM     15  H   UNL     1      -3.010 -34.411  -7.407  0.00  0.00    +0.000 HD
ENDBRANCH  13  14
BRANCH  13  16
ATOM     16  C   UNL     1      -5.258 -33.975  -8.285  0.00  0.00    +0.000 C 
ATOM     17  C   UNL     1      -5.611 -34.014  -9.431  0.00  0.00    +0.000 C 
BRANCH  17  18
ATOM     18  C   UNL     1      -6.062 -34.065 -10.893  0.00  0.00    +0.000 C 
ATOM     19  C   UNL     1      -6.416 -34.105 -12.040  0.00  0.00    +0.000 C 
BRANCH  19  20
ATOM     20  C   UNL     1      -6.834 -34.150 -13.396  0.00  0.00    +0.000 C 
BRANCH  20  21
ATOM     21  C   UNL     1      -6.830 -33.015 -14.254  0.00  0.00    +0.000 C 
ATOM     22  C   UNL     1      -6.820 -31.942 -15.048  0.00  0.00    +0.000 C 
ENDBRANCH  20  21
BRANCH  20  23
ATOM     23  O   UNL     1      -7.269 -35.357 -13.907  0.00  0.00    +0.000 OA
ATOM     24  H   UNL     1      -7.577 -35.957 -13.206  0.00  0.00    +0.000 HD
ENDBRANCH  20  23
ENDBRANCH  19  20
ENDBRANCH  17  18
ENDBRANCH  13  16
ENDBRANCH   2  13
TORSDOF 12
ENDMDL
MODEL 3
REMARK VINA RESULT:      -3.9     14.864     19.246
REMARK  Name = 86311066_OplopantriolA.pdbqt.pdb
REMARK  12 active torsions:
REMARK  status: ('A' for Active; 'I' for Inactive)
REMARK    1  A    between atoms: C_1  and  C_3
REMARK    2  A    between atoms: C_2  and  C_13
REMARK    3  A    between atoms: C_4  and  C_5
REMARK    4  A    between atoms: C_6  and  C_7
REMARK    5  A    between atoms: C_8  and  C_9
REMARK    6  A    between atoms: C_10  and  O_11
REMARK    7  A    between atoms: C_13  and  O_14
REMARK    8  A    between atoms: C_13  and  C_16
REMARK    9  A    between atoms: C_17  and  C_18
REMARK   10  A    between atoms: C_19  and  C_20
REMARK   11  A    between atoms: C_20  and  C_21
REMARK   12  A    between atoms: C_20  and  O_23
REMARK                            x       y       z     vdW  Elec       q    Type
REMARK                         _______ _______ _______ _____ _____    ______ ____
ROOT
ATOM      1  C   UNL     1     -10.262 -27.398   6.317  0.00  0.00    +0.000 C 
ATOM      2  C   UNL     1      -9.549 -28.001   7.072  0.00  0.00    +0.000 C 
ENDROOT
BRANCH   1   3
ATOM      3  C   UNL     1     -11.171 -26.629   5.354  0.00  0.00    +0.000 C 
ATOM      4  C   UNL     1     -12.081 -25.860   4.391  0.00  0.00    +0.000 C 
BRANCH   4   5
ATOM      5  C   UNL     1     -12.991 -25.092   3.427  0.00  0.00    +0.000 C 
ATOM      6  C   UNL     1     -13.902 -24.326   2.464  0.00  0.00    +0.000 C 
BRANCH   6   7
ATOM      7  C   UNL     1     -14.812 -23.559   1.500  0.00  0.00    +0.000 C 
ATOM      8  C   UNL     1     -15.723 -22.792   0.536  0.00  0.00    +0.000 C 
BRANCH   8   9
ATOM      9  C   UNL     1     -16.632 -22.025  -0.429  0.00  0.00    +0.000 C 
ATOM     10  C   UNL     1     -17.541 -21.257  -1.393  0.00  0.00    +0.000 C 
BRANCH  10  11
ATOM     11  O   UNL     1     -18.329 -20.592  -2.230  0.00  0.00    +0.000 OA
ATOM     12  H   UNL     1     -18.983 -20.070  -1.735  0.00  0.00    +0.000 HD
ENDBRANCH  10  11
ENDBRANCH   8   9
ENDBRANCH   6   7
ENDBRANCH   4   5
ENDBRANCH   1   3
BRANCH   2  13
ATOM     13  C   UNL     1      -8.708 -28.711   7.964  0.00  0.00    +0.000 C 
BRANCH  13  14
ATOM     14  O   UNL     1      -8.560 -28.207   9.236  0.00  0.00    +0.000 OA
ATOM     15  H   UNL     1      -9.288 -27.607   9.470  0.00  0.00    +0.000 HD
ENDBRANCH  13  14
BRANCH  13  16
ATOM     16  C   UNL     1      -8.019 -29.902   7.616  0.00  0.00    +0.000 C 
ATOM     17  C   UNL     1      -7.435 -30.908   7.321  0.00  0.00    +0.000 C 
BRANCH  17  18
ATOM     18  C   UNL     1      -6.689 -32.191   6.946  0.00  0.00    +0.000 C 
ATOM     19  C   UNL     1      -6.104 -33.197   6.651  0.00  0.00    +0.000 C 
BRANCH  19  20
ATOM     20  C   UNL     1      -5.413 -34.388   6.302  0.00  0.00    +0.000 C 
BRANCH  20  21
ATOM     21  C   UNL     1      -5.705 -35.147   5.135  0.00  0.00    +0.000 C 
ATOM     22  C   UNL     1      -5.975 -35.873   4.048  0.00  0.00    +0.000 C 
ENDBRANCH  20  21
BRANCH  20  23
ATOM     23  O   UNL     1      -4.408 -34.831   7.138  0.00  0.00    +0.000 OA
ATOM     24  H   UNL     1      -4.084 -35.711   6.880  0.00  0.00    +0.000 HD
ENDBRANCH  20  23
ENDBRANCH  19  20
ENDBRANCH  17  18
ENDBRANCH  13  16
ENDBRANCH   2  13
TORSDOF 12
ENDMDL
MODEL 4
REMARK VINA RESULT:      -3.9      5.725      5.907
REMARK  Name = 86311066_OplopantriolA.pdbqt.pdb
REMARK  12 active torsions:
REMARK  status: ('A' for Active; 'I' for Inactive)
REMARK    1  A    between atoms: C_1  and  C_3
REMARK    2  A    between atoms: C_2  and  C_13
REMARK    3  A    between atoms: C_4  and  C_5
REMARK    4  A    between atoms: C_6  and  C_7
REMARK    5  A    between atoms: C_8  and  C_9
REMARK    6  A    between atoms: C_10  and  O_11
REMARK    7  A    between atoms: C_13  and  O_14
REMARK    8  A    between atoms: C_13  and  C_16
REMARK    9  A    between atoms: C_17  and  C_18
REMARK   10  A    between atoms: C_19  and  C_20
REMARK   11  A    between atoms: C_20  and  C_21
REMARK   12  A    between atoms: C_20  and  O_23
REMARK                            x       y       z     vdW  Elec       q    Type
REMARK                         _______ _______ _______ _____ _____    ______ ____
ROOT
ATOM      1  C   UNL     1      -6.958 -17.449   1.577  0.00  0.00    +0.000 C 
ATOM      2  C   UNL     1      -8.070 -17.045   1.784  0.00  0.00    +0.000 C 
ENDROOT
BRANCH   1   3
ATOM      3  C   UNL     1      -5.541 -17.963   1.312  0.00  0.00    +0.000 C 
ATOM      4  C   UNL     1      -4.123 -18.478   1.047  0.00  0.00    +0.000 C 
BRANCH   4   5
ATOM      5  C   UNL     1      -2.704 -18.993   0.783  0.00  0.00    +0.000 C 
ATOM      6  C   UNL     1      -1.286 -19.506   0.518  0.00  0.00    +0.000 C 
BRANCH   6   7
ATOM      7  C   UNL     1       0.132 -20.020   0.253  0.00  0.00    +0.000 C 
ATOM      8  C   UNL     1       1.551 -20.535  -0.012  0.00  0.00    +0.000 C 
BRANCH   8   9
ATOM      9  C   UNL     1       2.968 -21.050  -0.277  0.00  0.00    +0.000 C 
ATOM     10  C   UNL     1       4.386 -21.567  -0.542  0.00  0.00    +0.000 C 
BRANCH  10  11
ATOM     11  O   UNL     1       5.614 -22.014  -0.772  0.00  0.00    +0.000 OA
ATOM     12  H   UNL     1       5.841 -21.912  -1.712  0.00  0.00    +0.000 HD
ENDBRANCH  10  11
ENDBRANCH   8   9
ENDBRANCH   6   7
ENDBRANCH   4   5
ENDBRANCH   1   3
BRANCH   2  13
ATOM     13  C   UNL     1      -9.382 -16.570   2.028  0.00  0.00    +0.000 C 
BRANCH  13  14
ATOM     14  O   UNL     1      -9.541 -15.612   3.003  0.00  0.00    +0.000 OA
ATOM     15  H   UNL     1     -10.313 -15.796   3.564  0.00  0.00    +0.000 HD
ENDBRANCH  13  14
BRANCH  13  16
ATOM     16  C   UNL     1     -10.528 -17.027   1.326  0.00  0.00    +0.000 C 
ATOM     17  C   UNL     1     -11.496 -17.413   0.731  0.00  0.00    +0.000 C 
BRANCH  17  18
ATOM     18  C   UNL     1     -12.730 -17.907  -0.028  0.00  0.00    +0.000 C 
ATOM     19  C   UNL     1     -13.698 -18.294  -0.625  0.00  0.00    +0.000 C 
BRANCH  19  20
ATOM     20  C   UNL     1     -14.842 -18.753  -1.330  0.00  0.00    +0.000 C 
BRANCH  20  21
ATOM     21  C   UNL     1     -15.493 -17.992  -2.341  0.00  0.00    +0.000 C 
ATOM     22  C   UNL     1     -16.119 -17.281  -3.282  0.00  0.00    +0.000 C 
ENDBRANCH  20  21
BRANCH  20  23
ATOM     23  O   UNL     1     -15.347 -19.999  -1.019  0.00  0.00    +0.000 OA
ATOM     24  H   UNL     1     -15.738 -20.435  -1.796  0.00  0.00    +0.000 HD
ENDBRANCH  20  23
ENDBRANCH  19  20
ENDBRANCH  17  18
ENDBRANCH  13  16
ENDBRANCH   2  13
TORSDOF 12
ENDMDL
MODEL 5
REMARK VINA RESULT:      -3.8     10.016     13.914
REMARK  Name = 86311066_OplopantriolA.pdbqt.pdb
REMARK  12 active torsions:
REMARK  status: ('A' for Active; 'I' for Inactive)
REMARK    1  A    between atoms: C_1  and  C_3
REMARK    2  A    between atoms: C_2  and  C_13
REMARK    3  A    between atoms: C_4  and  C_5
REMARK    4  A    between atoms: C_6  and  C_7
REMARK    5  A    between atoms: C_8  and  C_9
REMARK    6  A    between atoms: C_10  and  O_11
REMARK    7  A    between atoms: C_13  and  O_14
REMARK    8  A    between atoms: C_13  and  C_16
REMARK    9  A    between atoms: C_17  and  C_18
REMARK   10  A    between atoms: C_19  and  C_20
REMARK   11  A    between atoms: C_20  and  C_21
REMARK   12  A    between atoms: C_20  and  O_23
REMARK                            x       y       z     vdW  Elec       q    Type
REMARK                         _______ _______ _______ _____ _____    ______ ____
ROOT
ATOM      1  C   UNL     1       3.434 -19.799  -2.670  0.00  0.00    +0.000 C 
ATOM      2  C   UNL     1       3.046 -18.677  -2.490  0.00  0.00    +0.000 C 
ENDROOT
BRANCH   1   3
ATOM      3  C   UNL     1       3.927 -21.230  -2.900  0.00  0.00    +0.000 C 
ATOM      4  C   UNL     1       4.421 -22.662  -3.128  0.00  0.00    +0.000 C 
BRANCH   4   5
ATOM      5  C   UNL     1       4.915 -24.094  -3.356  0.00  0.00    +0.000 C 
ATOM      6  C   UNL     1       5.411 -25.525  -3.583  0.00  0.00    +0.000 C 
BRANCH   6   7
ATOM      7  C   UNL     1       5.907 -26.957  -3.810  0.00  0.00    +0.000 C 
ATOM      8  C   UNL     1       6.402 -28.388  -4.038  0.00  0.00    +0.000 C 
BRANCH   8   9
ATOM      9  C   UNL     1       6.897 -29.819  -4.266  0.00  0.00    +0.000 C 
ATOM     10  C   UNL     1       7.393 -31.250  -4.496  0.00  0.00    +0.000 C 
BRANCH  10  11
ATOM     11  O   UNL     1       7.822 -32.491  -4.694  0.00  0.00    +0.000 OA
ATOM     12  H   UNL     1       8.379 -32.533  -5.490  0.00  0.00    +0.000 HD
ENDBRANCH  10  11
ENDBRANCH   8   9
ENDBRANCH   6   7
ENDBRANCH   4   5
ENDBRANCH   1   3
BRANCH   2  13
ATOM     13  C   UNL     1       2.590 -17.353  -2.276  0.00  0.00    +0.000 C 
BRANCH  13  14
ATOM     14  O   UNL     1       2.850 -16.781  -1.052  0.00  0.00    +0.000 OA
ATOM     15  H   UNL     1       3.787 -16.537  -0.963  0.00  0.00    +0.000 HD
ENDBRANCH  13  14
BRANCH  13  16
ATOM     16  C   UNL     1       1.887 -16.596  -3.248  0.00  0.00    +0.000 C 
ATOM     17  C   UNL     1       1.291 -15.956  -4.070  0.00  0.00    +0.000 C 
BRANCH  17  18
ATOM     18  C   UNL     1       0.531 -15.137  -5.117  0.00  0.00    +0.000 C 
ATOM     19  C   UNL     1      -0.065 -14.495  -5.939  0.00  0.00    +0.000 C 
BRANCH  19  20
ATOM     20  C   UNL     1      -0.772 -13.737  -6.909  0.00  0.00    +0.000 C 
BRANCH  20  21
ATOM     21  C   UNL     1      -0.224 -12.595  -7.559  0.00  0.00    +0.000 C 
ATOM     22  C   UNL     1       0.298 -11.522  -8.155  0.00  0.00    +0.000 C 
ENDBRANCH  20  21
BRANCH  20  23
ATOM     23  O   UNL     1      -2.054 -14.127  -7.239  0.00  0.00    +0.000 OA
ATOM     24  H   UNL     1      -2.350 -13.728  -8.075  0.00  0.00    +0.000 HD
ENDBRANCH  20  23
ENDBRANCH  19  20
ENDBRANCH  17  18
ENDBRANCH  13  16
ENDBRANCH   2  13
TORSDOF 12
ENDMDL
MODEL 6
REMARK VINA RESULT:      -3.7      4.519      5.364
REMARK  Name = 86311066_OplopantriolA.pdbqt.pdb
REMARK  12 active torsions:
REMARK  status: ('A' for Active; 'I' for Inactive)
REMARK    1  A    between atoms: C_1  and  C_3
REMARK    2  A    between atoms: C_2  and  C_13
REMARK    3  A    between atoms: C_4  and  C_5
REMARK    4  A    between atoms: C_6  and  C_7
REMARK    5  A    between atoms: C_8  and  C_9
REMARK    6  A    between atoms: C_10  and  O_11
REMARK    7  A    between atoms: C_13  and  O_14
REMARK    8  A    between atoms: C_13  and  C_16
REMARK    9  A    between atoms: C_17  and  C_18
REMARK   10  A    between atoms: C_19  and  C_20
REMARK   11  A    between atoms: C_20  and  C_21
REMARK   12  A    between atoms: C_20  and  O_23
REMARK                            x       y       z     vdW  Elec       q    Type
REMARK                         _______ _______ _______ _____ _____    ______ ____
ROOT
ATOM      1  C   UNL     1      -2.282 -14.257  -1.212  0.00  0.00    +0.000 C 
ATOM      2  C   UNL     1      -3.159 -13.468  -0.984  0.00  0.00    +0.000 C 
ENDROOT
BRANCH   1   3
ATOM      3  C   UNL     1      -1.165 -15.263  -1.502  0.00  0.00    +0.000 C 
ATOM      4  C   UNL     1      -0.047 -16.270  -1.790  0.00  0.00    +0.000 C 
BRANCH   4   5
ATOM      5  C   UNL     1       1.072 -17.275  -2.079  0.00  0.00    +0.000 C 
ATOM      6  C   UNL     1       2.189 -18.283  -2.367  0.00  0.00    +0.000 C 
BRANCH   6   7
ATOM      7  C   UNL     1       3.307 -19.290  -2.655  0.00  0.00    +0.000 C 
ATOM      8  C   UNL     1       4.425 -20.296  -2.942  0.00  0.00    +0.000 C 
BRANCH   8   9
ATOM      9  C   UNL     1       5.542 -21.304  -3.229  0.00  0.00    +0.000 C 
ATOM     10  C   UNL     1       6.660 -22.311  -3.516  0.00  0.00    +0.000 C 
BRANCH  10  11
ATOM     11  O   UNL     1       7.629 -23.184  -3.765  0.00  0.00    +0.000 OA
ATOM     12  H   UNL     1       8.355 -23.073  -3.128  0.00  0.00    +0.000 HD
ENDBRANCH  10  11
ENDBRANCH   8   9
ENDBRANCH   6   7
ENDBRANCH   4   5
ENDBRANCH   1   3
BRANCH   2  13
ATOM     13  C   UNL     1      -4.192 -12.537  -0.715  0.00  0.00    +0.000 C 
BRANCH  13  14
ATOM     14  O   UNL     1      -3.944 -11.213  -0.999  0.00  0.00    +0.000 OA
ATOM     15  H   UNL     1      -4.383 -10.623  -0.363  0.00  0.00    +0.000 HD
ENDBRANCH  13  14
BRANCH  13  16
ATOM     16  C   UNL     1      -5.453 -12.896  -0.173  0.00  0.00    +0.000 C 
ATOM     17  C   UNL     1      -6.520 -13.199   0.285  0.00  0.00    +0.000 C 
BRANCH  17  18
ATOM     18  C   UNL     1      -7.880 -13.585   0.872  0.00  0.00    +0.000 C 
ATOM     19  C   UNL     1      -8.947 -13.887   1.333  0.00  0.00    +0.000 C 
BRANCH  19  20
ATOM     20  C   UNL     1     -10.209 -14.244   1.878  0.00  0.00    +0.000 C 
BRANCH  20  21
ATOM     21  C   UNL     1     -11.341 -14.570   1.081  0.00  0.00    +0.000 C 
ATOM     22  C   UNL     1     -12.411 -14.862   0.339  0.00  0.00    +0.000 C 
ENDBRANCH  20  21
BRANCH  20  23
ATOM     23  O   UNL     1     -10.343 -14.277   3.252  0.00  0.00    +0.000 OA
ATOM     24  H   UNL     1      -9.662 -13.742   3.695  0.00  0.00    +0.000 HD
ENDBRANCH  20  23
ENDBRANCH  19  20
ENDBRANCH  17  18
ENDBRANCH  13  16
ENDBRANCH   2  13
TORSDOF 12
ENDMDL
MODEL 7
REMARK VINA RESULT:      -3.6     21.037     21.652
REMARK  Name = 86311066_OplopantriolA.pdbqt.pdb
REMARK  12 active torsions:
REMARK  status: ('A' for Active; 'I' for Inactive)
REMARK    1  A    between atoms: C_1  and  C_3
REMARK    2  A    between atoms: C_2  and  C_13
REMARK    3  A    between atoms: C_4  and  C_5
REMARK    4  A    between atoms: C_6  and  C_7
REMARK    5  A    between atoms: C_8  and  C_9
REMARK    6  A    between atoms: C_10  and  O_11
REMARK    7  A    between atoms: C_13  and  O_14
REMARK    8  A    between atoms: C_13  and  C_16
REMARK    9  A    between atoms: C_17  and  C_18
REMARK   10  A    between atoms: C_19  and  C_20
REMARK   11  A    between atoms: C_20  and  C_21
REMARK   12  A    between atoms: C_20  and  O_23
REMARK                            x       y       z     vdW  Elec       q    Type
REMARK                         _______ _______ _______ _____ _____    ______ ____
ROOT
ATOM      1  C   UNL     1      -4.700 -36.304   3.852  0.00  0.00    +0.000 C 
ATOM      2  C   UNL     1      -5.400 -35.926   4.752  0.00  0.00    +0.000 C 
ENDROOT
BRANCH   1   3
ATOM      3  C   UNL     1      -3.808 -36.786   2.706  0.00  0.00    +0.000 C 
ATOM      4  C   UNL     1      -2.915 -37.268   1.558  0.00  0.00    +0.000 C 
BRANCH   4   5
ATOM      5  C   UNL     1      -2.022 -37.751   0.410  0.00  0.00    +0.000 C 
ATOM      6  C   UNL     1      -1.128 -38.233  -0.736  0.00  0.00    +0.000 C 
BRANCH   6   7
ATOM      7  C   UNL     1      -0.235 -38.715  -1.883  0.00  0.00    +0.000 C 
ATOM      8  C   UNL     1       0.659 -39.197  -3.030  0.00  0.00    +0.000 C 
BRANCH   8   9
ATOM      9  C   UNL     1       1.551 -39.680  -4.177  0.00  0.00    +0.000 C 
ATOM     10  C   UNL     1       2.444 -40.163  -5.324  0.00  0.00    +0.000 C 
BRANCH  10  11
ATOM     11  O   UNL     1       3.218 -40.581  -6.319  0.00  0.00    +0.000 OA
ATOM     12  H   UNL     1       3.218 -41.552  -6.361  0.00  0.00    +0.000 HD
ENDBRANCH  10  11
ENDBRANCH   8   9
ENDBRANCH   6   7
ENDBRANCH   4   5
ENDBRANCH   1   3
BRANCH   2  13
ATOM     13  C   UNL     1      -6.225 -35.479   5.813  0.00  0.00    +0.000 C 
BRANCH  13  14
ATOM     14  O   UNL     1      -6.483 -36.366   6.834  0.00  0.00    +0.000 OA
ATOM     15  H   UNL     1      -7.315 -36.154   7.290  0.00  0.00    +0.000 HD
ENDBRANCH  13  14
BRANCH  13  16
ATOM     16  C   UNL     1      -6.791 -34.180   5.877  0.00  0.00    +0.000 C 
ATOM     17  C   UNL     1      -7.271 -33.081   5.932  0.00  0.00    +0.000 C 
BRANCH  17  18
ATOM     18  C   UNL     1      -7.884 -31.680   6.002  0.00  0.00    +0.000 C 
ATOM     19  C   UNL     1      -8.365 -30.581   6.057  0.00  0.00    +0.000 C 
BRANCH  19  20
ATOM     20  C   UNL     1      -8.934 -29.282   6.124  0.00  0.00    +0.000 C 
BRANCH  20  21
ATOM     21  C   UNL     1     -10.269 -28.992   5.726  0.00  0.00    +0.000 C 
ATOM     22  C   UNL     1     -11.516 -28.714   5.339  0.00  0.00    +0.000 C 
ENDBRANCH  20  21
BRANCH  20  23
ATOM     23  O   UNL     1      -8.151 -28.248   6.598  0.00  0.00    +0.000 OA
ATOM     24  H   UNL     1      -8.192 -28.178   7.567  0.00  0.00    +0.000 HD
ENDBRANCH  20  23
ENDBRANCH  19  20
ENDBRANCH  17  18
ENDBRANCH  13  16
ENDBRANCH   2  13
TORSDOF 12
ENDMDL
MODEL 8
REMARK VINA RESULT:      -3.6     13.300     18.502
REMARK  Name = 86311066_OplopantriolA.pdbqt.pdb
REMARK  12 active torsions:
REMARK  status: ('A' for Active; 'I' for Inactive)
REMARK    1  A    between atoms: C_1  and  C_3
REMARK    2  A    between atoms: C_2  and  C_13
REMARK    3  A    between atoms: C_4  and  C_5
REMARK    4  A    between atoms: C_6  and  C_7
REMARK    5  A    between atoms: C_8  and  C_9
REMARK    6  A    between atoms: C_10  and  O_11
REMARK    7  A    between atoms: C_13  and  O_14
REMARK    8  A    between atoms: C_13  and  C_16
REMARK    9  A    between atoms: C_17  and  C_18
REMARK   10  A    between atoms: C_19  and  C_20
REMARK   11  A    between atoms: C_20  and  C_21
REMARK   12  A    between atoms: C_20  and  O_23
REMARK                            x       y       z     vdW  Elec       q    Type
REMARK                         _______ _______ _______ _____ _____    ______ ____
ROOT
ATOM      1  C   UNL     1      -3.185 -18.217 -15.683  0.00  0.00    +0.000 C 
ATOM      2  C   UNL     1      -2.117 -18.763 -15.760  0.00  0.00    +0.000 C 
ENDROOT
BRANCH   1   3
ATOM      3  C   UNL     1      -4.546 -17.523 -15.587  0.00  0.00    +0.000 C 
ATOM      4  C   UNL     1      -5.907 -16.827 -15.492  0.00  0.00    +0.000 C 
BRANCH   4   5
ATOM      5  C   UNL     1      -7.269 -16.131 -15.397  0.00  0.00    +0.000 C 
ATOM      6  C   UNL     1      -8.629 -15.433 -15.301  0.00  0.00    +0.000 C 
BRANCH   6   7
ATOM      7  C   UNL     1      -9.989 -14.736 -15.204  0.00  0.00    +0.000 C 
ATOM      8  C   UNL     1     -11.349 -14.039 -15.108  0.00  0.00    +0.000 C 
BRANCH   8   9
ATOM      9  C   UNL     1     -12.710 -13.342 -15.013  0.00  0.00    +0.000 C 
ATOM     10  C   UNL     1     -14.071 -12.645 -14.919  0.00  0.00    +0.000 C 
BRANCH  10  11
ATOM     11  O   UNL     1     -15.250 -12.041 -14.837  0.00  0.00    +0.000 OA
ATOM     12  H   UNL     1     -15.549 -11.761 -15.719  0.00  0.00    +0.000 HD
ENDBRANCH  10  11
ENDBRANCH   8   9
ENDBRANCH   6   7
ENDBRANCH   4   5
ENDBRANCH   1   3
BRANCH   2  13
ATOM     13  C   UNL     1      -0.858 -19.404 -15.850  0.00  0.00    +0.000 C 
BRANCH  13  14
ATOM     14  O   UNL     1      -0.572 -20.084 -17.011  0.00  0.00    +0.000 OA
ATOM     15  H   UNL     1      -0.959 -19.645 -17.787  0.00  0.00    +0.000 HD
ENDBRANCH  13  14
BRANCH  13  16
ATOM     16  C   UNL     1       0.113 -19.382 -14.815  0.00  0.00    +0.000 C 
ATOM     17  C   UNL     1       0.933 -19.361 -13.939  0.00  0.00    +0.000 C 
BRANCH  17  18
ATOM     18  C   UNL     1       1.979 -19.334 -12.821  0.00  0.00    +0.000 C 
ATOM     19  C   UNL     1       2.800 -19.312 -11.945  0.00  0.00    +0.000 C 
BRANCH  19  20
ATOM     20  C   UNL     1       3.771 -19.286 -10.909  0.00  0.00    +0.000 C 
BRANCH  20  21
ATOM     21  C   UNL     1       4.280 -18.083 -10.346  0.00  0.00    +0.000 C 
ATOM     22  C   UNL     1       4.772 -16.956  -9.826  0.00  0.00    +0.000 C 
ENDBRANCH  20  21
BRANCH  20  23
ATOM     23  O   UNL     1       4.244 -20.489 -10.425  0.00  0.00    +0.000 OA
ATOM     24  H   UNL     1       5.203 -20.461 -10.263  0.00  0.00    +0.000 HD
ENDBRANCH  20  23
ENDBRANCH  19  20
ENDBRANCH  17  18
ENDBRANCH  13  16
ENDBRANCH   2  13
TORSDOF 12
ENDMDL
MODEL 9
REMARK VINA RESULT:      -3.6     19.028     22.756
REMARK  Name = 86311066_OplopantriolA.pdbqt.pdb
REMARK  12 active torsions:
REMARK  status: ('A' for Active; 'I' for Inactive)
REMARK    1  A    between atoms: C_1  and  C_3
REMARK    2  A    between atoms: C_2  and  C_13
REMARK    3  A    between atoms: C_4  and  C_5
REMARK    4  A    between atoms: C_6  and  C_7
REMARK    5  A    between atoms: C_8  and  C_9
REMARK    6  A    between atoms: C_10  and  O_11
REMARK    7  A    between atoms: C_13  and  O_14
REMARK    8  A    between atoms: C_13  and  C_16
REMARK    9  A    between atoms: C_17  and  C_18
REMARK   10  A    between atoms: C_19  and  C_20
REMARK   11  A    between atoms: C_20  and  C_21
REMARK   12  A    between atoms: C_20  and  O_23
REMARK                            x       y       z     vdW  Elec       q    Type
REMARK                         _______ _______ _______ _____ _____    ______ ____
ROOT
ATOM      1  C   UNL     1     -10.056 -34.788  -3.775  0.00  0.00    +0.000 C 
ATOM      2  C   UNL     1     -10.248 -35.277  -4.855  0.00  0.00    +0.000 C 
ENDROOT
BRANCH   1   3
ATOM      3  C   UNL     1      -9.810 -34.165  -2.398  0.00  0.00    +0.000 C 
ATOM      4  C   UNL     1      -9.564 -33.541  -1.021  0.00  0.00    +0.000 C 
BRANCH   4   5
ATOM      5  C   UNL     1      -9.317 -32.917   0.356  0.00  0.00    +0.000 C 
ATOM      6  C   UNL     1      -9.068 -32.293   1.732  0.00  0.00    +0.000 C 
BRANCH   6   7
ATOM      7  C   UNL     1      -8.819 -31.669   3.109  0.00  0.00    +0.000 C 
ATOM      8  C   UNL     1      -8.570 -31.046   4.485  0.00  0.00    +0.000 C 
BRANCH   8   9
ATOM      9  C   UNL     1      -8.322 -30.423   5.863  0.00  0.00    +0.000 C 
ATOM     10  C   UNL     1      -8.072 -29.800   7.239  0.00  0.00    +0.000 C 
BRANCH  10  11
ATOM     11  O   UNL     1      -7.857 -29.261   8.433  0.00  0.00    +0.000 OA
ATOM     12  H   UNL     1      -8.271 -29.800   9.128  0.00  0.00    +0.000 HD
ENDBRANCH  10  11
ENDBRANCH   8   9
ENDBRANCH   6   7
ENDBRANCH   4   5
ENDBRANCH   1   3
BRANCH   2  13
ATOM     13  C   UNL     1     -10.476 -35.855  -6.128  0.00  0.00    +0.000 C 
BRANCH  13  14
ATOM     14  O   UNL     1      -9.383 -36.334  -6.814  0.00  0.00    +0.000 OA
ATOM     15  H   UNL     1      -9.161 -35.770  -7.573  0.00  0.00    +0.000 HD
ENDBRANCH  13  14
BRANCH  13  16
ATOM     16  C   UNL     1     -11.758 -35.963  -6.725  0.00  0.00    +0.000 C 
ATOM     17  C   UNL     1     -12.844 -36.053  -7.230  0.00  0.00    +0.000 C 
BRANCH  17  18
ATOM     18  C   UNL     1     -14.228 -36.167  -7.874  0.00  0.00    +0.000 C 
ATOM     19  C   UNL     1     -15.314 -36.256  -8.378  0.00  0.00    +0.000 C 
BRANCH  19  20
ATOM     20  C   UNL     1     -16.599 -36.360  -8.975  0.00  0.00    +0.000 C 
BRANCH  20  21
ATOM     21  C   UNL     1     -16.822 -36.948 -10.251  0.00  0.00    +0.000 C 
ATOM     22  C   UNL     1     -17.024 -37.512 -11.444  0.00  0.00    +0.000 C 
ENDBRANCH  20  21
BRANCH  20  23
ATOM     23  O   UNL     1     -17.685 -35.864  -8.282  0.00  0.00    +0.000 OA
ATOM     24  H   UNL     1     -18.288 -35.368  -8.861  0.00  0.00    +0.000 HD
ENDBRANCH  20  23
ENDBRANCH  19  20
ENDBRANCH  17  18
ENDBRANCH  13  16
ENDBRANCH   2  13
TORSDOF 12
ENDMDL
