MODEL 1
REMARK VINA RESULT:      -7.8      0.000      0.000
REMARK  Name = 91746246_sitosterol.pdbqt.pdb
REMARK  10 active torsions:
REMARK  status: ('A' for Active; 'I' for Inactive)
REMARK    1  A    between atoms: C_5  and  C_20
REMARK    2  A    between atoms: C_19  and  O_30
REMARK    3  A    between atoms: C_20  and  C_22
REMARK    4  A    between atoms: C_23  and  C_24
REMARK    5  A    between atoms: C_24  and  C_28
REMARK    6  A    between atoms: O_30  and  C_32
REMARK    7  A    between atoms: C_32  and  C_33
REMARK    8  A    between atoms: C_34  and  C_35
REMARK    9  A    between atoms: C_38  and  O_41
REMARK   10  A    between atoms: C_40  and  O_43
REMARK                            x       y       z     vdW  Elec       q    Type
REMARK                         _______ _______ _______ _____ _____    ______ ____
ROOT
ATOM      1  C   UNL     1       1.741 -33.702 -11.148  0.00  0.00    +0.000 C 
ATOM      2  C   UNL     1       3.275 -34.082 -10.788  0.00  0.00    +0.000 C 
ATOM      3  C   UNL     1       4.164 -33.161 -10.053  0.00  0.00    +0.000 C 
ATOM      4  C   UNL     1       3.738 -31.907  -9.329  0.00  0.00    +0.000 C 
ATOM      5  C   UNL     1       0.986 -34.987 -10.833  0.00  0.00    +0.000 C 
ATOM      6  C   UNL     1       1.428 -32.571 -10.276  0.00  0.00    +0.000 C 
ATOM      7  C   UNL     1       4.726 -30.946  -8.618  0.00  0.00    +0.000 C 
ATOM      8  C   UNL     1       3.313 -35.487 -10.519  0.00  0.00    +0.000 C 
ATOM      9  C   UNL     1       2.337 -31.703  -9.442  0.00  0.00    +0.000 C 
ATOM     10  C   UNL     1       1.909 -36.028 -10.520  0.00  0.00    +0.000 C 
ATOM     11  C   UNL     1       5.527 -33.480  -9.833  0.00  0.00    +0.000 C 
ATOM     12  C   UNL     1       1.698 -33.383 -12.666  0.00  0.00    +0.000 C 
ATOM     13  C   UNL     1       6.206 -31.610  -8.313  0.00  0.00    +0.000 C 
ATOM     14  C   UNL     1       4.215 -30.584  -7.263  0.00  0.00    +0.000 C 
ATOM     15  C   UNL     1       6.473 -32.692  -8.977  0.00  0.00    +0.000 C 
ATOM     16  C   UNL     1       4.958 -29.693  -9.512  0.00  0.00    +0.000 C 
ATOM     17  C   UNL     1       6.642 -31.544  -6.936  0.00  0.00    +0.000 C 
ATOM     18  C   UNL     1       4.817 -30.635  -5.848  0.00  0.00    +0.000 C 
ATOM     19  C   UNL     1       6.145 -31.144  -5.646  0.00  0.00    +0.000 C 
ENDROOT
BRANCH   5  20
ATOM     20  C   UNL     1      -0.409 -35.179 -11.073  0.00  0.00    +0.000 C 
ATOM     21  C   UNL     1      -0.958 -35.446 -12.449  0.00  0.00    +0.000 C 
BRANCH  20  22
ATOM     22  C   UNL     1      -1.373 -34.879 -10.071  0.00  0.00    +0.000 C 
ATOM     23  C   UNL     1      -2.416 -34.554  -8.990  0.00  0.00    +0.000 C 
BRANCH  23  24
ATOM     24  C   UNL     1      -3.386 -34.236  -7.992  0.00  0.00    +0.000 C 
ATOM     25  C   UNL     1      -4.722 -33.813  -8.354  0.00  0.00    +0.000 C 
ATOM     26  C   UNL     1      -5.775 -33.425  -7.339  0.00  0.00    +0.000 C 
ATOM     27  C   UNL     1      -5.192 -33.724  -9.791  0.00  0.00    +0.000 C 
BRANCH  24  28
ATOM     28  C   UNL     1      -3.034 -34.335  -6.620  0.00  0.00    +0.000 C 
ATOM     29  C   UNL     1      -2.605 -34.486  -5.156  0.00  0.00    +0.000 C 
ENDBRANCH  24  28
ENDBRANCH  23  24
ENDBRANCH  20  22
ENDBRANCH   5  20
BRANCH  19  30
ATOM     30  O   UNL     1       7.020 -30.516  -4.765  0.00  0.00    +0.000 OA
BRANCH  30  32
ATOM     31  O   UNL     1       6.099 -30.801  -2.649  0.00  0.00    +0.000 OA
ATOM     32  C   UNL     1       6.387 -30.121  -3.622  0.00  0.00    +0.000 C 
BRANCH  32  33
ATOM     33  C   UNL     1       6.087 -28.710  -3.645  0.00  0.00    +0.000 C 
ATOM     34  C   UNL     1       5.825 -27.538  -3.678  0.00  0.00    +0.000 C 
BRANCH  34  35
ATOM     35  C   UNL     1       5.504 -26.150  -3.734  0.00  0.00    +0.000 A 
ATOM     36  C   UNL     1       6.041 -25.355  -4.746  0.00  0.00    +0.000 A 
ATOM     37  C   UNL     1       4.663 -25.589  -2.777  0.00  0.00    +0.000 A 
ATOM     38  C   UNL     1       5.743 -23.992  -4.814  0.00  0.00    +0.000 A 
ATOM     39  C   UNL     1       4.357 -24.231  -2.832  0.00  0.00    +0.000 A 
ATOM     40  C   UNL     1       4.898 -23.442  -3.847  0.00  0.00    +0.000 A 
BRANCH  38  41
ATOM     41  O   UNL     1       6.230 -23.140  -5.775  0.00  0.00    +0.000 OA
ATOM     42  C   UNL     1       6.791 -23.759  -6.904  0.00  0.00    +0.000 C 
ENDBRANCH  38  41
BRANCH  40  43
ATOM     43  O   UNL     1       4.596 -22.108  -3.895  0.00  0.00    +0.000 OA
ATOM     44  H   UNL     1       5.237 -21.664  -4.481  0.00  0.00    +0.000 HD
ENDBRANCH  40  43
ENDBRANCH  34  35
ENDBRANCH  32  33
ENDBRANCH  30  32
ENDBRANCH  19  30
TORSDOF 10
ENDMDL
MODEL 2
REMARK VINA RESULT:      -7.5      9.163     13.040
REMARK  Name = 91746246_sitosterol.pdbqt.pdb
REMARK  10 active torsions:
REMARK  status: ('A' for Active; 'I' for Inactive)
REMARK    1  A    between atoms: C_5  and  C_20
REMARK    2  A    between atoms: C_19  and  O_30
REMARK    3  A    between atoms: C_20  and  C_22
REMARK    4  A    between atoms: C_23  and  C_24
REMARK    5  A    between atoms: C_24  and  C_28
REMARK    6  A    between atoms: O_30  and  C_32
REMARK    7  A    between atoms: C_32  and  C_33
REMARK    8  A    between atoms: C_34  and  C_35
REMARK    9  A    between atoms: C_38  and  O_41
REMARK   10  A    between atoms: C_40  and  O_43
REMARK                            x       y       z     vdW  Elec       q    Type
REMARK                         _______ _______ _______ _____ _____    ______ ____
ROOT
ATOM      1  C   UNL     1      -3.135 -36.479  -4.679  0.00  0.00    +0.000 C 
ATOM      2  C   UNL     1      -4.057 -35.210  -5.088  0.00  0.00    +0.000 C 
ATOM      3  C   UNL     1      -4.080 -34.661  -6.458  0.00  0.00    +0.000 C 
ATOM      4  C   UNL     1      -3.493 -35.315  -7.685  0.00  0.00    +0.000 C 
ATOM      5  C   UNL     1      -4.068 -37.317  -3.814  0.00  0.00    +0.000 C 
ATOM      6  C   UNL     1      -2.761 -37.088  -5.955  0.00  0.00    +0.000 C 
ATOM      7  C   UNL     1      -3.499 -34.665  -9.093  0.00  0.00    +0.000 C 
ATOM      8  C   UNL     1      -5.265 -35.301  -4.328  0.00  0.00    +0.000 C 
ATOM      9  C   UNL     1      -2.890 -36.559  -7.362  0.00  0.00    +0.000 C 
ATOM     10  C   UNL     1      -5.278 -36.603  -3.574  0.00  0.00    +0.000 C 
ATOM     11  C   UNL     1      -4.823 -33.494  -6.765  0.00  0.00    +0.000 C 
ATOM     12  C   UNL     1      -1.945 -35.926  -3.850  0.00  0.00    +0.000 C 
ATOM     13  C   UNL     1      -4.580 -33.428  -9.257  0.00  0.00    +0.000 C 
ATOM     14  C   UNL     1      -3.936 -35.654 -10.121  0.00  0.00    +0.000 C 
ATOM     15  C   UNL     1      -5.035 -32.942  -8.143  0.00  0.00    +0.000 C 
ATOM     16  C   UNL     1      -2.087 -34.086  -9.399  0.00  0.00    +0.000 C 
ATOM     17  C   UNL     1      -5.507 -33.559 -10.359  0.00  0.00    +0.000 C 
ATOM     18  C   UNL     1      -5.017 -35.648 -11.215  0.00  0.00    +0.000 C 
ATOM     19  C   UNL     1      -5.879 -34.510 -11.372  0.00  0.00    +0.000 C 
ENDROOT
BRANCH   5  20
ATOM     20  C   UNL     1      -3.678 -38.512  -3.137  0.00  0.00    +0.000 C 
ATOM     21  C   UNL     1      -3.578 -39.840  -3.840  0.00  0.00    +0.000 C 
BRANCH  20  22
ATOM     22  C   UNL     1      -3.607 -38.560  -1.717  0.00  0.00    +0.000 C 
ATOM     23  C   UNL     1      -3.528 -38.610  -0.183  0.00  0.00    +0.000 C 
BRANCH  23  24
ATOM     24  C   UNL     1      -3.439 -38.664   1.240  0.00  0.00    +0.000 C 
ATOM     25  C   UNL     1      -4.134 -37.704   2.072  0.00  0.00    +0.000 C 
ATOM     26  C   UNL     1      -4.041 -37.690   3.582  0.00  0.00    +0.000 C 
ATOM     27  C   UNL     1      -5.026 -36.622   1.501  0.00  0.00    +0.000 C 
BRANCH  24  28
ATOM     28  C   UNL     1      -2.653 -39.676   1.854  0.00  0.00    +0.000 C 
ATOM     29  C   UNL     1      -1.748 -40.736   2.492  0.00  0.00    +0.000 C 
ENDBRANCH  24  28
ENDBRANCH  23  24
ENDBRANCH  20  22
ENDBRANCH   5  20
BRANCH  19  30
ATOM     30  O   UNL     1      -6.205 -34.034 -12.639  0.00  0.00    +0.000 OA
BRANCH  30  32
ATOM     31  O   UNL     1      -8.490 -33.931 -12.224  0.00  0.00    +0.000 OA
ATOM     32  C   UNL     1      -7.447 -33.469 -12.660  0.00  0.00    +0.000 C 
BRANCH  32  33
ATOM     33  C   UNL     1      -7.420 -32.158 -13.260  0.00  0.00    +0.000 C 
ATOM     34  C   UNL     1      -7.385 -31.071 -13.772  0.00  0.00    +0.000 C 
BRANCH  34  35
ATOM     35  C   UNL     1      -7.329 -29.788 -14.392  0.00  0.00    +0.000 A 
ATOM     36  C   UNL     1      -8.430 -29.316 -15.104  0.00  0.00    +0.000 A 
ATOM     37  C   UNL     1      -6.176 -29.014 -14.292  0.00  0.00    +0.000 A 
ATOM     38  C   UNL     1      -8.394 -28.063 -15.723  0.00  0.00    +0.000 A 
ATOM     39  C   UNL     1      -6.125 -27.764 -14.904  0.00  0.00    +0.000 A 
ATOM     40  C   UNL     1      -7.230 -27.297 -15.616  0.00  0.00    +0.000 A 
BRANCH  38  41
ATOM     41  O   UNL     1      -9.432 -27.525 -16.443  0.00  0.00    +0.000 OA
ATOM     42  C   UNL     1      -9.614 -28.055 -17.731  0.00  0.00    +0.000 C 
ENDBRANCH  38  41
BRANCH  40  43
ATOM     43  O   UNL     1      -7.173 -26.069 -16.216  0.00  0.00    +0.000 OA
ATOM     44  H   UNL     1      -7.443 -26.165 -17.149  0.00  0.00    +0.000 HD
ENDBRANCH  40  43
ENDBRANCH  34  35
ENDBRANCH  32  33
ENDBRANCH  30  32
ENDBRANCH  19  30
TORSDOF 10
ENDMDL
MODEL 3
REMARK VINA RESULT:      -7.4     16.675     21.162
REMARK  Name = 91746246_sitosterol.pdbqt.pdb
REMARK  10 active torsions:
REMARK  status: ('A' for Active; 'I' for Inactive)
REMARK    1  A    between atoms: C_5  and  C_20
REMARK    2  A    between atoms: C_19  and  O_30
REMARK    3  A    between atoms: C_20  and  C_22
REMARK    4  A    between atoms: C_23  and  C_24
REMARK    5  A    between atoms: C_24  and  C_28
REMARK    6  A    between atoms: O_30  and  C_32
REMARK    7  A    between atoms: C_32  and  C_33
REMARK    8  A    between atoms: C_34  and  C_35
REMARK    9  A    between atoms: C_38  and  O_41
REMARK   10  A    between atoms: C_40  and  O_43
REMARK                            x       y       z     vdW  Elec       q    Type
REMARK                         _______ _______ _______ _____ _____    ______ ____
ROOT
ATOM      1  C   UNL     1       0.256 -14.101  -5.293  0.00  0.00    +0.000 C 
ATOM      2  C   UNL     1      -1.222 -14.749  -5.137  0.00  0.00    +0.000 C 
ATOM      3  C   UNL     1      -1.968 -14.712  -3.863  0.00  0.00    +0.000 C 
ATOM      4  C   UNL     1      -1.615 -13.884  -2.653  0.00  0.00    +0.000 C 
ATOM      5  C   UNL     1       0.176 -13.386  -6.636  0.00  0.00    +0.000 C 
ATOM      6  C   UNL     1       0.398 -13.224  -4.132  0.00  0.00    +0.000 C 
ATOM      7  C   UNL     1      -2.407 -13.927  -1.320  0.00  0.00    +0.000 C 
ATOM      8  C   UNL     1      -1.906 -14.553  -6.378  0.00  0.00    +0.000 C 
ATOM      9  C   UNL     1      -0.439 -13.121  -2.881  0.00  0.00    +0.000 C 
ATOM     10  C   UNL     1      -1.058 -13.696  -7.279  0.00  0.00    +0.000 C 
ATOM     11  C   UNL     1      -3.217 -15.368  -3.729  0.00  0.00    +0.000 C 
ATOM     12  C   UNL     1       1.264 -15.280  -5.343  0.00  0.00    +0.000 C 
ATOM     13  C   UNL     1      -3.915 -14.584  -1.456  0.00  0.00    +0.000 C 
ATOM     14  C   UNL     1      -2.669 -12.543  -0.826  0.00  0.00    +0.000 C 
ATOM     15  C   UNL     1      -4.123 -15.269  -2.538  0.00  0.00    +0.000 C 
ATOM     16  C   UNL     1      -1.622 -14.782  -0.282  0.00  0.00    +0.000 C 
ATOM     17  C   UNL     1      -4.996 -13.759  -0.967  0.00  0.00    +0.000 C 
ATOM     18  C   UNL     1      -3.936 -11.788  -0.392  0.00  0.00    +0.000 C 
ATOM     19  C   UNL     1      -5.217 -12.435  -0.448  0.00  0.00    +0.000 C 
ENDROOT
BRANCH   5  20
ATOM     20  C   UNL     1       1.278 -12.726  -7.260  0.00  0.00    +0.000 C 
ATOM     21  C   UNL     1       1.513 -11.245  -7.121  0.00  0.00    +0.000 C 
BRANCH  20  22
ATOM     22  C   UNL     1       2.063 -13.385  -8.247  0.00  0.00    +0.000 C 
ATOM     23  C   UNL     1       2.909 -14.099  -9.312  0.00  0.00    +0.000 C 
BRANCH  23  24
ATOM     24  C   UNL     1       3.695 -14.777 -10.292  0.00  0.00    +0.000 C 
ATOM     25  C   UNL     1       5.135 -14.639 -10.326  0.00  0.00    +0.000 C 
ATOM     26  C   UNL     1       6.011 -15.301 -11.367  0.00  0.00    +0.000 C 
ATOM     27  C   UNL     1       5.902 -13.814  -9.312  0.00  0.00    +0.000 C 
BRANCH  24  28
ATOM     28  C   UNL     1       3.052 -15.603 -11.254  0.00  0.00    +0.000 C 
ATOM     29  C   UNL     1       2.346 -16.436 -12.329  0.00  0.00    +0.000 C 
ENDBRANCH  24  28
ENDBRANCH  23  24
ENDBRANCH  20  22
ENDBRANCH   5  20
BRANCH  19  30
ATOM     30  O   UNL     1      -6.141 -12.273   0.580  0.00  0.00    +0.000 OA
BRANCH  30  32
ATOM     31  O   UNL     1      -7.810 -11.420  -0.798  0.00  0.00    +0.000 OA
ATOM     32  C   UNL     1      -7.413 -12.150   0.098  0.00  0.00    +0.000 C 
BRANCH  32  33
ATOM     33  C   UNL     1      -8.320 -13.049   0.767  0.00  0.00    +0.000 C 
ATOM     34  C   UNL     1      -9.078 -13.809   1.309  0.00  0.00    +0.000 C 
BRANCH  34  35
ATOM     35  C   UNL     1      -9.977 -14.721   1.935  0.00  0.00    +0.000 A 
ATOM     36  C   UNL     1     -10.964 -15.350   1.177  0.00  0.00    +0.000 A 
ATOM     37  C   UNL     1      -9.875 -14.977   3.299  0.00  0.00    +0.000 A 
ATOM     38  C   UNL     1     -11.859 -16.243   1.773  0.00  0.00    +0.000 A 
ATOM     39  C   UNL     1     -10.760 -15.864   3.907  0.00  0.00    +0.000 A 
ATOM     40  C   UNL     1     -11.745 -16.490   3.143  0.00  0.00    +0.000 A 
BRANCH  38  41
ATOM     41  O   UNL     1     -12.859 -16.902   1.100  0.00  0.00    +0.000 OA
ATOM     42  C   UNL     1     -13.114 -16.445  -0.203  0.00  0.00    +0.000 C 
ENDBRANCH  38  41
BRANCH  40  43
ATOM     43  O   UNL     1     -12.613 -17.359   3.746  0.00  0.00    +0.000 OA
ATOM     44  H   UNL     1     -13.234 -17.697   3.073  0.00  0.00    +0.000 HD
ENDBRANCH  40  43
ENDBRANCH  34  35
ENDBRANCH  32  33
ENDBRANCH  30  32
ENDBRANCH  19  30
TORSDOF 10
ENDMDL
MODEL 4
REMARK VINA RESULT:      -7.4      6.218     11.158
REMARK  Name = 91746246_sitosterol.pdbqt.pdb
REMARK  10 active torsions:
REMARK  status: ('A' for Active; 'I' for Inactive)
REMARK    1  A    between atoms: C_5  and  C_20
REMARK    2  A    between atoms: C_19  and  O_30
REMARK    3  A    between atoms: C_20  and  C_22
REMARK    4  A    between atoms: C_23  and  C_24
REMARK    5  A    between atoms: C_24  and  C_28
REMARK    6  A    between atoms: O_30  and  C_32
REMARK    7  A    between atoms: C_32  and  C_33
REMARK    8  A    between atoms: C_34  and  C_35
REMARK    9  A    between atoms: C_38  and  O_41
REMARK   10  A    between atoms: C_40  and  O_43
REMARK                            x       y       z     vdW  Elec       q    Type
REMARK                         _______ _______ _______ _____ _____    ______ ____
ROOT
ATOM      1  C   UNL     1       3.530 -34.791 -11.009  0.00  0.00    +0.000 C 
ATOM      2  C   UNL     1       2.549 -33.504 -10.920  0.00  0.00    +0.000 C 
ATOM      3  C   UNL     1       1.090 -33.636 -10.727  0.00  0.00    +0.000 C 
ATOM      4  C   UNL     1       0.358 -34.896 -10.338  0.00  0.00    +0.000 C 
ATOM      5  C   UNL     1       4.719 -34.377 -10.152  0.00  0.00    +0.000 C 
ATOM      6  C   UNL     1       2.737 -35.896 -10.472  0.00  0.00    +0.000 C 
ATOM      7  C   UNL     1      -1.184 -34.988 -10.202  0.00  0.00    +0.000 C 
ATOM      8  C   UNL     1       3.272 -32.464 -10.256  0.00  0.00    +0.000 C 
ATOM      9  C   UNL     1       1.259 -35.982 -10.176  0.00  0.00    +0.000 C 
ATOM     10  C   UNL     1       4.585 -33.011  -9.765  0.00  0.00    +0.000 C 
ATOM     11  C   UNL     1       0.245 -32.499 -10.747  0.00  0.00    +0.000 C 
ATOM     12  C   UNL     1       3.937 -34.949 -12.498  0.00  0.00    +0.000 C 
ATOM     13  C   UNL     1      -1.935 -33.525 -10.066  0.00  0.00    +0.000 C 
ATOM     14  C   UNL     1      -1.554 -35.694  -8.940  0.00  0.00    +0.000 C 
ATOM     15  C   UNL     1      -1.217 -32.501 -10.415  0.00  0.00    +0.000 C 
ATOM     16  C   UNL     1      -1.770 -35.692 -11.461  0.00  0.00    +0.000 C 
ATOM     17  C   UNL     1      -2.797 -33.377  -8.915  0.00  0.00    +0.000 C 
ATOM     18  C   UNL     1      -2.476 -35.351  -7.758  0.00  0.00    +0.000 C 
ATOM     19  C   UNL     1      -3.176 -34.097  -7.728  0.00  0.00    +0.000 C 
ENDROOT
BRANCH   5  20
ATOM     20  C   UNL     1       5.904 -35.157  -9.991  0.00  0.00    +0.000 C 
ATOM     21  C   UNL     1       7.222 -34.754 -10.595  0.00  0.00    +0.000 C 
BRANCH  20  22
ATOM     22  C   UNL     1       5.844 -36.478  -9.464  0.00  0.00    +0.000 C 
ATOM     23  C   UNL     1       5.783 -37.904  -8.895  0.00  0.00    +0.000 C 
BRANCH  23  24
ATOM     24  C   UNL     1       5.741 -39.233  -8.375  0.00  0.00    +0.000 C 
ATOM     25  C   UNL     1       6.903 -40.094  -8.424  0.00  0.00    +0.000 C 
ATOM     26  C   UNL     1       6.901 -41.522  -7.926  0.00  0.00    +0.000 C 
ATOM     27  C   UNL     1       8.237 -39.638  -8.979  0.00  0.00    +0.000 C 
BRANCH  24  28
ATOM     28  C   UNL     1       4.536 -39.720  -7.801  0.00  0.00    +0.000 C 
ATOM     29  C   UNL     1       3.223 -40.182  -7.158  0.00  0.00    +0.000 C 
ENDBRANCH  24  28
ENDBRANCH  23  24
ENDBRANCH  20  22
ENDBRANCH   5  20
BRANCH  19  30
ATOM     30  O   UNL     1      -4.501 -34.032  -7.309  0.00  0.00    +0.000 OA
BRANCH  30  32
ATOM     31  O   UNL     1      -4.233 -31.797  -6.725  0.00  0.00    +0.000 OA
ATOM     32  C   UNL     1      -4.746 -32.897  -6.590  0.00  0.00    +0.000 C 
BRANCH  32  33
ATOM     33  C   UNL     1      -5.768 -33.112  -5.595  0.00  0.00    +0.000 C 
ATOM     34  C   UNL     1      -6.620 -33.272  -4.764  0.00  0.00    +0.000 C 
BRANCH  34  35
ATOM     35  C   UNL     1      -7.631 -33.443  -3.773  0.00  0.00    +0.000 A 
ATOM     36  C   UNL     1      -8.023 -32.359  -2.989  0.00  0.00    +0.000 A 
ATOM     37  C   UNL     1      -8.220 -34.691  -3.584  0.00  0.00    +0.000 A 
ATOM     38  C   UNL     1      -9.008 -32.507  -2.009  0.00  0.00    +0.000 A 
ATOM     39  C   UNL     1      -9.202 -34.853  -2.610  0.00  0.00    +0.000 A 
ATOM     40  C   UNL     1      -9.589 -33.765  -1.830  0.00  0.00    +0.000 A 
BRANCH  38  41
ATOM     41  O   UNL     1      -9.449 -31.493  -1.195  0.00  0.00    +0.000 OA
ATOM     42  C   UNL     1      -8.671 -31.252  -0.052  0.00  0.00    +0.000 C 
ENDBRANCH  38  41
BRANCH  40  43
ATOM     43  O   UNL     1     -10.554 -33.931  -0.874  0.00  0.00    +0.000 OA
ATOM     44  H   UNL     1     -11.429 -33.874  -1.300  0.00  0.00    +0.000 HD
ENDBRANCH  40  43
ENDBRANCH  34  35
ENDBRANCH  32  33
ENDBRANCH  30  32
ENDBRANCH  19  30
TORSDOF 10
ENDMDL
MODEL 5
REMARK VINA RESULT:      -7.3      1.398      1.826
REMARK  Name = 91746246_sitosterol.pdbqt.pdb
REMARK  10 active torsions:
REMARK  status: ('A' for Active; 'I' for Inactive)
REMARK    1  A    between atoms: C_5  and  C_20
REMARK    2  A    between atoms: C_19  and  O_30
REMARK    3  A    between atoms: C_20  and  C_22
REMARK    4  A    between atoms: C_23  and  C_24
REMARK    5  A    between atoms: C_24  and  C_28
REMARK    6  A    between atoms: O_30  and  C_32
REMARK    7  A    between atoms: C_32  and  C_33
REMARK    8  A    between atoms: C_34  and  C_35
REMARK    9  A    between atoms: C_38  and  O_41
REMARK   10  A    between atoms: C_40  and  O_43
REMARK                            x       y       z     vdW  Elec       q    Type
REMARK                         _______ _______ _______ _____ _____    ______ ____
ROOT
ATOM      1  C   UNL     1       0.797 -35.302 -11.236  0.00  0.00    +0.000 C 
ATOM      2  C   UNL     1       2.375 -35.468 -10.905  0.00  0.00    +0.000 C 
ATOM      3  C   UNL     1       3.231 -34.319 -10.546  0.00  0.00    +0.000 C 
ATOM      4  C   UNL     1       2.750 -32.934 -10.188  0.00  0.00    +0.000 C 
ATOM      5  C   UNL     1       0.167 -36.477 -10.500  0.00  0.00    +0.000 C 
ATOM      6  C   UNL     1       0.447 -33.983 -10.710  0.00  0.00    +0.000 C 
ATOM      7  C   UNL     1       3.699 -31.749  -9.870  0.00  0.00    +0.000 C 
ATOM      8  C   UNL     1       2.541 -36.724 -10.242  0.00  0.00    +0.000 C 
ATOM      9  C   UNL     1       1.333 -32.855 -10.242  0.00  0.00    +0.000 C 
ATOM     10  C   UNL     1       1.187 -37.322  -9.972  0.00  0.00    +0.000 C 
ATOM     11  C   UNL     1       4.625 -34.478 -10.353  0.00  0.00    +0.000 C 
ATOM     12  C   UNL     1       0.639 -35.451 -12.773  0.00  0.00    +0.000 C 
ATOM     13  C   UNL     1       5.242 -32.205  -9.505  0.00  0.00    +0.000 C 
ATOM     14  C   UNL     1       3.243 -31.032  -8.643  0.00  0.00    +0.000 C 
ATOM     15  C   UNL     1       5.555 -33.418  -9.843  0.00  0.00    +0.000 C 
ATOM     16  C   UNL     1       3.776 -30.807 -11.106  0.00  0.00    +0.000 C 
ATOM     17  C   UNL     1       5.753 -31.708  -8.246  0.00  0.00    +0.000 C 
ATOM     18  C   UNL     1       3.929 -30.625  -7.329  0.00  0.00    +0.000 C 
ATOM     19  C   UNL     1       5.303 -30.972  -7.094  0.00  0.00    +0.000 C 
ENDROOT
BRANCH   5  20
ATOM     20  C   UNL     1      -1.220 -36.813 -10.561  0.00  0.00    +0.000 C 
ATOM     21  C   UNL     1      -1.766 -37.796 -11.561  0.00  0.00    +0.000 C 
BRANCH  20  22
ATOM     22  C   UNL     1      -2.190 -36.052  -9.851  0.00  0.00    +0.000 C 
ATOM     23  C   UNL     1      -3.238 -35.232  -9.082  0.00  0.00    +0.000 C 
BRANCH  23  24
ATOM     24  C   UNL     1      -4.223 -34.483  -8.370  0.00  0.00    +0.000 C 
ATOM     25  C   UNL     1      -5.414 -35.118  -7.848  0.00  0.00    +0.000 C 
ATOM     26  C   UNL     1      -6.508 -34.366  -7.123  0.00  0.00    +0.000 C 
ATOM     27  C   UNL     1      -5.672 -36.605  -7.978  0.00  0.00    +0.000 C 
BRANCH  24  28
ATOM     28  C   UNL     1      -4.033 -33.090  -8.171  0.00  0.00    +0.000 C 
ATOM     29  C   UNL     1      -3.886 -31.574  -7.992  0.00  0.00    +0.000 C 
ENDBRANCH  24  28
ENDBRANCH  23  24
ENDBRANCH  20  22
ENDBRANCH   5  20
BRANCH  19  30
ATOM     30  O   UNL     1       6.177 -30.061  -6.509  0.00  0.00    +0.000 OA
BRANCH  30  32
ATOM     31  O   UNL     1       6.241 -31.030  -4.395  0.00  0.00    +0.000 OA
ATOM     32  C   UNL     1       6.084 -30.079  -5.147  0.00  0.00    +0.000 C 
BRANCH  32  33
ATOM     33  C   UNL     1       5.793 -28.769  -4.620  0.00  0.00    +0.000 C 
ATOM     34  C   UNL     1       5.551 -27.684  -4.163  0.00  0.00    +0.000 C 
BRANCH  34  35
ATOM     35  C   UNL     1       5.263 -26.404  -3.603  0.00  0.00    +0.000 A 
ATOM     36  C   UNL     1       5.587 -25.250  -4.313  0.00  0.00    +0.000 A 
ATOM     37  C   UNL     1       4.668 -26.309  -2.348  0.00  0.00    +0.000 A 
ATOM     38  C   UNL     1       5.318 -23.986  -3.780  0.00  0.00    +0.000 A 
ATOM     39  C   UNL     1       4.394 -25.057  -1.804  0.00  0.00    +0.000 A 
ATOM     40  C   UNL     1       4.721 -23.906  -2.519  0.00  0.00    +0.000 A 
BRANCH  38  41
ATOM     41  O   UNL     1       5.607 -22.801  -4.412  0.00  0.00    +0.000 OA
ATOM     42  C   UNL     1       6.928 -22.347  -4.272  0.00  0.00    +0.000 C 
ENDBRANCH  38  41
BRANCH  40  43
ATOM     43  O   UNL     1       4.452 -22.678  -1.978  0.00  0.00    +0.000 OA
ATOM     44  H   UNL     1       3.604 -22.357  -2.339  0.00  0.00    +0.000 HD
ENDBRANCH  40  43
ENDBRANCH  34  35
ENDBRANCH  32  33
ENDBRANCH  30  32
ENDBRANCH  19  30
TORSDOF 10
ENDMDL
MODEL 6
REMARK VINA RESULT:      -6.9      1.544      2.693
REMARK  Name = 91746246_sitosterol.pdbqt.pdb
REMARK  10 active torsions:
REMARK  status: ('A' for Active; 'I' for Inactive)
REMARK    1  A    between atoms: C_5  and  C_20
REMARK    2  A    between atoms: C_19  and  O_30
REMARK    3  A    between atoms: C_20  and  C_22
REMARK    4  A    between atoms: C_23  and  C_24
REMARK    5  A    between atoms: C_24  and  C_28
REMARK    6  A    between atoms: O_30  and  C_32
REMARK    7  A    between atoms: C_32  and  C_33
REMARK    8  A    between atoms: C_34  and  C_35
REMARK    9  A    between atoms: C_38  and  O_41
REMARK   10  A    between atoms: C_40  and  O_43
REMARK                            x       y       z     vdW  Elec       q    Type
REMARK                         _______ _______ _______ _____ _____    ______ ____
ROOT
ATOM      1  C   UNL     1       0.292 -34.940 -10.854  0.00  0.00    +0.000 C 
ATOM      2  C   UNL     1       1.897 -35.168 -10.875  0.00  0.00    +0.000 C 
ATOM      3  C   UNL     1       2.854 -34.058 -10.698  0.00  0.00    +0.000 C 
ATOM      4  C   UNL     1       2.518 -32.664 -10.230  0.00  0.00    +0.000 C 
ATOM      5  C   UNL     1      -0.210 -36.105 -10.010  0.00  0.00    +0.000 C 
ATOM      6  C   UNL     1       0.117 -33.619 -10.251  0.00  0.00    +0.000 C 
ATOM      7  C   UNL     1       3.559 -31.521 -10.114  0.00  0.00    +0.000 C 
ATOM      8  C   UNL     1       2.153 -36.442 -10.277  0.00  0.00    +0.000 C 
ATOM      9  C   UNL     1       1.127 -32.532  -9.975  0.00  0.00    +0.000 C 
ATOM     10  C   UNL     1       0.867 -36.996  -9.725  0.00  0.00    +0.000 C 
ATOM     11  C   UNL     1       4.250 -34.272 -10.815  0.00  0.00    +0.000 C 
ATOM     12  C   UNL     1      -0.201 -35.054 -12.321  0.00  0.00    +0.000 C 
ATOM     13  C   UNL     1       5.126 -32.038 -10.097  0.00  0.00    +0.000 C 
ATOM     14  C   UNL     1       3.408 -30.810  -8.810  0.00  0.00    +0.000 C 
ATOM     15  C   UNL     1       5.309 -33.256 -10.508  0.00  0.00    +0.000 C 
ATOM     16  C   UNL     1       3.404 -30.558 -11.328  0.00  0.00    +0.000 C 
ATOM     17  C   UNL     1       5.916 -31.584  -8.975  0.00  0.00    +0.000 C 
ATOM     18  C   UNL     1       4.379 -30.453  -7.672  0.00  0.00    +0.000 C 
ATOM     19  C   UNL     1       5.756 -30.854  -7.745  0.00  0.00    +0.000 C 
ENDROOT
BRANCH   5  20
ATOM     20  C   UNL     1      -1.588 -36.388  -9.772  0.00  0.00    +0.000 C 
ATOM     21  C   UNL     1      -2.516 -36.845 -10.866  0.00  0.00    +0.000 C 
BRANCH  20  22
ATOM     22  C   UNL     1      -2.213 -36.016  -8.549  0.00  0.00    +0.000 C 
ATOM     23  C   UNL     1      -2.889 -35.612  -7.230  0.00  0.00    +0.000 C 
BRANCH  23  24
ATOM     24  C   UNL     1      -3.517 -35.220  -6.009  0.00  0.00    +0.000 C 
ATOM     25  C   UNL     1      -3.127 -35.805  -4.744  0.00  0.00    +0.000 C 
ATOM     26  C   UNL     1      -3.787 -35.457  -3.428  0.00  0.00    +0.000 C 
ATOM     27  C   UNL     1      -2.012 -36.824  -4.622  0.00  0.00    +0.000 C 
BRANCH  24  28
ATOM     28  C   UNL     1      -4.544 -34.240  -6.036  0.00  0.00    +0.000 C 
ATOM     29  C   UNL     1      -5.700 -33.233  -6.064  0.00  0.00    +0.000 C 
ENDBRANCH  24  28
ENDBRANCH  23  24
ENDBRANCH  20  22
ENDBRANCH   5  20
BRANCH  19  30
ATOM     30  O   UNL     1       6.771 -29.986  -7.354  0.00  0.00    +0.000 OA
BRANCH  30  32
ATOM     31  O   UNL     1       6.861 -30.606  -5.115  0.00  0.00    +0.000 OA
ATOM     32  C   UNL     1       6.761 -29.776  -6.005  0.00  0.00    +0.000 C 
BRANCH  32  33
ATOM     33  C   UNL     1       6.646 -28.373  -5.690  0.00  0.00    +0.000 C 
ATOM     34  C   UNL     1       6.554 -27.209  -5.409  0.00  0.00    +0.000 C 
BRANCH  34  35
ATOM     35  C   UNL     1       6.447 -25.831  -5.056  0.00  0.00    +0.000 A 
ATOM     36  C   UNL     1       5.448 -25.418  -4.177  0.00  0.00    +0.000 A 
ATOM     37  C   UNL     1       7.333 -24.902  -5.594  0.00  0.00    +0.000 A 
ATOM     38  C   UNL     1       5.323 -24.072  -3.823  0.00  0.00    +0.000 A 
ATOM     39  C   UNL     1       7.220 -23.557  -5.251  0.00  0.00    +0.000 A 
ATOM     40  C   UNL     1       6.218 -23.150  -4.371  0.00  0.00    +0.000 A 
BRANCH  38  41
ATOM     41  O   UNL     1       4.367 -23.581  -2.966  0.00  0.00    +0.000 OA
ATOM     42  C   UNL     1       4.310 -24.199  -1.707  0.00  0.00    +0.000 C 
ENDBRANCH  38  41
BRANCH  40  43
ATOM     43  O   UNL     1       6.111 -21.827  -4.039  0.00  0.00    +0.000 OA
ATOM     44  H   UNL     1       6.400 -21.289  -4.801  0.00  0.00    +0.000 HD
ENDBRANCH  40  43
ENDBRANCH  34  35
ENDBRANCH  32  33
ENDBRANCH  30  32
ENDBRANCH  19  30
TORSDOF 10
ENDMDL
MODEL 7
REMARK VINA RESULT:      -6.8      7.582     12.319
REMARK  Name = 91746246_sitosterol.pdbqt.pdb
REMARK  10 active torsions:
REMARK  status: ('A' for Active; 'I' for Inactive)
REMARK    1  A    between atoms: C_5  and  C_20
REMARK    2  A    between atoms: C_19  and  O_30
REMARK    3  A    between atoms: C_20  and  C_22
REMARK    4  A    between atoms: C_23  and  C_24
REMARK    5  A    between atoms: C_24  and  C_28
REMARK    6  A    between atoms: O_30  and  C_32
REMARK    7  A    between atoms: C_32  and  C_33
REMARK    8  A    between atoms: C_34  and  C_35
REMARK    9  A    between atoms: C_38  and  O_41
REMARK   10  A    between atoms: C_40  and  O_43
REMARK                            x       y       z     vdW  Elec       q    Type
REMARK                         _______ _______ _______ _____ _____    ______ ____
ROOT
ATOM      1  C   UNL     1      -3.319 -36.169  -7.355  0.00  0.00    +0.000 C 
ATOM      2  C   UNL     1      -3.863 -35.655  -5.918  0.00  0.00    +0.000 C 
ATOM      3  C   UNL     1      -3.679 -36.437  -4.679  0.00  0.00    +0.000 C 
ATOM      4  C   UNL     1      -2.778 -37.635  -4.513  0.00  0.00    +0.000 C 
ATOM      5  C   UNL     1      -2.711 -34.910  -7.962  0.00  0.00    +0.000 C 
ATOM      6  C   UNL     1      -2.360 -37.223  -7.029  0.00  0.00    +0.000 C 
ATOM      7  C   UNL     1      -2.665 -38.452  -3.200  0.00  0.00    +0.000 C 
ATOM      8  C   UNL     1      -3.729 -34.231  -5.896  0.00  0.00    +0.000 C 
ATOM      9  C   UNL     1      -2.106 -37.941  -5.727  0.00  0.00    +0.000 C 
ATOM     10  C   UNL     1      -2.999 -33.785  -7.135  0.00  0.00    +0.000 C 
ATOM     11  C   UNL     1      -4.247 -36.009  -3.453  0.00  0.00    +0.000 C 
ATOM     12  C   UNL     1      -4.555 -36.643  -8.165  0.00  0.00    +0.000 C 
ATOM     13  C   UNL     1      -3.241 -37.666  -1.868  0.00  0.00    +0.000 C 
ATOM     14  C   UNL     1      -1.232 -38.707  -2.867  0.00  0.00    +0.000 C 
ATOM     15  C   UNL     1      -3.999 -36.642  -2.117  0.00  0.00    +0.000 C 
ATOM     16  C   UNL     1      -3.477 -39.773  -3.344  0.00  0.00    +0.000 C 
ATOM     17  C   UNL     1      -2.317 -37.563  -0.762  0.00  0.00    +0.000 C 
ATOM     18  C   UNL     1      -0.371 -38.473  -1.614  0.00  0.00    +0.000 C 
ATOM     19  C   UNL     1      -0.944 -37.861  -0.448  0.00  0.00    +0.000 C 
ENDROOT
BRANCH   5  20
ATOM     20  C   UNL     1      -2.170 -34.835  -9.281  0.00  0.00    +0.000 C 
ATOM     21  C   UNL     1      -3.008 -34.463 -10.475  0.00  0.00    +0.000 C 
BRANCH  20  22
ATOM     22  C   UNL     1      -0.876 -35.350  -9.572  0.00  0.00    +0.000 C 
ATOM     23  C   UNL     1       0.522 -35.907  -9.885  0.00  0.00    +0.000 C 
BRANCH  23  24
ATOM     24  C   UNL     1       1.826 -36.417 -10.160  0.00  0.00    +0.000 C 
ATOM     25  C   UNL     1       2.895 -35.545 -10.599  0.00  0.00    +0.000 C 
ATOM     26  C   UNL     1       4.283 -36.039 -10.944  0.00  0.00    +0.000 C 
ATOM     27  C   UNL     1       2.719 -34.048 -10.752  0.00  0.00    +0.000 C 
BRANCH  24  28
ATOM     28  C   UNL     1       2.082 -37.806 -10.001  0.00  0.00    +0.000 C 
ATOM     29  C   UNL     1       2.425 -39.291  -9.839  0.00  0.00    +0.000 C 
ENDBRANCH  24  28
ENDBRANCH  23  24
ENDBRANCH  20  22
ENDBRANCH   5  20
BRANCH  19  30
ATOM     30  O   UNL     1      -0.645 -38.338   0.825  0.00  0.00    +0.000 OA
BRANCH  30  32
ATOM     31  O   UNL     1      -1.560 -40.454   1.128  0.00  0.00    +0.000 OA
ATOM     32  C   UNL     1      -1.576 -39.239   1.255  0.00  0.00    +0.000 C 
BRANCH  32  33
ATOM     33  C   UNL     1      -2.653 -38.590   1.960  0.00  0.00    +0.000 C 
ATOM     34  C   UNL     1      -3.539 -38.039   2.557  0.00  0.00    +0.000 C 
BRANCH  34  35
ATOM     35  C   UNL     1      -4.577 -37.375   3.275  0.00  0.00    +0.000 A 
ATOM     36  C   UNL     1      -5.534 -36.637   2.582  0.00  0.00    +0.000 A 
ATOM     37  C   UNL     1      -4.629 -37.459   4.664  0.00  0.00    +0.000 A 
ATOM     38  C   UNL     1      -6.556 -35.974   3.268  0.00  0.00    +0.000 A 
ATOM     39  C   UNL     1      -5.641 -36.804   5.360  0.00  0.00    +0.000 A 
ATOM     40  C   UNL     1      -6.596 -36.066   4.661  0.00  0.00    +0.000 A 
BRANCH  38  41
ATOM     41  O   UNL     1      -7.536 -35.225   2.663  0.00  0.00    +0.000 OA
ATOM     42  C   UNL     1      -8.155 -35.822   1.553  0.00  0.00    +0.000 C 
ENDBRANCH  38  41
BRANCH  40  43
ATOM     43  O   UNL     1      -7.587 -35.423   5.351  0.00  0.00    +0.000 OA
ATOM     44  H   UNL     1      -8.235 -36.085   5.658  0.00  0.00    +0.000 HD
ENDBRANCH  40  43
ENDBRANCH  34  35
ENDBRANCH  32  33
ENDBRANCH  30  32
ENDBRANCH  19  30
TORSDOF 10
ENDMDL
MODEL 8
REMARK VINA RESULT:      -6.8     17.586     22.049
REMARK  Name = 91746246_sitosterol.pdbqt.pdb
REMARK  10 active torsions:
REMARK  status: ('A' for Active; 'I' for Inactive)
REMARK    1  A    between atoms: C_5  and  C_20
REMARK    2  A    between atoms: C_19  and  O_30
REMARK    3  A    between atoms: C_20  and  C_22
REMARK    4  A    between atoms: C_23  and  C_24
REMARK    5  A    between atoms: C_24  and  C_28
REMARK    6  A    between atoms: O_30  and  C_32
REMARK    7  A    between atoms: C_32  and  C_33
REMARK    8  A    between atoms: C_34  and  C_35
REMARK    9  A    between atoms: C_38  and  O_41
REMARK   10  A    between atoms: C_40  and  O_43
REMARK                            x       y       z     vdW  Elec       q    Type
REMARK                         _______ _______ _______ _____ _____    ______ ____
ROOT
ATOM      1  C   UNL     1       0.388 -13.836  -5.649  0.00  0.00    +0.000 C 
ATOM      2  C   UNL     1      -1.051 -14.562  -5.479  0.00  0.00    +0.000 C 
ATOM      3  C   UNL     1      -1.738 -14.657  -4.175  0.00  0.00    +0.000 C 
ATOM      4  C   UNL     1      -1.365 -13.907  -2.921  0.00  0.00    +0.000 C 
ATOM      5  C   UNL     1       0.215 -13.026  -6.928  0.00  0.00    +0.000 C 
ATOM      6  C   UNL     1       0.546 -13.043  -4.431  0.00  0.00    +0.000 C 
ATOM      7  C   UNL     1      -2.091 -14.086  -1.563  0.00  0.00    +0.000 C 
ATOM      8  C   UNL     1      -1.801 -14.306  -6.671  0.00  0.00    +0.000 C 
ATOM      9  C   UNL     1      -0.235 -13.074  -3.140  0.00  0.00    +0.000 C 
ATOM     10  C   UNL     1      -1.034 -13.344  -7.538  0.00  0.00    +0.000 C 
ATOM     11  C   UNL     1      -2.950 -15.378  -4.038  0.00  0.00    +0.000 C 
ATOM     12  C   UNL     1       1.443 -14.959  -5.834  0.00  0.00    +0.000 C 
ATOM     13  C   UNL     1      -3.573 -14.802  -1.683  0.00  0.00    +0.000 C 
ATOM     14  C   UNL     1      -2.389 -12.757  -0.952  0.00  0.00    +0.000 C 
ATOM     15  C   UNL     1      -3.802 -15.412  -2.805  0.00  0.00    +0.000 C 
ATOM     16  C   UNL     1      -1.222 -14.979  -0.629  0.00  0.00    +0.000 C 
ATOM     17  C   UNL     1      -4.665 -14.067  -1.085  0.00  0.00    +0.000 C 
ATOM     18  C   UNL     1      -3.666 -12.097  -0.405  0.00  0.00    +0.000 C 
ATOM     19  C   UNL     1      -4.919 -12.797  -0.456  0.00  0.00    +0.000 C 
ENDROOT
BRANCH   5  20
ATOM     20  C   UNL     1       1.256 -12.270  -7.546  0.00  0.00    +0.000 C 
ATOM     21  C   UNL     1       2.708 -12.470  -7.205  0.00  0.00    +0.000 C 
BRANCH  20  22
ATOM     22  C   UNL     1       0.959 -11.120  -8.330  0.00  0.00    +0.000 C 
ATOM     23  C   UNL     1       0.637  -9.878  -9.175  0.00  0.00    +0.000 C 
BRANCH  23  24
ATOM     24  C   UNL     1       0.322  -8.731  -9.965  0.00  0.00    +0.000 C 
ATOM     25  C   UNL     1      -0.829  -8.718 -10.842  0.00  0.00    +0.000 C 
ATOM     26  C   UNL     1      -1.185  -7.547 -11.731  0.00  0.00    +0.000 C 
ATOM     27  C   UNL     1      -1.791  -9.884 -10.947  0.00  0.00    +0.000 C 
BRANCH  24  28
ATOM     28  C   UNL     1       1.154  -7.582  -9.891  0.00  0.00    +0.000 C 
ATOM     29  C   UNL     1       2.094  -6.371  -9.858  0.00  0.00    +0.000 C 
ENDBRANCH  24  28
ENDBRANCH  23  24
ENDBRANCH  20  22
ENDBRANCH   5  20
BRANCH  19  30
ATOM     30  O   UNL     1      -5.800 -12.757   0.621  0.00  0.00    +0.000 OA
BRANCH  30  32
ATOM     31  O   UNL     1      -7.175 -11.140  -0.329  0.00  0.00    +0.000 OA
ATOM     32  C   UNL     1      -6.991 -12.186   0.275  0.00  0.00    +0.000 C 
BRANCH  32  33
ATOM     33  C   UNL     1      -8.107 -13.001   0.686  0.00  0.00    +0.000 C 
ATOM     34  C   UNL     1      -9.042 -13.667   1.042  0.00  0.00    +0.000 C 
BRANCH  34  35
ATOM     35  C   UNL     1     -10.156 -14.444   1.477  0.00  0.00    +0.000 A 
ATOM     36  C   UNL     1     -10.128 -15.048   2.733  0.00  0.00    +0.000 A 
ATOM     37  C   UNL     1     -11.263 -14.603   0.648  0.00  0.00    +0.000 A 
ATOM     38  C   UNL     1     -11.207 -15.818   3.176  0.00  0.00    +0.000 A 
ATOM     39  C   UNL     1     -12.345 -15.367   1.077  0.00  0.00    +0.000 A 
ATOM     40  C   UNL     1     -12.312 -15.970   2.333  0.00  0.00    +0.000 A 
BRANCH  38  41
ATOM     41  O   UNL     1     -11.260 -16.448   4.395  0.00  0.00    +0.000 OA
ATOM     42  C   UNL     1     -10.080 -16.398   5.154  0.00  0.00    +0.000 C 
ENDBRANCH  38  41
BRANCH  40  43
ATOM     43  O   UNL     1     -13.377 -16.722   2.748  0.00  0.00    +0.000 OA
ATOM     44  H   UNL     1     -13.186 -17.070   3.639  0.00  0.00    +0.000 HD
ENDBRANCH  40  43
ENDBRANCH  34  35
ENDBRANCH  32  33
ENDBRANCH  30  32
ENDBRANCH  19  30
TORSDOF 10
ENDMDL
MODEL 9
REMARK VINA RESULT:      -6.8     15.091     21.049
REMARK  Name = 91746246_sitosterol.pdbqt.pdb
REMARK  10 active torsions:
REMARK  status: ('A' for Active; 'I' for Inactive)
REMARK    1  A    between atoms: C_5  and  C_20
REMARK    2  A    between atoms: C_19  and  O_30
REMARK    3  A    between atoms: C_20  and  C_22
REMARK    4  A    between atoms: C_23  and  C_24
REMARK    5  A    between atoms: C_24  and  C_28
REMARK    6  A    between atoms: O_30  and  C_32
REMARK    7  A    between atoms: C_32  and  C_33
REMARK    8  A    between atoms: C_34  and  C_35
REMARK    9  A    between atoms: C_38  and  O_41
REMARK   10  A    between atoms: C_40  and  O_43
REMARK                            x       y       z     vdW  Elec       q    Type
REMARK                         _______ _______ _______ _____ _____    ______ ____
ROOT
ATOM      1  C   UNL     1     -15.537 -24.161   2.624  0.00  0.00    +0.000 C 
ATOM      2  C   UNL     1     -14.198 -24.313   3.524  0.00  0.00    +0.000 C 
ATOM      3  C   UNL     1     -13.789 -25.602   4.119  0.00  0.00    +0.000 C 
ATOM      4  C   UNL     1     -14.367 -26.955   3.784  0.00  0.00    +0.000 C 
ATOM      5  C   UNL     1     -15.074 -23.289   1.464  0.00  0.00    +0.000 C 
ATOM      6  C   UNL     1     -15.894 -25.532   2.262  0.00  0.00    +0.000 C 
ATOM      7  C   UNL     1     -13.934 -28.271   4.481  0.00  0.00    +0.000 C 
ATOM      8  C   UNL     1     -13.215 -23.429   2.978  0.00  0.00    +0.000 C 
ATOM      9  C   UNL     1     -15.388 -26.847   2.803  0.00  0.00    +0.000 C 
ATOM     10  C   UNL     1     -13.746 -22.828   1.705  0.00  0.00    +0.000 C 
ATOM     11  C   UNL     1     -12.666 -25.687   4.978  0.00  0.00    +0.000 C 
ATOM     12  C   UNL     1     -16.588 -23.426   3.497  0.00  0.00    +0.000 C 
ATOM     13  C   UNL     1     -12.495 -28.166   5.281  0.00  0.00    +0.000 C 
ATOM     14  C   UNL     1     -13.699 -29.343   3.469  0.00  0.00    +0.000 C 
ATOM     15  C   UNL     1     -12.078 -26.959   5.511  0.00  0.00    +0.000 C 
ATOM     16  C   UNL     1     -15.014 -28.679   5.526  0.00  0.00    +0.000 C 
ATOM     17  C   UNL     1     -11.508 -29.157   4.912  0.00  0.00    +0.000 C 
ATOM     18  C   UNL     1     -12.525 -30.291   3.174  0.00  0.00    +0.000 C 
ATOM     19  C   UNL     1     -11.322 -30.217   3.956  0.00  0.00    +0.000 C 
ENDROOT
BRANCH   5  20
ATOM     20  C   UNL     1     -15.933 -22.800   0.434  0.00  0.00    +0.000 C 
ATOM     21  C   UNL     1     -16.842 -23.705  -0.353  0.00  0.00    +0.000 C 
BRANCH  20  22
ATOM     22  C   UNL     1     -15.792 -21.477  -0.071  0.00  0.00    +0.000 C 
ATOM     23  C   UNL     1     -15.640 -20.048  -0.614  0.00  0.00    +0.000 C 
BRANCH  23  24
ATOM     24  C   UNL     1     -15.516 -18.717  -1.114  0.00  0.00    +0.000 C 
ATOM     25  C   UNL     1     -15.913 -18.383  -2.466  0.00  0.00    +0.000 C 
ATOM     26  C   UNL     1     -15.765 -16.999  -3.059  0.00  0.00    +0.000 C 
ATOM     27  C   UNL     1     -16.521 -19.397  -3.413  0.00  0.00    +0.000 C 
BRANCH  24  28
ATOM     28  C   UNL     1     -14.992 -17.700  -0.272  0.00  0.00    +0.000 C 
ATOM     29  C   UNL     1     -14.461 -16.555   0.599  0.00  0.00    +0.000 C 
ENDBRANCH  24  28
ENDBRANCH  23  24
ENDBRANCH  20  22
ENDBRANCH   5  20
BRANCH  19  30
ATOM     30  O   UNL     1     -10.672 -31.375   4.372  0.00  0.00    +0.000 OA
BRANCH  30  32
ATOM     31  O   UNL     1      -8.406 -31.125   4.833  0.00  0.00    +0.000 OA
ATOM     32  C   UNL     1      -9.340 -31.338   4.075  0.00  0.00    +0.000 C 
BRANCH  32  33
ATOM     33  C   UNL     1      -9.101 -31.624   2.682  0.00  0.00    +0.000 C 
ATOM     34  C   UNL     1      -8.919 -31.869   1.519  0.00  0.00    +0.000 C 
BRANCH  34  35
ATOM     35  C   UNL     1      -8.722 -32.167   0.139  0.00  0.00    +0.000 A 
ATOM     36  C   UNL     1      -9.628 -32.991  -0.527  0.00  0.00    +0.000 A 
ATOM     37  C   UNL     1      -7.625 -31.643  -0.539  0.00  0.00    +0.000 A 
ATOM     38  C   UNL     1      -9.450 -33.300  -1.878  0.00  0.00    +0.000 A 
ATOM     39  C   UNL     1      -7.434 -31.943  -1.886  0.00  0.00    +0.000 A 
ATOM     40  C   UNL     1      -8.344 -32.768  -2.546  0.00  0.00    +0.000 A 
BRANCH  38  41
ATOM     41  O   UNL     1     -10.293 -34.103  -2.607  0.00  0.00    +0.000 OA
ATOM     42  C   UNL     1     -10.381 -35.436  -2.176  0.00  0.00    +0.000 C 
ENDBRANCH  38  41
BRANCH  40  43
ATOM     43  O   UNL     1      -8.150 -33.060  -3.869  0.00  0.00    +0.000 OA
ATOM     44  H   UNL     1      -7.749 -32.284  -4.304  0.00  0.00    +0.000 HD
ENDBRANCH  40  43
ENDBRANCH  34  35
ENDBRANCH  32  33
ENDBRANCH  30  32
ENDBRANCH  19  30
TORSDOF 10
ENDMDL
