MODEL 1
REMARK VINA RESULT:      -3.7      0.000      0.000
REMARK  Name = 92041_2Ethoxy5fluorouracil.pdbqt.pdb
REMARK  2 active torsions:
REMARK  status: ('A' for Active; 'I' for Inactive)
REMARK    1  A    between atoms: C_5  and  O_10
REMARK    2  A    between atoms: O_10  and  C_11
REMARK                            x       y       z     vdW  Elec       q    Type
REMARK                         _______ _______ _______ _____ _____    ______ ____
ROOT
ATOM      1  F   UNL     1       3.074 -33.723   4.626  0.00  0.00    +0.000 F 
ATOM      2  O   UNL     1       1.762 -35.100   2.501  0.00  0.00    +0.000 OA
ATOM      3  N   UNL     1       2.888 -33.754   1.018  0.00  0.00    +0.000 N 
ATOM      4  N   UNL     1       4.534 -32.190   1.681  0.00  0.00    +0.000 NA
ATOM      5  C   UNL     1       3.801 -32.737   0.752  0.00  0.00    +0.000 C 
ATOM      6  C   UNL     1       2.635 -34.269   2.291  0.00  0.00    +0.000 C 
ATOM      7  C   UNL     1       3.514 -33.692   3.358  0.00  0.00    +0.000 C 
ATOM      8  C   UNL     1       4.259 -32.761   2.860  0.00  0.00    +0.000 C 
ATOM      9  H   UNL     1       2.318 -34.115   0.268  0.00  0.00    +0.000 HD
ENDROOT
BRANCH   5  10
ATOM     10  O   UNL     1       3.833 -32.396  -0.557  0.00  0.00    +0.000 OA
BRANCH  10  11
ATOM     11  C   UNL     1       3.891 -31.094  -0.822  0.00  0.00    +0.000 C 
ATOM     12  C   UNL     1       4.009 -29.591  -1.091  0.00  0.00    +0.000 C 
ENDBRANCH  10  11
ENDBRANCH   5  10
TORSDOF 2
ENDMDL
MODEL 2
REMARK VINA RESULT:      -3.7      9.729     10.669
REMARK  Name = 92041_2Ethoxy5fluorouracil.pdbqt.pdb
REMARK  2 active torsions:
REMARK  status: ('A' for Active; 'I' for Inactive)
REMARK    1  A    between atoms: C_5  and  O_10
REMARK    2  A    between atoms: O_10  and  C_11
REMARK                            x       y       z     vdW  Elec       q    Type
REMARK                         _______ _______ _______ _____ _____    ______ ____
ROOT
ATOM      1  F   UNL     1      -6.780 -32.525  -5.219  0.00  0.00    +0.000 F 
ATOM      2  O   UNL     1      -4.515 -32.077  -6.893  0.00  0.00    +0.000 OA
ATOM      3  N   UNL     1      -3.310 -33.482  -5.531  0.00  0.00    +0.000 N 
ATOM      4  N   UNL     1      -4.270 -34.685  -3.736  0.00  0.00    +0.000 NA
ATOM      5  C   UNL     1      -3.227 -34.334  -4.433  0.00  0.00    +0.000 C 
ATOM      6  C   UNL     1      -4.494 -32.892  -5.980  0.00  0.00    +0.000 C 
ATOM      7  C   UNL     1      -5.709 -33.336  -5.226  0.00  0.00    +0.000 C 
ATOM      8  C   UNL     1      -5.365 -34.109  -4.250  0.00  0.00    +0.000 C 
ATOM      9  H   UNL     1      -2.465 -33.211  -6.012  0.00  0.00    +0.000 HD
ENDROOT
BRANCH   5  10
ATOM     10  O   UNL     1      -1.960 -34.741  -4.186  0.00  0.00    +0.000 OA
BRANCH  10  11
ATOM     11  C   UNL     1      -1.778 -36.054  -4.082  0.00  0.00    +0.000 C 
ATOM     12  C   UNL     1      -1.522 -37.556  -3.921  0.00  0.00    +0.000 C 
ENDBRANCH  10  11
ENDBRANCH   5  10
TORSDOF 2
ENDMDL
MODEL 3
REMARK VINA RESULT:      -3.3     10.559     11.165
REMARK  Name = 92041_2Ethoxy5fluorouracil.pdbqt.pdb
REMARK  2 active torsions:
REMARK  status: ('A' for Active; 'I' for Inactive)
REMARK    1  A    between atoms: C_5  and  O_10
REMARK    2  A    between atoms: O_10  and  C_11
REMARK                            x       y       z     vdW  Elec       q    Type
REMARK                         _______ _______ _______ _____ _____    ______ ____
ROOT
ATOM      1  F   UNL     1      -4.440 -34.105  -3.250  0.00  0.00    +0.000 F 
ATOM      2  O   UNL     1      -6.763 -33.247  -4.664  0.00  0.00    +0.000 OA
ATOM      3  N   UNL     1      -5.442 -32.934  -6.519  0.00  0.00    +0.000 N 
ATOM      4  N   UNL     1      -3.152 -33.522  -6.591  0.00  0.00    +0.000 NA
ATOM      5  C   UNL     1      -4.203 -32.994  -7.151  0.00  0.00    +0.000 C 
ATOM      6  C   UNL     1      -5.684 -33.396  -5.223  0.00  0.00    +0.000 C 
ATOM      7  C   UNL     1      -4.501 -34.061  -4.591  0.00  0.00    +0.000 C 
ATOM      8  C   UNL     1      -3.475 -33.972  -5.372  0.00  0.00    +0.000 C 
ATOM      9  H   UNL     1      -6.213 -32.479  -6.982  0.00  0.00    +0.000 HD
ENDROOT
BRANCH   5  10
ATOM     10  O   UNL     1      -4.226 -32.447  -8.390  0.00  0.00    +0.000 OA
BRANCH  10  11
ATOM     11  C   UNL     1      -3.067 -32.424  -9.040  0.00  0.00    +0.000 C 
ATOM     12  C   UNL     1      -1.715 -32.346  -9.756  0.00  0.00    +0.000 C 
ENDBRANCH  10  11
ENDBRANCH   5  10
TORSDOF 2
ENDMDL
MODEL 4
REMARK VINA RESULT:      -3.2     12.371     13.235
REMARK  Name = 92041_2Ethoxy5fluorouracil.pdbqt.pdb
REMARK  2 active torsions:
REMARK  status: ('A' for Active; 'I' for Inactive)
REMARK    1  A    between atoms: C_5  and  O_10
REMARK    2  A    between atoms: O_10  and  C_11
REMARK                            x       y       z     vdW  Elec       q    Type
REMARK                         _______ _______ _______ _____ _____    ______ ____
ROOT
ATOM      1  F   UNL     1      -2.352 -19.363  -0.155  0.00  0.00    +0.000 F 
ATOM      2  O   UNL     1      -1.849 -22.167  -0.037  0.00  0.00    +0.000 OA
ATOM      3  N   UNL     1      -0.273 -21.753   1.584  0.00  0.00    +0.000 N 
ATOM      4  N   UNL     1       0.109 -19.606   2.499  0.00  0.00    +0.000 NA
ATOM      5  C   UNL     1       0.414 -20.870   2.412  0.00  0.00    +0.000 C 
ATOM      6  C   UNL     1      -1.327 -21.383   0.744  0.00  0.00    +0.000 C 
ATOM      7  C   UNL     1      -1.728 -19.947   0.881  0.00  0.00    +0.000 C 
ATOM      8  C   UNL     1      -0.929 -19.341   1.696  0.00  0.00    +0.000 C 
ATOM      9  H   UNL     1       0.030 -22.713   1.525  0.00  0.00    +0.000 HD
ENDROOT
BRANCH   5  10
ATOM     10  O   UNL     1       1.414 -21.472   3.097  0.00  0.00    +0.000 OA
BRANCH  10  11
ATOM     11  C   UNL     1       1.195 -21.676   4.392  0.00  0.00    +0.000 C 
ATOM     12  C   UNL     1       0.889 -21.939   5.870  0.00  0.00    +0.000 C 
ENDBRANCH  10  11
ENDBRANCH   5  10
TORSDOF 2
ENDMDL
MODEL 5
REMARK VINA RESULT:      -3.2      9.593     10.556
REMARK  Name = 92041_2Ethoxy5fluorouracil.pdbqt.pdb
REMARK  2 active torsions:
REMARK  status: ('A' for Active; 'I' for Inactive)
REMARK    1  A    between atoms: C_5  and  O_10
REMARK    2  A    between atoms: O_10  and  C_11
REMARK                            x       y       z     vdW  Elec       q    Type
REMARK                         _______ _______ _______ _____ _____    ______ ____
ROOT
ATOM      1  F   UNL     1      -5.681 -33.089  -6.835  0.00  0.00    +0.000 F 
ATOM      2  O   UNL     1      -6.670 -33.599  -4.210  0.00  0.00    +0.000 OA
ATOM      3  N   UNL     1      -4.540 -34.202  -3.593  0.00  0.00    +0.000 N 
ATOM      4  N   UNL     1      -2.672 -34.011  -5.030  0.00  0.00    +0.000 NA
ATOM      5  C   UNL     1      -3.192 -34.377  -3.893  0.00  0.00    +0.000 C 
ATOM      6  C   UNL     1      -5.477 -33.655  -4.473  0.00  0.00    +0.000 C 
ATOM      7  C   UNL     1      -4.881 -33.174  -5.760  0.00  0.00    +0.000 C 
ATOM      8  C   UNL     1      -3.623 -33.466  -5.800  0.00  0.00    +0.000 C 
ATOM      9  H   UNL     1      -4.899 -34.539  -2.712  0.00  0.00    +0.000 HD
ENDROOT
BRANCH   5  10
ATOM     10  O   UNL     1      -2.506 -34.960  -2.882  0.00  0.00    +0.000 OA
BRANCH  10  11
ATOM     11  C   UNL     1      -2.851 -36.209  -2.585  0.00  0.00    +0.000 C 
ATOM     12  C   UNL     1      -3.237 -37.636  -2.182  0.00  0.00    +0.000 C 
ENDBRANCH  10  11
ENDBRANCH   5  10
TORSDOF 2
ENDMDL
MODEL 6
REMARK VINA RESULT:      -3.1      8.455      9.775
REMARK  Name = 92041_2Ethoxy5fluorouracil.pdbqt.pdb
REMARK  2 active torsions:
REMARK  status: ('A' for Active; 'I' for Inactive)
REMARK    1  A    between atoms: C_5  and  O_10
REMARK    2  A    between atoms: O_10  and  C_11
REMARK                            x       y       z     vdW  Elec       q    Type
REMARK                         _______ _______ _______ _____ _____    ______ ____
ROOT
ATOM      1  F   UNL     1      -3.885 -34.747  -5.963  0.00  0.00    +0.000 F 
ATOM      2  O   UNL     1      -2.434 -33.640  -3.772  0.00  0.00    +0.000 OA
ATOM      3  N   UNL     1      -3.069 -35.457  -2.515  0.00  0.00    +0.000 N 
ATOM      4  N   UNL     1      -4.273 -37.288  -3.403  0.00  0.00    +0.000 NA
ATOM      5  C   UNL     1      -3.730 -36.675  -2.390  0.00  0.00    +0.000 C 
ATOM      6  C   UNL     1      -2.944 -34.751  -3.714  0.00  0.00    +0.000 C 
ATOM      7  C   UNL     1      -3.509 -35.474  -4.898  0.00  0.00    +0.000 C 
ATOM      8  C   UNL     1      -4.079 -36.569  -4.516  0.00  0.00    +0.000 C 
ATOM      9  H   UNL     1      -2.700 -35.006  -1.691  0.00  0.00    +0.000 HD
ENDROOT
BRANCH   5  10
ATOM     10  O   UNL     1      -3.739 -37.132  -1.116  0.00  0.00    +0.000 OA
BRANCH  10  11
ATOM     11  C   UNL     1      -2.580 -37.080  -0.467  0.00  0.00    +0.000 C 
ATOM     12  C   UNL     1      -1.240 -36.959   0.266  0.00  0.00    +0.000 C 
ENDBRANCH  10  11
ENDBRANCH   5  10
TORSDOF 2
ENDMDL
MODEL 7
REMARK VINA RESULT:      -3.1     12.065     12.598
REMARK  Name = 92041_2Ethoxy5fluorouracil.pdbqt.pdb
REMARK  2 active torsions:
REMARK  status: ('A' for Active; 'I' for Inactive)
REMARK    1  A    between atoms: C_5  and  O_10
REMARK    2  A    between atoms: O_10  and  C_11
REMARK                            x       y       z     vdW  Elec       q    Type
REMARK                         _______ _______ _______ _____ _____    ______ ____
ROOT
ATOM      1  F   UNL     1      -9.305 -35.795  -4.343  0.00  0.00    +0.000 F 
ATOM      2  O   UNL     1      -7.982 -36.191  -6.838  0.00  0.00    +0.000 OA
ATOM      3  N   UNL     1      -6.601 -34.430  -6.313  0.00  0.00    +0.000 N 
ATOM      4  N   UNL     1      -6.660 -33.315  -4.228  0.00  0.00    +0.000 NA
ATOM      5  C   UNL     1      -6.187 -33.431  -5.437  0.00  0.00    +0.000 C 
ATOM      6  C   UNL     1      -7.578 -35.383  -6.013  0.00  0.00    +0.000 C 
ATOM      7  C   UNL     1      -8.085 -35.299  -4.606  0.00  0.00    +0.000 C 
ATOM      8  C   UNL     1      -7.559 -34.283  -4.007  0.00  0.00    +0.000 C 
ATOM      9  H   UNL     1      -6.231 -34.451  -7.252  0.00  0.00    +0.000 HD
ENDROOT
BRANCH   5  10
ATOM     10  O   UNL     1      -5.254 -32.616  -5.983  0.00  0.00    +0.000 OA
BRANCH  10  11
ATOM     11  C   UNL     1      -4.171 -33.211  -6.473  0.00  0.00    +0.000 C 
ATOM     12  C   UNL     1      -2.945 -33.951  -7.017  0.00  0.00    +0.000 C 
ENDBRANCH  10  11
ENDBRANCH   5  10
TORSDOF 2
ENDMDL
MODEL 8
REMARK VINA RESULT:      -3.0     30.701     31.571
REMARK  Name = 92041_2Ethoxy5fluorouracil.pdbqt.pdb
REMARK  2 active torsions:
REMARK  status: ('A' for Active; 'I' for Inactive)
REMARK    1  A    between atoms: C_5  and  O_10
REMARK    2  A    between atoms: O_10  and  C_11
REMARK                            x       y       z     vdW  Elec       q    Type
REMARK                         _______ _______ _______ _____ _____    ______ ____
ROOT
ATOM      1  F   UNL     1      -8.254  -6.195  -7.564  0.00  0.00    +0.000 F 
ATOM      2  O   UNL     1      -8.317  -4.536  -5.245  0.00  0.00    +0.000 OA
ATOM      3  N   UNL     1     -10.389  -5.404  -4.759  0.00  0.00    +0.000 N 
ATOM      4  N   UNL     1     -11.389  -7.146  -6.007  0.00  0.00    +0.000 NA
ATOM      5  C   UNL     1     -11.444  -6.265  -5.049  0.00  0.00    +0.000 C 
ATOM      6  C   UNL     1      -9.188  -5.366  -5.471  0.00  0.00    +0.000 C 
ATOM      7  C   UNL     1      -9.087  -6.415  -6.534  0.00  0.00    +0.000 C 
ATOM      8  C   UNL     1     -10.198  -7.071  -6.614  0.00  0.00    +0.000 C 
ATOM      9  H   UNL     1     -10.499  -4.714  -4.031  0.00  0.00    +0.000 HD
ENDROOT
BRANCH   5  10
ATOM     10  O   UNL     1     -12.507  -6.077  -4.232  0.00  0.00    +0.000 OA
BRANCH  10  11
ATOM     11  C   UNL     1     -13.625  -5.655  -4.815  0.00  0.00    +0.000 C 
ATOM     12  C   UNL     1     -14.896  -5.111  -5.475  0.00  0.00    +0.000 C 
ENDBRANCH  10  11
ENDBRANCH   5  10
TORSDOF 2
ENDMDL
MODEL 9
REMARK VINA RESULT:      -3.0     11.197     12.528
REMARK  Name = 92041_2Ethoxy5fluorouracil.pdbqt.pdb
REMARK  2 active torsions:
REMARK  status: ('A' for Active; 'I' for Inactive)
REMARK    1  A    between atoms: C_5  and  O_10
REMARK    2  A    between atoms: O_10  and  C_11
REMARK                            x       y       z     vdW  Elec       q    Type
REMARK                         _______ _______ _______ _____ _____    ______ ____
ROOT
ATOM      1  F   UNL     1       2.960 -32.807  -9.846  0.00  0.00    +0.000 F 
ATOM      2  O   UNL     1       3.054 -30.683  -7.946  0.00  0.00    +0.000 OA
ATOM      3  N   UNL     1       3.239 -29.207  -9.698  0.00  0.00    +0.000 N 
ATOM      4  N   UNL     1       3.101 -29.866 -11.966  0.00  0.00    +0.000 NA
ATOM      5  C   UNL     1       3.294 -28.945 -11.064  0.00  0.00    +0.000 C 
ATOM      6  C   UNL     1       3.007 -30.471  -9.150  0.00  0.00    +0.000 C 
ATOM      7  C   UNL     1       2.722 -31.526 -10.174  0.00  0.00    +0.000 C 
ATOM      8  C   UNL     1       2.850 -31.035 -11.362  0.00  0.00    +0.000 C 
ATOM      9  H   UNL     1       3.434 -28.465  -9.043  0.00  0.00    +0.000 HD
ENDROOT
BRANCH   5  10
ATOM     10  O   UNL     1       3.567 -27.647 -11.333  0.00  0.00    +0.000 OA
BRANCH  10  11
ATOM     11  C   UNL     1       4.778 -27.220 -10.988  0.00  0.00    +0.000 C 
ATOM     12  C   UNL     1       6.150 -26.670 -10.585  0.00  0.00    +0.000 C 
ENDBRANCH  10  11
ENDBRANCH   5  10
TORSDOF 2
ENDMDL
