MODEL 1
REMARK VINA RESULT:      -4.3      0.000      0.000
REMARK  Name = 95716_6Bromoisatin.pdbqt.pdb
REMARK  0 active torsions:
REMARK  status: ('A' for Active; 'I' for Inactive)
REMARK                            x       y       z     vdW  Elec       q    Type
REMARK                         _______ _______ _______ _____ _____    ______ ____
ROOT
ATOM      1 BR   UNL     1      -1.041 -37.446  -9.094  0.00  0.00    +0.000 Br
ATOM      2  O   UNL     1      -4.170 -31.329  -7.854  0.00  0.00    +0.000 OA
ATOM      3  O   UNL     1      -5.713 -32.629  -5.617  0.00  0.00    +0.000 OA
ATOM      4  N   UNL     1      -4.474 -34.473  -6.326  0.00  0.00    +0.000 N 
ATOM      5  C   UNL     1      -3.523 -34.698  -7.318  0.00  0.00    +0.000 A 
ATOM      6  C   UNL     1      -3.264 -33.540  -8.048  0.00  0.00    +0.000 A 
ATOM      7  C   UNL     1      -4.106 -32.481  -7.493  0.00  0.00    +0.000 C 
ATOM      8  C   UNL     1      -2.881 -35.884  -7.598  0.00  0.00    +0.000 A 
ATOM      9  C   UNL     1      -2.359 -33.499  -9.088  0.00  0.00    +0.000 A 
ATOM     10  C   UNL     1      -4.900 -33.158  -6.338  0.00  0.00    +0.000 C 
ATOM     11  C   UNL     1      -1.961 -35.862  -8.649  0.00  0.00    +0.000 A 
ATOM     12  C   UNL     1      -1.700 -34.693  -9.385  0.00  0.00    +0.000 A 
ATOM     13  H   UNL     1      -4.825 -35.156  -5.670  0.00  0.00    +0.000 HD
ENDROOT
TORSDOF 0
ENDMDL
MODEL 2
REMARK VINA RESULT:      -3.9      3.476      4.466
REMARK  Name = 95716_6Bromoisatin.pdbqt.pdb
REMARK  0 active torsions:
REMARK  status: ('A' for Active; 'I' for Inactive)
REMARK                            x       y       z     vdW  Elec       q    Type
REMARK                         _______ _______ _______ _____ _____    ______ ____
ROOT
ATOM      1 BR   UNL     1      -5.966 -33.321  -5.235  0.00  0.00    +0.000 Br
ATOM      2  O   UNL     1      -1.020 -34.927  -9.894  0.00  0.00    +0.000 OA
ATOM      3  O   UNL     1      -0.929 -32.032 -10.721  0.00  0.00    +0.000 OA
ATOM      4  N   UNL     1      -2.574 -31.890  -9.073  0.00  0.00    +0.000 N 
ATOM      5  C   UNL     1      -3.187 -32.798  -8.214  0.00  0.00    +0.000 A 
ATOM      6  C   UNL     1      -2.692 -34.087  -8.395  0.00  0.00    +0.000 A 
ATOM      7  C   UNL     1      -1.680 -34.018  -9.449  0.00  0.00    +0.000 C 
ATOM      8  C   UNL     1      -4.165 -32.527  -7.282  0.00  0.00    +0.000 A 
ATOM      9  C   UNL     1      -3.138 -35.168  -7.664  0.00  0.00    +0.000 A 
ATOM     10  C   UNL     1      -1.638 -32.521  -9.872  0.00  0.00    +0.000 C 
ATOM     11  C   UNL     1      -4.629 -33.611  -6.532  0.00  0.00    +0.000 A 
ATOM     12  C   UNL     1      -4.128 -34.911  -6.715  0.00  0.00    +0.000 A 
ATOM     13  H   UNL     1      -2.764 -30.900  -9.130  0.00  0.00    +0.000 HD
ENDROOT
TORSDOF 0
ENDMDL
MODEL 3
REMARK VINA RESULT:      -3.8     10.427     10.733
REMARK  Name = 95716_6Bromoisatin.pdbqt.pdb
REMARK  0 active torsions:
REMARK  status: ('A' for Active; 'I' for Inactive)
REMARK                            x       y       z     vdW  Elec       q    Type
REMARK                         _______ _______ _______ _____ _____    ______ ____
ROOT
ATOM      1 BR   UNL     1      -2.854 -29.256 -16.828  0.00  0.00    +0.000 Br
ATOM      2  O   UNL     1      -9.069 -27.031 -14.556  0.00  0.00    +0.000 OA
ATOM      3  O   UNL     1     -10.369 -29.316 -16.027  0.00  0.00    +0.000 OA
ATOM      4  N   UNL     1      -8.144 -29.743 -16.579  0.00  0.00    +0.000 N 
ATOM      5  C   UNL     1      -6.924 -29.139 -16.289  0.00  0.00    +0.000 A 
ATOM      6  C   UNL     1      -7.089 -28.019 -15.477  0.00  0.00    +0.000 A 
ATOM      7  C   UNL     1      -8.522 -27.881 -15.218  0.00  0.00    +0.000 C 
ATOM      8  C   UNL     1      -5.677 -29.542 -16.714  0.00  0.00    +0.000 A 
ATOM      9  C   UNL     1      -6.032 -27.245 -15.048  0.00  0.00    +0.000 A 
ATOM     10  C   UNL     1      -9.188 -29.063 -15.981  0.00  0.00    +0.000 C 
ATOM     11  C   UNL     1      -4.594 -28.770 -16.289  0.00  0.00    +0.000 A 
ATOM     12  C   UNL     1      -4.762 -27.639 -15.470  0.00  0.00    +0.000 A 
ATOM     13  H   UNL     1      -8.282 -30.567 -17.147  0.00  0.00    +0.000 HD
ENDROOT
TORSDOF 0
ENDMDL
MODEL 4
REMARK VINA RESULT:      -3.8     16.541     17.350
REMARK  Name = 95716_6Bromoisatin.pdbqt.pdb
REMARK  0 active torsions:
REMARK  status: ('A' for Active; 'I' for Inactive)
REMARK                            x       y       z     vdW  Elec       q    Type
REMARK                         _______ _______ _______ _____ _____    ______ ____
ROOT
ATOM      1 BR   UNL     1      -2.376 -16.615 -15.395  0.00  0.00    +0.000 Br
ATOM      2  O   UNL     1       2.424 -20.952 -12.770  0.00  0.00    +0.000 OA
ATOM      3  O   UNL     1       2.916 -18.982 -10.545  0.00  0.00    +0.000 OA
ATOM      4  N   UNL     1       1.266 -17.815 -11.710  0.00  0.00    +0.000 N 
ATOM      5  C   UNL     1       0.517 -18.053 -12.860  0.00  0.00    +0.000 A 
ATOM      6  C   UNL     1       0.843 -19.278 -13.436  0.00  0.00    +0.000 A 
ATOM      7  C   UNL     1       1.880 -19.887 -12.603  0.00  0.00    +0.000 C 
ATOM      8  C   UNL     1      -0.438 -17.228 -13.413  0.00  0.00    +0.000 A 
ATOM      9  C   UNL     1       0.241 -19.747 -14.585  0.00  0.00    +0.000 A 
ATOM     10  C   UNL     1       2.129 -18.865 -11.456  0.00  0.00    +0.000 C 
ATOM     11  C   UNL     1      -1.058 -17.687 -14.578  0.00  0.00    +0.000 A 
ATOM     12  C   UNL     1      -0.729 -18.924 -15.159  0.00  0.00    +0.000 A 
ATOM     13  H   UNL     1       1.209 -16.998 -11.120  0.00  0.00    +0.000 HD
ENDROOT
TORSDOF 0
ENDMDL
MODEL 5
REMARK VINA RESULT:      -3.6      1.925      2.670
REMARK  Name = 95716_6Bromoisatin.pdbqt.pdb
REMARK  0 active torsions:
REMARK  status: ('A' for Active; 'I' for Inactive)
REMARK                            x       y       z     vdW  Elec       q    Type
REMARK                         _______ _______ _______ _____ _____    ______ ____
ROOT
ATOM      1 BR   UNL     1      -1.718 -36.922 -12.175  0.00  0.00    +0.000 Br
ATOM      2  O   UNL     1      -3.113 -33.649  -6.168  0.00  0.00    +0.000 OA
ATOM      3  O   UNL     1      -3.898 -31.202  -7.740  0.00  0.00    +0.000 OA
ATOM      4  N   UNL     1      -3.332 -32.611  -9.511  0.00  0.00    +0.000 N 
ATOM      5  C   UNL     1      -2.872 -33.920  -9.620  0.00  0.00    +0.000 A 
ATOM      6  C   UNL     1      -2.718 -34.512  -8.369  0.00  0.00    +0.000 A 
ATOM      7  C   UNL     1      -3.107 -33.518  -7.369  0.00  0.00    +0.000 C 
ATOM      8  C   UNL     1      -2.584 -34.605 -10.780  0.00  0.00    +0.000 A 
ATOM      9  C   UNL     1      -2.274 -35.808  -8.204  0.00  0.00    +0.000 A 
ATOM     10  C   UNL     1      -3.511 -32.257  -8.187  0.00  0.00    +0.000 C 
ATOM     11  C   UNL     1      -2.133 -35.918 -10.633  0.00  0.00    +0.000 A 
ATOM     12  C   UNL     1      -1.978 -36.515  -9.370  0.00  0.00    +0.000 A 
ATOM     13  H   UNL     1      -3.520 -31.978 -10.277  0.00  0.00    +0.000 HD
ENDROOT
TORSDOF 0
ENDMDL
MODEL 6
REMARK VINA RESULT:      -3.6     18.748     19.837
REMARK  Name = 95716_6Bromoisatin.pdbqt.pdb
REMARK  0 active torsions:
REMARK  status: ('A' for Active; 'I' for Inactive)
REMARK                            x       y       z     vdW  Elec       q    Type
REMARK                         _______ _______ _______ _____ _____    ______ ____
ROOT
ATOM      1 BR   UNL     1      -2.820 -16.677 -15.083  0.00  0.00    +0.000 Br
ATOM      2  O   UNL     1      -9.634 -17.700 -16.209  0.00  0.00    +0.000 OA
ATOM      3  O   UNL     1     -10.123 -14.796 -15.576  0.00  0.00    +0.000 OA
ATOM      4  N   UNL     1      -7.809 -14.848 -15.290  0.00  0.00    +0.000 N 
ATOM      5  C   UNL     1      -6.826 -15.827 -15.397  0.00  0.00    +0.000 A 
ATOM      6  C   UNL     1      -7.368 -17.058 -15.762  0.00  0.00    +0.000 A 
ATOM      7  C   UNL     1      -8.811 -16.869 -15.904  0.00  0.00    +0.000 C 
ATOM      8  C   UNL     1      -5.473 -15.672 -15.185  0.00  0.00    +0.000 A 
ATOM      9  C   UNL     1      -6.601 -18.191 -15.935  0.00  0.00    +0.000 A 
ATOM     10  C   UNL     1      -9.058 -15.368 -15.576  0.00  0.00    +0.000 C 
ATOM     11  C   UNL     1      -4.681 -16.809 -15.355  0.00  0.00    +0.000 A 
ATOM     12  C   UNL     1      -5.229 -18.050 -15.723  0.00  0.00    +0.000 A 
ATOM     13  H   UNL     1      -7.663 -13.881 -15.039  0.00  0.00    +0.000 HD
ENDROOT
TORSDOF 0
ENDMDL
MODEL 7
REMARK VINA RESULT:      -3.5      3.680      4.350
REMARK  Name = 95716_6Bromoisatin.pdbqt.pdb
REMARK  0 active torsions:
REMARK  status: ('A' for Active; 'I' for Inactive)
REMARK                            x       y       z     vdW  Elec       q    Type
REMARK                         _______ _______ _______ _____ _____    ______ ____
ROOT
ATOM      1 BR   UNL     1      -2.774 -37.691  -1.300  0.00  0.00    +0.000 Br
ATOM      2  O   UNL     1      -2.673 -34.571  -7.545  0.00  0.00    +0.000 OA
ATOM      3  O   UNL     1      -4.371 -32.356  -6.411  0.00  0.00    +0.000 OA
ATOM      4  N   UNL     1      -4.177 -33.683  -4.502  0.00  0.00    +0.000 N 
ATOM      5  C   UNL     1      -3.546 -34.887  -4.200  0.00  0.00    +0.000 A 
ATOM      6  C   UNL     1      -2.880 -35.406  -5.308  0.00  0.00    +0.000 A 
ATOM      7  C   UNL     1      -3.091 -34.474  -6.415  0.00  0.00    +0.000 C 
ATOM      8  C   UNL     1      -3.539 -35.538  -2.986  0.00  0.00    +0.000 A 
ATOM      9  C   UNL     1      -2.176 -36.592  -5.269  0.00  0.00    +0.000 A 
ATOM     10  C   UNL     1      -3.968 -33.333  -5.823  0.00  0.00    +0.000 C 
ATOM     11  C   UNL     1      -2.831 -36.740  -2.927  0.00  0.00    +0.000 A 
ATOM     12  C   UNL     1      -2.159 -37.264  -4.046  0.00  0.00    +0.000 A 
ATOM     13  H   UNL     1      -4.721 -33.118  -3.866  0.00  0.00    +0.000 HD
ENDROOT
TORSDOF 0
ENDMDL
MODEL 8
REMARK VINA RESULT:      -3.3     18.785     19.911
REMARK  Name = 95716_6Bromoisatin.pdbqt.pdb
REMARK  0 active torsions:
REMARK  status: ('A' for Active; 'I' for Inactive)
REMARK                            x       y       z     vdW  Elec       q    Type
REMARK                         _______ _______ _______ _____ _____    ______ ____
ROOT
ATOM      1 BR   UNL     1      -1.278 -17.150 -13.993  0.00  0.00    +0.000 Br
ATOM      2  O   UNL     1      -7.801 -16.386 -16.363  0.00  0.00    +0.000 OA
ATOM      3  O   UNL     1      -7.780 -13.546 -15.359  0.00  0.00    +0.000 OA
ATOM      4  N   UNL     1      -5.630 -14.179 -14.712  0.00  0.00    +0.000 N 
ATOM      5  C   UNL     1      -4.874 -15.343 -14.814  0.00  0.00    +0.000 A 
ATOM      6  C   UNL     1      -5.582 -16.357 -15.456  0.00  0.00    +0.000 A 
ATOM      7  C   UNL     1      -6.897 -15.816 -15.798  0.00  0.00    +0.000 C 
ATOM      8  C   UNL     1      -3.587 -15.540 -14.362  0.00  0.00    +0.000 A 
ATOM      9  C   UNL     1      -5.054 -17.611 -15.681  0.00  0.00    +0.000 A 
ATOM     10  C   UNL     1      -6.880 -14.350 -15.277  0.00  0.00    +0.000 C 
ATOM     11  C   UNL     1      -3.035 -16.804 -14.582  0.00  0.00    +0.000 A 
ATOM     12  C   UNL     1      -3.751 -17.826 -15.229  0.00  0.00    +0.000 A 
ATOM     13  H   UNL     1      -5.335 -13.311 -14.288  0.00  0.00    +0.000 HD
ENDROOT
TORSDOF 0
ENDMDL
MODEL 9
REMARK VINA RESULT:      -3.3      2.705      3.218
REMARK  Name = 95716_6Bromoisatin.pdbqt.pdb
REMARK  0 active torsions:
REMARK  status: ('A' for Active; 'I' for Inactive)
REMARK                            x       y       z     vdW  Elec       q    Type
REMARK                         _______ _______ _______ _____ _____    ______ ____
ROOT
ATOM      1 BR   UNL     1      -1.538 -40.210  -6.726  0.00  0.00    +0.000 Br
ATOM      2  O   UNL     1      -3.318 -33.463  -6.507  0.00  0.00    +0.000 OA
ATOM      3  O   UNL     1      -2.927 -33.507  -3.521  0.00  0.00    +0.000 OA
ATOM      4  N   UNL     1      -2.392 -35.728  -3.994  0.00  0.00    +0.000 N 
ATOM      5  C   UNL     1      -2.332 -36.501  -5.149  0.00  0.00    +0.000 A 
ATOM      6  C   UNL     1      -2.674 -35.760  -6.278  0.00  0.00    +0.000 A 
ATOM      7  C   UNL     1      -2.980 -34.403  -5.828  0.00  0.00    +0.000 C 
ATOM      8  C   UNL     1      -1.987 -37.832  -5.240  0.00  0.00    +0.000 A 
ATOM      9  C   UNL     1      -2.691 -36.297  -7.548  0.00  0.00    +0.000 A 
ATOM     10  C   UNL     1      -2.776 -34.432  -4.285  0.00  0.00    +0.000 C 
ATOM     11  C   UNL     1      -1.999 -38.394  -6.519  0.00  0.00    +0.000 A 
ATOM     12  C   UNL     1      -2.344 -37.645  -7.657  0.00  0.00    +0.000 A 
ATOM     13  H   UNL     1      -2.189 -36.041  -3.055  0.00  0.00    +0.000 HD
ENDROOT
TORSDOF 0
ENDMDL
