MODEL 1
REMARK VINA RESULT:      -5.3      0.000      0.000
REMARK  Name = 969516_Curcumin.pdbqt.pdb
REMARK  8 active torsions:
REMARK  status: ('A' for Active; 'I' for Inactive)
REMARK    1  A    between atoms: C_3  and  C_5
REMARK    2  A    between atoms: C_4  and  C_6
REMARK    3  A    between atoms: C_8  and  O_12
REMARK    4  A    between atoms: C_10  and  O_14
REMARK    5  A    between atoms: C_17  and  C_19
REMARK    6  A    between atoms: C_18  and  C_20
REMARK    7  A    between atoms: C_22  and  O_26
REMARK    8  A    between atoms: C_24  and  O_28
REMARK                            x       y       z     vdW  Elec       q    Type
REMARK                         _______ _______ _______ _____ _____    ______ ____
ROOT
ATOM      1  C   UNL     1      -4.642 -13.999  -1.226  0.00  0.00    +0.000 C 
ATOM      2  O   UNL     1      -3.860 -16.153  -1.176  0.00  0.00    +0.000 OA
ATOM      3  C   UNL     1      -3.817 -15.056  -1.712  0.00  0.00    +0.000 C 
ATOM      4  O   UNL     1      -5.220 -11.788  -1.052  0.00  0.00    +0.000 OA
ATOM      5  C   UNL     1      -5.463 -12.943  -0.736  0.00  0.00    +0.000 C 
ENDROOT
BRANCH   3   7
ATOM      6  C   UNL     1      -2.211 -14.629  -3.766  0.00  0.00    +0.000 C 
ATOM      7  C   UNL     1      -2.941 -14.823  -2.833  0.00  0.00    +0.000 C 
BRANCH   6   8
ATOM      8  C   UNL     1      -1.342 -14.400  -4.875  0.00  0.00    +0.000 A 
ATOM      9  C   UNL     1       0.015 -14.167  -4.657  0.00  0.00    +0.000 A 
ATOM     10  C   UNL     1       0.880 -13.941  -5.732  0.00  0.00    +0.000 A 
ATOM     11  C   UNL     1      -1.850 -14.409  -6.170  0.00  0.00    +0.000 A 
ATOM     12  C   UNL     1       0.359 -13.953  -7.029  0.00  0.00    +0.000 A 
ATOM     13  C   UNL     1      -0.998 -14.186  -7.248  0.00  0.00    +0.000 A 
BRANCH  10  14
ATOM     14  O   UNL     1       2.226 -13.706  -5.596  0.00  0.00    +0.000 OA
ATOM     15  C   UNL     1       2.978 -14.745  -5.033  0.00  0.00    +0.000 C 
ENDBRANCH  10  14
BRANCH  12  16
ATOM     16  O   UNL     1       1.126 -13.742  -8.141  0.00  0.00    +0.000 OA
ATOM     17  H   UNL     1       0.888 -12.902  -8.569  0.00  0.00    +0.000 HD
ENDBRANCH  12  16
ENDBRANCH   6   8
ENDBRANCH   3   7
BRANCH   5  19
ATOM     18  C   UNL     1      -7.503 -13.497   0.849  0.00  0.00    +0.000 C 
ATOM     19  C   UNL     1      -6.577 -13.245   0.127  0.00  0.00    +0.000 C 
BRANCH  18  20
ATOM     20  C   UNL     1      -8.601 -13.801   1.708  0.00  0.00    +0.000 A 
ATOM     21  C   UNL     1      -9.704 -14.490   1.207  0.00  0.00    +0.000 A 
ATOM     22  C   UNL     1     -10.787 -14.796   2.037  0.00  0.00    +0.000 A 
ATOM     23  C   UNL     1      -8.567 -13.411   3.045  0.00  0.00    +0.000 A 
ATOM     24  C   UNL     1     -10.740 -14.398   3.375  0.00  0.00    +0.000 A 
ATOM     25  C   UNL     1      -9.639 -13.710   3.881  0.00  0.00    +0.000 A 
BRANCH  22  26
ATOM     26  O   UNL     1     -11.912 -15.469   1.625  0.00  0.00    +0.000 OA
ATOM     27  C   UNL     1     -11.717 -16.814   1.272  0.00  0.00    +0.000 C 
ENDBRANCH  22  26
BRANCH  24  28
ATOM     28  O   UNL     1     -11.790 -14.689   4.203  0.00  0.00    +0.000 OA
ATOM     29  H   UNL     1     -12.501 -15.098   3.674  0.00  0.00    +0.000 HD
ENDBRANCH  24  28
ENDBRANCH  18  20
ENDBRANCH   5  19
TORSDOF 8
ENDMDL
MODEL 2
REMARK VINA RESULT:      -5.3      0.071     11.941
REMARK  Name = 969516_Curcumin.pdbqt.pdb
REMARK  8 active torsions:
REMARK  status: ('A' for Active; 'I' for Inactive)
REMARK    1  A    between atoms: C_3  and  C_5
REMARK    2  A    between atoms: C_4  and  C_6
REMARK    3  A    between atoms: C_8  and  O_12
REMARK    4  A    between atoms: C_10  and  O_14
REMARK    5  A    between atoms: C_17  and  C_19
REMARK    6  A    between atoms: C_18  and  C_20
REMARK    7  A    between atoms: C_22  and  O_26
REMARK    8  A    between atoms: C_24  and  O_28
REMARK                            x       y       z     vdW  Elec       q    Type
REMARK                         _______ _______ _______ _____ _____    ______ ____
ROOT
ATOM      1  C   UNL     1      -4.641 -14.052  -1.183  0.00  0.00    +0.000 C 
ATOM      2  O   UNL     1      -5.191 -11.837  -0.973  0.00  0.00    +0.000 OA
ATOM      3  C   UNL     1      -5.450 -12.993  -0.676  0.00  0.00    +0.000 C 
ATOM      4  O   UNL     1      -3.883 -16.215  -1.171  0.00  0.00    +0.000 OA
ATOM      5  C   UNL     1      -3.828 -15.108  -1.687  0.00  0.00    +0.000 C 
ENDROOT
BRANCH   3   7
ATOM      6  C   UNL     1      -7.504 -13.545   0.892  0.00  0.00    +0.000 C 
ATOM      7  C   UNL     1      -6.570 -13.294   0.180  0.00  0.00    +0.000 C 
BRANCH   6   8
ATOM      8  C   UNL     1      -8.614 -13.844   1.737  0.00  0.00    +0.000 A 
ATOM      9  C   UNL     1      -9.734 -14.487   1.211  0.00  0.00    +0.000 A 
ATOM     10  C   UNL     1     -10.830 -14.787   2.025  0.00  0.00    +0.000 A 
ATOM     11  C   UNL     1      -8.579 -13.492   3.083  0.00  0.00    +0.000 A 
ATOM     12  C   UNL     1     -10.783 -14.430   3.376  0.00  0.00    +0.000 A 
ATOM     13  C   UNL     1      -9.664 -13.787   3.903  0.00  0.00    +0.000 A 
BRANCH  10  14
ATOM     14  O   UNL     1     -11.965 -15.419   1.579  0.00  0.00    +0.000 OA
ATOM     15  C   UNL     1     -11.808 -16.749   1.170  0.00  0.00    +0.000 C 
ENDBRANCH  10  14
BRANCH  12  16
ATOM     16  O   UNL     1     -11.806 -14.682   4.248  0.00  0.00    +0.000 OA
ATOM     17  H   UNL     1     -11.516 -15.287   4.951  0.00  0.00    +0.000 HD
ENDBRANCH  12  16
ENDBRANCH   6   8
ENDBRANCH   3   7
BRANCH   5  19
ATOM     18  C   UNL     1      -2.217 -14.665  -3.733  0.00  0.00    +0.000 C 
ATOM     19  C   UNL     1      -2.949 -14.865  -2.802  0.00  0.00    +0.000 C 
BRANCH  18  20
ATOM     20  C   UNL     1      -1.347 -14.433  -4.839  0.00  0.00    +0.000 A 
ATOM     21  C   UNL     1       0.003 -14.166  -4.617  0.00  0.00    +0.000 A 
ATOM     22  C   UNL     1       0.868 -13.937  -5.691  0.00  0.00    +0.000 A 
ATOM     23  C   UNL     1      -1.848 -14.476  -6.139  0.00  0.00    +0.000 A 
ATOM     24  C   UNL     1       0.353 -13.983  -6.989  0.00  0.00    +0.000 A 
ATOM     25  C   UNL     1      -0.996 -14.249  -7.217  0.00  0.00    +0.000 A 
BRANCH  22  26
ATOM     26  O   UNL     1       2.208 -13.667  -5.561  0.00  0.00    +0.000 OA
ATOM     27  C   UNL     1       2.998 -14.730  -5.094  0.00  0.00    +0.000 C 
ENDBRANCH  22  26
BRANCH  24  28
ATOM     28  O   UNL     1       1.184 -13.761  -8.053  0.00  0.00    +0.000 OA
ATOM     29  H   UNL     1       0.686 -13.284  -8.744  0.00  0.00    +0.000 HD
ENDBRANCH  24  28
ENDBRANCH  18  20
ENDBRANCH   5  19
TORSDOF 8
ENDMDL
MODEL 3
REMARK VINA RESULT:      -5.3     16.910     18.430
REMARK  Name = 969516_Curcumin.pdbqt.pdb
REMARK  8 active torsions:
REMARK  status: ('A' for Active; 'I' for Inactive)
REMARK    1  A    between atoms: C_3  and  C_5
REMARK    2  A    between atoms: C_4  and  C_6
REMARK    3  A    between atoms: C_8  and  O_12
REMARK    4  A    between atoms: C_10  and  O_14
REMARK    5  A    between atoms: C_17  and  C_19
REMARK    6  A    between atoms: C_18  and  C_20
REMARK    7  A    between atoms: C_22  and  O_26
REMARK    8  A    between atoms: C_24  and  O_28
REMARK                            x       y       z     vdW  Elec       q    Type
REMARK                         _______ _______ _______ _____ _____    ______ ____
ROOT
ATOM      1  C   UNL     1      -8.990 -32.530  -1.455  0.00  0.00    +0.000 C 
ATOM      2  O   UNL     1     -10.066 -33.960  -2.887  0.00  0.00    +0.000 OA
ATOM      3  C   UNL     1      -9.050 -33.333  -2.632  0.00  0.00    +0.000 C 
ATOM      4  O   UNL     1      -7.851 -31.349   0.145  0.00  0.00    +0.000 OA
ATOM      5  C   UNL     1      -8.932 -31.731  -0.276  0.00  0.00    +0.000 C 
ENDROOT
BRANCH   3   7
ATOM      6  C   UNL     1      -6.962 -33.447  -4.247  0.00  0.00    +0.000 C 
ATOM      7  C   UNL     1      -7.911 -33.395  -3.513  0.00  0.00    +0.000 C 
BRANCH   6   8
ATOM      8  C   UNL     1      -5.833 -33.509  -5.118  0.00  0.00    +0.000 A 
ATOM      9  C   UNL     1      -4.583 -33.860  -4.610  0.00  0.00    +0.000 A 
ATOM     10  C   UNL     1      -3.466 -33.925  -5.449  0.00  0.00    +0.000 A 
ATOM     11  C   UNL     1      -5.981 -33.218  -6.471  0.00  0.00    +0.000 A 
ATOM     12  C   UNL     1      -3.627 -33.632  -6.807  0.00  0.00    +0.000 A 
ATOM     13  C   UNL     1      -4.877 -33.281  -7.316  0.00  0.00    +0.000 A 
BRANCH  10  14
ATOM     14  O   UNL     1      -2.206 -34.264  -5.022  0.00  0.00    +0.000 OA
ATOM     15  C   UNL     1      -2.112 -35.420  -4.238  0.00  0.00    +0.000 C 
ENDBRANCH  10  14
BRANCH  12  16
ATOM     16  O   UNL     1      -2.595 -33.670  -7.703  0.00  0.00    +0.000 OA
ATOM     17  H   UNL     1      -2.696 -34.421  -8.312  0.00  0.00    +0.000 HD
ENDBRANCH  12  16
ENDBRANCH   6   8
ENDBRANCH   3   7
BRANCH   5  19
ATOM     18  C   UNL     1     -11.162 -31.086   0.986  0.00  0.00    +0.000 C 
ATOM     19  C   UNL     1     -10.149 -31.379   0.410  0.00  0.00    +0.000 C 
BRANCH  18  20
ATOM     20  C   UNL     1     -12.364 -30.743   1.673  0.00  0.00    +0.000 A 
ATOM     21  C   UNL     1     -12.350 -29.737   2.637  0.00  0.00    +0.000 A 
ATOM     22  C   UNL     1     -13.520 -29.389   3.318  0.00  0.00    +0.000 A 
ATOM     23  C   UNL     1     -13.550 -31.413   1.377  0.00  0.00    +0.000 A 
ATOM     24  C   UNL     1     -14.702 -30.069   3.012  0.00  0.00    +0.000 A 
ATOM     25  C   UNL     1     -14.721 -31.076   2.048  0.00  0.00    +0.000 A 
BRANCH  22  26
ATOM     26  O   UNL     1     -13.594 -28.412   4.281  0.00  0.00    +0.000 OA
ATOM     27  C   UNL     1     -12.994 -27.187   3.948  0.00  0.00    +0.000 C 
ENDBRANCH  22  26
BRANCH  24  28
ATOM     28  O   UNL     1     -15.858 -29.742   3.667  0.00  0.00    +0.000 OA
ATOM     29  H   UNL     1     -16.439 -29.256   3.052  0.00  0.00    +0.000 HD
ENDBRANCH  24  28
ENDBRANCH  18  20
ENDBRANCH   5  19
TORSDOF 8
ENDMDL
MODEL 4
REMARK VINA RESULT:      -5.2     10.759     12.966
REMARK  Name = 969516_Curcumin.pdbqt.pdb
REMARK  8 active torsions:
REMARK  status: ('A' for Active; 'I' for Inactive)
REMARK    1  A    between atoms: C_3  and  C_5
REMARK    2  A    between atoms: C_4  and  C_6
REMARK    3  A    between atoms: C_8  and  O_12
REMARK    4  A    between atoms: C_10  and  O_14
REMARK    5  A    between atoms: C_17  and  C_19
REMARK    6  A    between atoms: C_18  and  C_20
REMARK    7  A    between atoms: C_22  and  O_26
REMARK    8  A    between atoms: C_24  and  O_28
REMARK                            x       y       z     vdW  Elec       q    Type
REMARK                         _______ _______ _______ _____ _____    ______ ____
ROOT
ATOM      1  C   UNL     1     -14.420 -17.401  -1.926  0.00  0.00    +0.000 C 
ATOM      2  O   UNL     1     -15.595 -18.884  -3.220  0.00  0.00    +0.000 OA
ATOM      3  C   UNL     1     -15.281 -17.721  -3.017  0.00  0.00    +0.000 C 
ATOM      4  O   UNL     1     -13.000 -15.997  -0.802  0.00  0.00    +0.000 OA
ATOM      5  C   UNL     1     -13.556 -17.084  -0.839  0.00  0.00    +0.000 C 
ENDROOT
BRANCH   3   7
ATOM      6  C   UNL     1     -16.187 -15.794  -4.581  0.00  0.00    +0.000 C 
ATOM      7  C   UNL     1     -15.776 -16.670  -3.870  0.00  0.00    +0.000 C 
BRANCH   6   8
ATOM      8  C   UNL     1     -16.675 -14.753  -5.426  0.00  0.00    +0.000 A 
ATOM      9  C   UNL     1     -17.443 -13.722  -4.886  0.00  0.00    +0.000 A 
ATOM     10  C   UNL     1     -17.929 -12.694  -5.699  0.00  0.00    +0.000 A 
ATOM     11  C   UNL     1     -16.385 -14.768  -6.787  0.00  0.00    +0.000 A 
ATOM     12  C   UNL     1     -17.630 -12.719  -7.065  0.00  0.00    +0.000 A 
ATOM     13  C   UNL     1     -16.863 -13.749  -7.607  0.00  0.00    +0.000 A 
BRANCH  10  14
ATOM     14  O   UNL     1     -18.689 -11.647  -5.239  0.00  0.00    +0.000 OA
ATOM     15  C   UNL     1     -18.343 -11.143  -3.980  0.00  0.00    +0.000 C 
ENDBRANCH  10  14
BRANCH  12  16
ATOM     16  O   UNL     1     -18.061 -11.759  -7.938  0.00  0.00    +0.000 OA
ATOM     17  H   UNL     1     -18.925 -11.408  -7.664  0.00  0.00    +0.000 HD
ENDBRANCH  12  16
ENDBRANCH   6   8
ENDBRANCH   3   7
BRANCH   5  19
ATOM     18  C   UNL     1     -13.171 -18.847   1.092  0.00  0.00    +0.000 C 
ATOM     19  C   UNL     1     -13.346 -18.047   0.212  0.00  0.00    +0.000 C 
BRANCH  18  20
ATOM     20  C   UNL     1     -12.960 -19.794   2.137  0.00  0.00    +0.000 A 
ATOM     21  C   UNL     1     -12.969 -21.158   1.851  0.00  0.00    +0.000 A 
ATOM     22  C   UNL     1     -12.763 -22.098   2.865  0.00  0.00    +0.000 A 
ATOM     23  C   UNL     1     -12.744 -19.354   3.442  0.00  0.00    +0.000 A 
ATOM     24  C   UNL     1     -12.547 -21.642   4.168  0.00  0.00    +0.000 A 
ATOM     25  C   UNL     1     -12.537 -20.280   4.460  0.00  0.00    +0.000 A 
BRANCH  22  26
ATOM     26  O   UNL     1     -12.757 -23.458   2.670  0.00  0.00    +0.000 OA
ATOM     27  C   UNL     1     -14.012 -24.040   2.431  0.00  0.00    +0.000 C 
ENDBRANCH  22  26
BRANCH  24  28
ATOM     28  O   UNL     1     -12.344 -22.547   5.174  0.00  0.00    +0.000 OA
ATOM     29  H   UNL     1     -12.986 -22.372   5.887  0.00  0.00    +0.000 HD
ENDBRANCH  24  28
ENDBRANCH  18  20
ENDBRANCH   5  19
TORSDOF 8
ENDMDL
MODEL 5
REMARK VINA RESULT:      -5.1     10.849     14.095
REMARK  Name = 969516_Curcumin.pdbqt.pdb
REMARK  8 active torsions:
REMARK  status: ('A' for Active; 'I' for Inactive)
REMARK    1  A    between atoms: C_3  and  C_5
REMARK    2  A    between atoms: C_4  and  C_6
REMARK    3  A    between atoms: C_8  and  O_12
REMARK    4  A    between atoms: C_10  and  O_14
REMARK    5  A    between atoms: C_17  and  C_19
REMARK    6  A    between atoms: C_18  and  C_20
REMARK    7  A    between atoms: C_22  and  O_26
REMARK    8  A    between atoms: C_24  and  O_28
REMARK                            x       y       z     vdW  Elec       q    Type
REMARK                         _______ _______ _______ _____ _____    ______ ____
ROOT
ATOM      1  C   UNL     1     -14.440 -17.511  -1.840  0.00  0.00    +0.000 C 
ATOM      2  O   UNL     1     -13.091 -16.084  -0.657  0.00  0.00    +0.000 OA
ATOM      3  C   UNL     1     -13.606 -17.189  -0.728  0.00  0.00    +0.000 C 
ATOM      4  O   UNL     1     -15.540 -18.998  -3.192  0.00  0.00    +0.000 OA
ATOM      5  C   UNL     1     -15.269 -17.830  -2.953  0.00  0.00    +0.000 C 
ENDROOT
BRANCH   3   7
ATOM      6  C   UNL     1     -13.192 -18.987   1.164  0.00  0.00    +0.000 C 
ATOM      7  C   UNL     1     -13.381 -18.169   0.304  0.00  0.00    +0.000 C 
BRANCH   6   8
ATOM      8  C   UNL     1     -12.966 -19.957   2.185  0.00  0.00    +0.000 A 
ATOM      9  C   UNL     1     -13.033 -21.315   1.880  0.00  0.00    +0.000 A 
ATOM     10  C   UNL     1     -12.815 -22.279   2.869  0.00  0.00    +0.000 A 
ATOM     11  C   UNL     1     -12.680 -19.546   3.484  0.00  0.00    +0.000 A 
ATOM     12  C   UNL     1     -12.527 -21.855   4.170  0.00  0.00    +0.000 A 
ATOM     13  C   UNL     1     -12.460 -20.496   4.477  0.00  0.00    +0.000 A 
BRANCH  10  14
ATOM     14  O   UNL     1     -12.863 -23.633   2.644  0.00  0.00    +0.000 OA
ATOM     15  C   UNL     1     -14.141 -24.192   2.525  0.00  0.00    +0.000 C 
ENDBRANCH  10  14
BRANCH  12  16
ATOM     16  O   UNL     1     -12.299 -22.723   5.202  0.00  0.00    +0.000 OA
ATOM     17  H   UNL     1     -12.692 -23.592   5.013  0.00  0.00    +0.000 HD
ENDBRANCH  12  16
ENDBRANCH   6   8
ENDBRANCH   3   7
BRANCH   5  19
ATOM     18  C   UNL     1     -16.211 -15.894  -4.484  0.00  0.00    +0.000 C 
ATOM     19  C   UNL     1     -15.784 -16.776  -3.789  0.00  0.00    +0.000 C 
BRANCH  18  20
ATOM     20  C   UNL     1     -16.717 -14.843  -5.305  0.00  0.00    +0.000 A 
ATOM     21  C   UNL     1     -16.689 -14.972  -6.693  0.00  0.00    +0.000 A 
ATOM     22  C   UNL     1     -17.183 -13.952  -7.511  0.00  0.00    +0.000 A 
ATOM     23  C   UNL     1     -17.240 -13.692  -4.719  0.00  0.00    +0.000 A 
ATOM     24  C   UNL     1     -17.704 -12.803  -6.910  0.00  0.00    +0.000 A 
ATOM     25  C   UNL     1     -17.734 -12.669  -5.523  0.00  0.00    +0.000 A 
BRANCH  22  26
ATOM     26  O   UNL     1     -17.192 -13.997  -8.884  0.00  0.00    +0.000 OA
ATOM     27  C   UNL     1     -16.659 -15.164  -9.455  0.00  0.00    +0.000 C 
ENDBRANCH  22  26
BRANCH  24  28
ATOM     28  O   UNL     1     -18.192 -11.793  -7.694  0.00  0.00    +0.000 OA
ATOM     29  H   UNL     1     -19.135 -11.966  -7.876  0.00  0.00    +0.000 HD
ENDBRANCH  24  28
ENDBRANCH  18  20
ENDBRANCH   5  19
TORSDOF 8
ENDMDL
MODEL 6
REMARK VINA RESULT:      -5.0     13.071     17.085
REMARK  Name = 969516_Curcumin.pdbqt.pdb
REMARK  8 active torsions:
REMARK  status: ('A' for Active; 'I' for Inactive)
REMARK    1  A    between atoms: C_3  and  C_5
REMARK    2  A    between atoms: C_4  and  C_6
REMARK    3  A    between atoms: C_8  and  O_12
REMARK    4  A    between atoms: C_10  and  O_14
REMARK    5  A    between atoms: C_17  and  C_19
REMARK    6  A    between atoms: C_18  and  C_20
REMARK    7  A    between atoms: C_22  and  O_26
REMARK    8  A    between atoms: C_24  and  O_28
REMARK                            x       y       z     vdW  Elec       q    Type
REMARK                         _______ _______ _______ _____ _____    ______ ____
ROOT
ATOM      1  C   UNL     1      -5.624 -15.719 -15.063  0.00  0.00    +0.000 C 
ATOM      2  O   UNL     1      -6.670 -17.199 -16.467  0.00  0.00    +0.000 OA
ATOM      3  C   UNL     1      -6.775 -16.226 -15.734  0.00  0.00    +0.000 C 
ATOM      4  O   UNL     1      -4.495 -14.088 -13.915  0.00  0.00    +0.000 OA
ATOM      5  C   UNL     1      -4.472 -15.211 -14.397  0.00  0.00    +0.000 C 
ENDROOT
BRANCH   3   7
ATOM      6  C   UNL     1      -9.121 -15.062 -15.381  0.00  0.00    +0.000 C 
ATOM      7  C   UNL     1      -8.055 -15.591 -15.541  0.00  0.00    +0.000 C 
BRANCH   6   8
ATOM      8  C   UNL     1     -10.389 -14.435 -15.192  0.00  0.00    +0.000 A 
ATOM      9  C   UNL     1     -11.550 -15.071 -15.628  0.00  0.00    +0.000 A 
ATOM     10  C   UNL     1     -12.800 -14.471 -15.450  0.00  0.00    +0.000 A 
ATOM     11  C   UNL     1     -10.464 -13.191 -14.573  0.00  0.00    +0.000 A 
ATOM     12  C   UNL     1     -12.864 -13.221 -14.827  0.00  0.00    +0.000 A 
ATOM     13  C   UNL     1     -11.703 -12.584 -14.390  0.00  0.00    +0.000 A 
BRANCH  10  14
ATOM     14  O   UNL     1     -13.986 -15.036 -15.851  0.00  0.00    +0.000 OA
ATOM     15  C   UNL     1     -13.969 -15.687 -17.091  0.00  0.00    +0.000 C 
ENDBRANCH  10  14
BRANCH  12  16
ATOM     16  O   UNL     1     -14.040 -12.557 -14.609  0.00  0.00    +0.000 OA
ATOM     17  H   UNL     1     -14.698 -13.148 -14.205  0.00  0.00    +0.000 HD
ENDBRANCH  12  16
ENDBRANCH   6   8
ENDBRANCH   3   7
BRANCH   5  19
ATOM     18  C   UNL     1      -2.298 -16.701 -14.213  0.00  0.00    +0.000 C 
ATOM     19  C   UNL     1      -3.287 -16.025 -14.295  0.00  0.00    +0.000 C 
BRANCH  18  20
ATOM     20  C   UNL     1      -1.124 -17.506 -14.120  0.00  0.00    +0.000 A 
ATOM     21  C   UNL     1      -0.226 -17.305 -13.073  0.00  0.00    +0.000 A 
ATOM     22  C   UNL     1       0.929 -18.086 -12.969  0.00  0.00    +0.000 A 
ATOM     23  C   UNL     1      -0.877 -18.490 -15.075  0.00  0.00    +0.000 A 
ATOM     24  C   UNL     1       1.163 -19.069 -13.933  0.00  0.00    +0.000 A 
ATOM     25  C   UNL     1       0.269 -19.274 -14.982  0.00  0.00    +0.000 A 
BRANCH  22  26
ATOM     26  O   UNL     1       1.864 -17.955 -11.971  0.00  0.00    +0.000 OA
ATOM     27  C   UNL     1       2.398 -16.666 -11.808  0.00  0.00    +0.000 C 
ENDBRANCH  22  26
BRANCH  24  28
ATOM     28  O   UNL     1       2.288 -19.844 -13.848  0.00  0.00    +0.000 OA
ATOM     29  H   UNL     1       3.067 -19.259 -13.791  0.00  0.00    +0.000 HD
ENDBRANCH  24  28
ENDBRANCH  18  20
ENDBRANCH   5  19
TORSDOF 8
ENDMDL
MODEL 7
REMARK VINA RESULT:      -5.0     19.759     23.887
REMARK  Name = 969516_Curcumin.pdbqt.pdb
REMARK  8 active torsions:
REMARK  status: ('A' for Active; 'I' for Inactive)
REMARK    1  A    between atoms: C_3  and  C_5
REMARK    2  A    between atoms: C_4  and  C_6
REMARK    3  A    between atoms: C_8  and  O_12
REMARK    4  A    between atoms: C_10  and  O_14
REMARK    5  A    between atoms: C_17  and  C_19
REMARK    6  A    between atoms: C_18  and  C_20
REMARK    7  A    between atoms: C_22  and  O_26
REMARK    8  A    between atoms: C_24  and  O_28
REMARK                            x       y       z     vdW  Elec       q    Type
REMARK                         _______ _______ _______ _____ _____    ______ ____
ROOT
ATOM      1  C   UNL     1      -3.747 -34.063  -6.736  0.00  0.00    +0.000 C 
ATOM      2  O   UNL     1      -4.329 -31.858  -6.971  0.00  0.00    +0.000 OA
ATOM      3  C   UNL     1      -4.545 -32.925  -6.416  0.00  0.00    +0.000 C 
ATOM      4  O   UNL     1      -2.945 -36.167  -6.311  0.00  0.00    +0.000 OA
ATOM      5  C   UNL     1      -2.946 -35.197  -7.054  0.00  0.00    +0.000 C 
ENDROOT
BRANCH   3   7
ATOM      6  C   UNL     1      -6.483 -33.140  -4.632  0.00  0.00    +0.000 C 
ATOM      7  C   UNL     1      -5.602 -33.043  -5.444  0.00  0.00    +0.000 C 
BRANCH   6   8
ATOM      8  C   UNL     1      -7.529 -33.254  -3.669  0.00  0.00    +0.000 A 
ATOM      9  C   UNL     1      -8.015 -34.512  -3.317  0.00  0.00    +0.000 A 
ATOM     10  C   UNL     1      -9.040 -34.642  -2.376  0.00  0.00    +0.000 A 
ATOM     11  C   UNL     1      -8.063 -32.110  -3.083  0.00  0.00    +0.000 A 
ATOM     12  C   UNL     1      -9.569 -33.486  -1.793  0.00  0.00    +0.000 A 
ATOM     13  C   UNL     1      -9.084 -32.227  -2.144  0.00  0.00    +0.000 A 
BRANCH  10  14
ATOM     14  O   UNL     1      -9.568 -35.846  -1.979  0.00  0.00    +0.000 OA
ATOM     15  C   UNL     1      -8.671 -36.749  -1.396  0.00  0.00    +0.000 C 
ENDBRANCH  10  14
BRANCH  12  16
ATOM     16  O   UNL     1     -10.572 -33.513  -0.863  0.00  0.00    +0.000 OA
ATOM     17  H   UNL     1     -10.354 -34.129  -0.143  0.00  0.00    +0.000 HD
ENDBRANCH  12  16
ENDBRANCH   6   8
ENDBRANCH   3   7
BRANCH   5  19
ATOM     18  C   UNL     1      -1.477 -35.193  -9.250  0.00  0.00    +0.000 C 
ATOM     19  C   UNL     1      -2.143 -35.193  -8.251  0.00  0.00    +0.000 C 
BRANCH  18  20
ATOM     20  C   UNL     1      -0.686 -35.197 -10.437  0.00  0.00    +0.000 A 
ATOM     21  C   UNL     1      -1.252 -34.809 -11.651  0.00  0.00    +0.000 A 
ATOM     22  C   UNL     1      -0.490 -34.808 -12.822  0.00  0.00    +0.000 A 
ATOM     23  C   UNL     1       0.650 -35.587 -10.382  0.00  0.00    +0.000 A 
ATOM     24  C   UNL     1       0.849 -35.202 -12.752  0.00  0.00    +0.000 A 
ATOM     25  C   UNL     1       1.420 -35.590 -11.541  0.00  0.00    +0.000 A 
BRANCH  22  26
ATOM     26  O   UNL     1      -0.968 -34.442 -14.057  0.00  0.00    +0.000 OA
ATOM     27  C   UNL     1      -1.194 -33.068 -14.235  0.00  0.00    +0.000 C 
ENDBRANCH  22  26
BRANCH  24  28
ATOM     28  O   UNL     1       1.612 -35.207 -13.888  0.00  0.00    +0.000 OA
ATOM     29  H   UNL     1       1.466 -36.049 -14.358  0.00  0.00    +0.000 HD
ENDBRANCH  24  28
ENDBRANCH  18  20
ENDBRANCH   5  19
TORSDOF 8
ENDMDL
MODEL 8
REMARK VINA RESULT:      -4.9      1.162     11.945
REMARK  Name = 969516_Curcumin.pdbqt.pdb
REMARK  8 active torsions:
REMARK  status: ('A' for Active; 'I' for Inactive)
REMARK    1  A    between atoms: C_3  and  C_5
REMARK    2  A    between atoms: C_4  and  C_6
REMARK    3  A    between atoms: C_8  and  O_12
REMARK    4  A    between atoms: C_10  and  O_14
REMARK    5  A    between atoms: C_17  and  C_19
REMARK    6  A    between atoms: C_18  and  C_20
REMARK    7  A    between atoms: C_22  and  O_26
REMARK    8  A    between atoms: C_24  and  O_28
REMARK                            x       y       z     vdW  Elec       q    Type
REMARK                         _______ _______ _______ _____ _____    ______ ____
ROOT
ATOM      1  C   UNL     1      -4.833 -13.529  -0.875  0.00  0.00    +0.000 C 
ATOM      2  O   UNL     1      -6.308 -11.961  -1.662  0.00  0.00    +0.000 OA
ATOM      3  C   UNL     1      -6.071 -12.824  -0.830  0.00  0.00    +0.000 C 
ATOM      4  O   UNL     1      -3.219 -14.864   0.055  0.00  0.00    +0.000 OA
ATOM      5  C   UNL     1      -3.593 -14.229  -0.920  0.00  0.00    +0.000 C 
ENDROOT
BRANCH   3   7
ATOM      6  C   UNL     1      -7.841 -13.397   1.047  0.00  0.00    +0.000 C 
ATOM      7  C   UNL     1      -7.036 -13.136   0.194  0.00  0.00    +0.000 C 
BRANCH   6   8
ATOM      8  C   UNL     1      -8.797 -13.709   2.059  0.00  0.00    +0.000 A 
ATOM      9  C   UNL     1      -8.656 -13.170   3.337  0.00  0.00    +0.000 A 
ATOM     10  C   UNL     1      -9.584 -13.465   4.341  0.00  0.00    +0.000 A 
ATOM     11  C   UNL     1      -9.867 -14.551   1.770  0.00  0.00    +0.000 A 
ATOM     12  C   UNL     1     -10.655 -14.311   4.039  0.00  0.00    +0.000 A 
ATOM     13  C   UNL     1     -10.797 -14.851   2.761  0.00  0.00    +0.000 A 
BRANCH  10  14
ATOM     14  O   UNL     1      -9.512 -12.971   5.620  0.00  0.00    +0.000 OA
ATOM     15  C   UNL     1      -9.636 -11.582   5.751  0.00  0.00    +0.000 C 
ENDBRANCH  10  14
BRANCH  12  16
ATOM     16  O   UNL     1     -11.612 -14.656   4.954  0.00  0.00    +0.000 OA
ATOM     17  H   UNL     1     -11.402 -14.281   5.826  0.00  0.00    +0.000 HD
ENDBRANCH  12  16
ENDBRANCH   6   8
ENDBRANCH   3   7
BRANCH   5  19
ATOM     18  C   UNL     1      -2.121 -14.155  -3.113  0.00  0.00    +0.000 C 
ATOM     19  C   UNL     1      -2.790 -14.186  -2.115  0.00  0.00    +0.000 C 
BRANCH  18  20
ATOM     20  C   UNL     1      -1.325 -14.121  -4.296  0.00  0.00    +0.000 A 
ATOM     21  C   UNL     1      -0.041 -13.582  -4.254  0.00  0.00    +0.000 A 
ATOM     22  C   UNL     1       0.751 -13.543  -5.405  0.00  0.00    +0.000 A 
ATOM     23  C   UNL     1      -1.832 -14.629  -5.491  0.00  0.00    +0.000 A 
ATOM     24  C   UNL     1       0.231 -14.055  -6.595  0.00  0.00    +0.000 A 
ATOM     25  C   UNL     1      -1.053 -14.595  -6.643  0.00  0.00    +0.000 A 
BRANCH  22  26
ATOM     26  O   UNL     1       2.025 -13.029  -5.451  0.00  0.00    +0.000 OA
ATOM     27  C   UNL     1       2.827 -13.299  -4.330  0.00  0.00    +0.000 C 
ENDBRANCH  22  26
BRANCH  24  28
ATOM     28  O   UNL     1       0.991 -14.026  -7.733  0.00  0.00    +0.000 OA
ATOM     29  H   UNL     1       0.957 -14.905  -8.154  0.00  0.00    +0.000 HD
ENDBRANCH  24  28
ENDBRANCH  18  20
ENDBRANCH   5  19
TORSDOF 8
ENDMDL
MODEL 9
REMARK VINA RESULT:      -4.9     10.548     13.468
REMARK  Name = 969516_Curcumin.pdbqt.pdb
REMARK  8 active torsions:
REMARK  status: ('A' for Active; 'I' for Inactive)
REMARK    1  A    between atoms: C_3  and  C_5
REMARK    2  A    between atoms: C_4  and  C_6
REMARK    3  A    between atoms: C_8  and  O_12
REMARK    4  A    between atoms: C_10  and  O_14
REMARK    5  A    between atoms: C_17  and  C_19
REMARK    6  A    between atoms: C_18  and  C_20
REMARK    7  A    between atoms: C_22  and  O_26
REMARK    8  A    between atoms: C_24  and  O_28
REMARK                            x       y       z     vdW  Elec       q    Type
REMARK                         _______ _______ _______ _____ _____    ______ ____
ROOT
ATOM      1  C   UNL     1     -13.960 -17.476  -1.211  0.00  0.00    +0.000 C 
ATOM      2  O   UNL     1     -12.745 -15.892  -0.085  0.00  0.00    +0.000 OA
ATOM      3  C   UNL     1     -13.175 -17.035  -0.105  0.00  0.00    +0.000 C 
ATOM      4  O   UNL     1     -14.920 -19.111  -2.499  0.00  0.00    +0.000 OA
ATOM      5  C   UNL     1     -14.741 -17.915  -2.318  0.00  0.00    +0.000 C 
ENDROOT
BRANCH   3   7
ATOM      6  C   UNL     1     -12.663 -18.696   1.886  0.00  0.00    +0.000 C 
ATOM      7  C   UNL     1     -12.896 -17.941   0.981  0.00  0.00    +0.000 C 
BRANCH   6   8
ATOM      8  C   UNL     1     -12.385 -19.592   2.961  0.00  0.00    +0.000 A 
ATOM      9  C   UNL     1     -11.481 -19.223   3.956  0.00  0.00    +0.000 A 
ATOM     10  C   UNL     1     -11.196 -20.088   5.017  0.00  0.00    +0.000 A 
ATOM     11  C   UNL     1     -13.014 -20.832   3.014  0.00  0.00    +0.000 A 
ATOM     12  C   UNL     1     -11.835 -21.331   5.060  0.00  0.00    +0.000 A 
ATOM     13  C   UNL     1     -12.740 -21.702   4.066  0.00  0.00    +0.000 A 
BRANCH  10  14
ATOM     14  O   UNL     1     -10.320 -19.794   6.032  0.00  0.00    +0.000 OA
ATOM     15  C   UNL     1      -8.960 -19.943   5.734  0.00  0.00    +0.000 C 
ENDBRANCH  10  14
BRANCH  12  16
ATOM     16  O   UNL     1     -11.621 -22.243   6.057  0.00  0.00    +0.000 OA
ATOM     17  H   UNL     1     -11.352 -23.100   5.685  0.00  0.00    +0.000 HD
ENDBRANCH  12  16
ENDBRANCH   6   8
ENDBRANCH   3   7
BRANCH   5  19
ATOM     18  C   UNL     1     -15.795 -16.137  -3.964  0.00  0.00    +0.000 C 
ATOM     19  C   UNL     1     -15.318 -16.947  -3.216  0.00  0.00    +0.000 C 
BRANCH  18  20
ATOM     20  C   UNL     1     -16.361 -15.173  -4.849  0.00  0.00    +0.000 A 
ATOM     21  C   UNL     1     -17.693 -14.791  -4.701  0.00  0.00    +0.000 A 
ATOM     22  C   UNL     1     -18.262 -13.846  -5.560  0.00  0.00    +0.000 A 
ATOM     23  C   UNL     1     -15.581 -14.613  -5.860  0.00  0.00    +0.000 A 
ATOM     24  C   UNL     1     -17.468 -13.293  -6.568  0.00  0.00    +0.000 A 
ATOM     25  C   UNL     1     -16.136 -13.671  -6.721  0.00  0.00    +0.000 A 
BRANCH  22  26
ATOM     26  O   UNL     1     -19.564 -13.415  -5.484  0.00  0.00    +0.000 OA
ATOM     27  C   UNL     1     -20.506 -14.395  -5.130  0.00  0.00    +0.000 C 
ENDBRANCH  22  26
BRANCH  24  28
ATOM     28  O   UNL     1     -18.007 -12.367  -7.419  0.00  0.00    +0.000 OA
ATOM     29  H   UNL     1     -17.784 -12.617  -8.335  0.00  0.00    +0.000 HD
ENDBRANCH  24  28
ENDBRANCH  18  20
ENDBRANCH   5  19
TORSDOF 8
ENDMDL
