MODEL 1
REMARK VINA RESULT:      -2.9      0.000      0.000
REMARK  Name = 971_OxalicAcid.pdbqt.pdb
REMARK  3 active torsions:
REMARK  status: ('A' for Active; 'I' for Inactive)
REMARK    1  A    between atoms: C_2  and  O_3
REMARK    2  A    between atoms: C_2  and  C_6
REMARK    3  A    between atoms: C_6  and  O_7
REMARK                            x       y       z     vdW  Elec       q    Type
REMARK                         _______ _______ _______ _____ _____    ______ ____
ROOT
ATOM      1  O   UNL     1      -2.823 -34.188  -8.120  0.00  0.00    +0.000 OA
ATOM      2  C   UNL     1      -3.260 -33.112  -8.478  0.00  0.00    +0.000 C 
ENDROOT
BRANCH   2   3
ATOM      3  O   UNL     1      -3.197 -32.710  -9.755  0.00  0.00    +0.000 OA
ATOM      4  H   UNL     1      -4.003 -32.172  -9.883  0.00  0.00    +0.000 HD
ENDBRANCH   2   3
BRANCH   2   6
ATOM      5  O   UNL     1      -4.741 -32.309  -6.670  0.00  0.00    +0.000 OA
ATOM      6  C   UNL     1      -3.941 -32.059  -7.550  0.00  0.00    +0.000 C 
BRANCH   6   7
ATOM      7  O   UNL     1      -3.552 -30.805  -7.818  0.00  0.00    +0.000 OA
ATOM      8  H   UNL     1      -4.237 -30.460  -8.426  0.00  0.00    +0.000 HD
ENDBRANCH   6   7
ENDBRANCH   2   6
TORSDOF 3
ENDMDL
MODEL 2
REMARK VINA RESULT:      -2.8     18.303     19.085
REMARK  Name = 971_OxalicAcid.pdbqt.pdb
REMARK  3 active torsions:
REMARK  status: ('A' for Active; 'I' for Inactive)
REMARK    1  A    between atoms: C_2  and  O_3
REMARK    2  A    between atoms: C_2  and  C_6
REMARK    3  A    between atoms: C_6  and  O_7
REMARK                            x       y       z     vdW  Elec       q    Type
REMARK                         _______ _______ _______ _____ _____    ______ ____
ROOT
ATOM      1  O   UNL     1     -16.828 -18.395 -11.644  0.00  0.00    +0.000 OA
ATOM      2  C   UNL     1     -16.219 -18.642 -10.622  0.00  0.00    +0.000 C 
ENDROOT
BRANCH   2   3
ATOM      3  O   UNL     1     -14.914 -18.944 -10.629  0.00  0.00    +0.000 OA
ATOM      4  H   UNL     1     -14.488 -18.181 -11.068  0.00  0.00    +0.000 HD
ENDBRANCH   2   3
BRANCH   2   6
ATOM      5  O   UNL     1     -17.557 -17.789  -8.727  0.00  0.00    +0.000 OA
ATOM      6  C   UNL     1     -16.830 -18.648  -9.186  0.00  0.00    +0.000 C 
BRANCH   6   7
ATOM      7  O   UNL     1     -16.469 -19.725  -8.475  0.00  0.00    +0.000 OA
ATOM      8  H   UNL     1     -15.681 -19.435  -7.974  0.00  0.00    +0.000 HD
ENDBRANCH   6   7
ENDBRANCH   2   6
TORSDOF 3
ENDMDL
MODEL 3
REMARK VINA RESULT:      -2.7     11.681     12.261
REMARK  Name = 971_OxalicAcid.pdbqt.pdb
REMARK  3 active torsions:
REMARK  status: ('A' for Active; 'I' for Inactive)
REMARK    1  A    between atoms: C_2  and  O_3
REMARK    2  A    between atoms: C_2  and  C_6
REMARK    3  A    between atoms: C_6  and  O_7
REMARK                            x       y       z     vdW  Elec       q    Type
REMARK                         _______ _______ _______ _____ _____    ______ ____
ROOT
ATOM      1  O   UNL     1       0.983 -29.018   1.720  0.00  0.00    +0.000 OA
ATOM      2  C   UNL     1       2.063 -29.495   1.434  0.00  0.00    +0.000 C 
ENDROOT
BRANCH   2   3
ATOM      3  O   UNL     1       2.465 -29.629   0.162  0.00  0.00    +0.000 OA
ATOM      4  H   UNL     1       2.227 -30.548  -0.074  0.00  0.00    +0.000 HD
ENDBRANCH   2   3
BRANCH   2   6
ATOM      5  O   UNL     1       3.666 -29.334   3.309  0.00  0.00    +0.000 OA
ATOM      6  C   UNL     1       3.122 -30.010   2.457  0.00  0.00    +0.000 C 
BRANCH   6   7
ATOM      7  O   UNL     1       3.392 -31.315   2.310  0.00  0.00    +0.000 OA
ATOM      8  H   UNL     1       3.336 -31.680   3.215  0.00  0.00    +0.000 HD
ENDBRANCH   6   7
ENDBRANCH   2   6
TORSDOF 3
ENDMDL
MODEL 4
REMARK VINA RESULT:      -2.6     11.239     11.863
REMARK  Name = 971_OxalicAcid.pdbqt.pdb
REMARK  3 active torsions:
REMARK  status: ('A' for Active; 'I' for Inactive)
REMARK    1  A    between atoms: C_2  and  O_3
REMARK    2  A    between atoms: C_2  and  C_6
REMARK    3  A    between atoms: C_6  and  O_7
REMARK                            x       y       z     vdW  Elec       q    Type
REMARK                         _______ _______ _______ _____ _____    ______ ____
ROOT
ATOM      1  O   UNL     1       2.738 -29.578   2.830  0.00  0.00    +0.000 OA
ATOM      2  C   UNL     1       2.573 -29.628   1.627  0.00  0.00    +0.000 C 
ENDROOT
BRANCH   2   3
ATOM      3  O   UNL     1       1.484 -29.112   1.039  0.00  0.00    +0.000 OA
ATOM      4  H   UNL     1       0.874 -29.871   0.944  0.00  0.00    +0.000 HD
ENDBRANCH   2   3
BRANCH   2   6
ATOM      5  O   UNL     1       4.763 -30.110   0.588  0.00  0.00    +0.000 OA
ATOM      6  C   UNL     1       3.559 -30.275   0.605  0.00  0.00    +0.000 C 
BRANCH   6   7
ATOM      7  O   UNL     1       2.938 -31.059  -0.287  0.00  0.00    +0.000 OA
ATOM      8  H   UNL     1       3.231 -30.720  -1.157  0.00  0.00    +0.000 HD
ENDBRANCH   6   7
ENDBRANCH   2   6
TORSDOF 3
ENDMDL
MODEL 5
REMARK VINA RESULT:      -2.6     13.294     14.312
REMARK  Name = 971_OxalicAcid.pdbqt.pdb
REMARK  3 active torsions:
REMARK  status: ('A' for Active; 'I' for Inactive)
REMARK    1  A    between atoms: C_2  and  O_3
REMARK    2  A    between atoms: C_2  and  C_6
REMARK    3  A    between atoms: C_6  and  O_7
REMARK                            x       y       z     vdW  Elec       q    Type
REMARK                         _______ _______ _______ _____ _____    ______ ____
ROOT
ATOM      1  O   UNL     1       1.449 -18.845 -14.261  0.00  0.00    +0.000 OA
ATOM      2  C   UNL     1       0.880 -19.776 -13.726  0.00  0.00    +0.000 C 
ENDROOT
BRANCH   2   3
ATOM      3  O   UNL     1       0.101 -20.622 -14.414  0.00  0.00    +0.000 OA
ATOM      4  H   UNL     1       0.266 -20.398 -15.352  0.00  0.00    +0.000 HD
ENDBRANCH   2   3
BRANCH   2   6
ATOM      5  O   UNL     1       0.979 -19.323 -11.298  0.00  0.00    +0.000 OA
ATOM      6  C   UNL     1       0.957 -20.129 -12.208  0.00  0.00    +0.000 C 
BRANCH   6   7
ATOM      7  O   UNL     1       0.998 -21.450 -11.986  0.00  0.00    +0.000 OA
ATOM      8  H   UNL     1       1.797 -21.754 -12.461  0.00  0.00    +0.000 HD
ENDBRANCH   6   7
ENDBRANCH   2   6
TORSDOF 3
ENDMDL
MODEL 6
REMARK VINA RESULT:      -2.6      8.797      9.657
REMARK  Name = 971_OxalicAcid.pdbqt.pdb
REMARK  3 active torsions:
REMARK  status: ('A' for Active; 'I' for Inactive)
REMARK    1  A    between atoms: C_2  and  O_3
REMARK    2  A    between atoms: C_2  and  C_6
REMARK    3  A    between atoms: C_6  and  O_7
REMARK                            x       y       z     vdW  Elec       q    Type
REMARK                         _______ _______ _______ _____ _____    ______ ____
ROOT
ATOM      1  O   UNL     1     -11.331 -36.578  -5.177  0.00  0.00    +0.000 OA
ATOM      2  C   UNL     1     -11.767 -35.590  -5.735  0.00  0.00    +0.000 C 
ENDROOT
BRANCH   2   3
ATOM      3  O   UNL     1     -11.047 -34.910  -6.637  0.00  0.00    +0.000 OA
ATOM      4  H   UNL     1     -10.606 -34.207  -6.120  0.00  0.00    +0.000 HD
ENDBRANCH   2   3
BRANCH   2   6
ATOM      5  O   UNL     1     -13.703 -34.796  -4.420  0.00  0.00    +0.000 OA
ATOM      6  C   UNL     1     -13.181 -34.971  -5.503  0.00  0.00    +0.000 C 
BRANCH   6   7
ATOM      7  O   UNL     1     -13.792 -34.637  -6.648  0.00  0.00    +0.000 OA
ATOM      8  H   UNL     1     -14.409 -33.921  -6.396  0.00  0.00    +0.000 HD
ENDBRANCH   6   7
ENDBRANCH   2   6
TORSDOF 3
ENDMDL
MODEL 7
REMARK VINA RESULT:      -2.6     18.721     19.643
REMARK  Name = 971_OxalicAcid.pdbqt.pdb
REMARK  3 active torsions:
REMARK  status: ('A' for Active; 'I' for Inactive)
REMARK    1  A    between atoms: C_2  and  O_3
REMARK    2  A    between atoms: C_2  and  C_6
REMARK    3  A    between atoms: C_6  and  O_7
REMARK                            x       y       z     vdW  Elec       q    Type
REMARK                         _______ _______ _______ _____ _____    ______ ____
ROOT
ATOM      1  O   UNL     1     -18.906 -19.126 -10.980  0.00  0.00    +0.000 OA
ATOM      2  C   UNL     1     -18.388 -19.569  -9.974  0.00  0.00    +0.000 C 
ENDROOT
BRANCH   2   3
ATOM      3  O   UNL     1     -18.709 -20.774  -9.484  0.00  0.00    +0.000 OA
ATOM      4  H   UNL     1     -19.300 -20.583  -8.729  0.00  0.00    +0.000 HD
ENDBRANCH   2   3
BRANCH   2   6
ATOM      5  O   UNL     1     -17.123 -17.638  -9.092  0.00  0.00    +0.000 OA
ATOM      6  C   UNL     1     -17.308 -18.839  -9.118  0.00  0.00    +0.000 C 
BRANCH   6   7
ATOM      7  O   UNL     1     -16.571 -19.685  -8.384  0.00  0.00    +0.000 OA
ATOM      8  H   UNL     1     -17.208 -20.083  -7.756  0.00  0.00    +0.000 HD
ENDBRANCH   6   7
ENDBRANCH   2   6
TORSDOF 3
ENDMDL
MODEL 8
REMARK VINA RESULT:      -2.6     27.856     28.756
REMARK  Name = 971_OxalicAcid.pdbqt.pdb
REMARK  3 active torsions:
REMARK  status: ('A' for Active; 'I' for Inactive)
REMARK    1  A    between atoms: C_2  and  O_3
REMARK    2  A    between atoms: C_2  and  C_6
REMARK    3  A    between atoms: C_6  and  O_7
REMARK                            x       y       z     vdW  Elec       q    Type
REMARK                         _______ _______ _______ _____ _____    ______ ____
ROOT
ATOM      1  O   UNL     1     -15.158  -5.894  -4.950  0.00  0.00    +0.000 OA
ATOM      2  C   UNL     1     -14.223  -6.097  -4.200  0.00  0.00    +0.000 C 
ENDROOT
BRANCH   2   3
ATOM      3  O   UNL     1     -14.393  -6.648  -2.990  0.00  0.00    +0.000 OA
ATOM      4  H   UNL     1     -15.243  -7.126  -3.055  0.00  0.00    +0.000 HD
ENDBRANCH   2   3
BRANCH   2   6
ATOM      5  O   UNL     1     -11.905  -6.551  -4.924  0.00  0.00    +0.000 OA
ATOM      6  C   UNL     1     -12.730  -5.763  -4.506  0.00  0.00    +0.000 C 
BRANCH   6   7
ATOM      7  O   UNL     1     -12.426  -4.482  -4.258  0.00  0.00    +0.000 OA
ATOM      8  H   UNL     1     -11.465  -4.490  -4.073  0.00  0.00    +0.000 HD
ENDBRANCH   6   7
ENDBRANCH   2   6
TORSDOF 3
ENDMDL
MODEL 9
REMARK VINA RESULT:      -2.6     10.966     11.563
REMARK  Name = 971_OxalicAcid.pdbqt.pdb
REMARK  3 active torsions:
REMARK  status: ('A' for Active; 'I' for Inactive)
REMARK    1  A    between atoms: C_2  and  O_3
REMARK    2  A    between atoms: C_2  and  C_6
REMARK    3  A    between atoms: C_6  and  O_7
REMARK                            x       y       z     vdW  Elec       q    Type
REMARK                         _______ _______ _______ _____ _____    ______ ____
ROOT
ATOM      1  O   UNL     1      -6.994 -26.861 -15.461  0.00  0.00    +0.000 OA
ATOM      2  C   UNL     1      -8.152 -26.498 -15.526  0.00  0.00    +0.000 C 
ENDROOT
BRANCH   2   3
ATOM      3  O   UNL     1      -9.079 -26.928 -14.659  0.00  0.00    +0.000 OA
ATOM      4  H   UNL     1      -8.793 -27.833 -14.422  0.00  0.00    +0.000 HD
ENDBRANCH   2   3
BRANCH   2   6
ATOM      5  O   UNL     1      -9.809 -25.619 -17.135  0.00  0.00    +0.000 OA
ATOM      6  C   UNL     1      -8.731 -25.510 -16.585  0.00  0.00    +0.000 C 
BRANCH   6   7
ATOM      7  O   UNL     1      -7.903 -24.489 -16.847  0.00  0.00    +0.000 OA
ATOM      8  H   UNL     1      -8.082 -24.261 -17.781  0.00  0.00    +0.000 HD
ENDBRANCH   6   7
ENDBRANCH   2   6
TORSDOF 3
ENDMDL
