MODEL 1
REMARK VINA RESULT:      -6.6      0.000      0.000
REMARK  Name = 9852185_GambogicAcid.pdbqt.pdb
REMARK  10 active torsions:
REMARK  status: ('A' for Active; 'I' for Inactive)
REMARK    1  A    between atoms: C_8  and  C_30
REMARK    2  A    between atoms: C_20  and  C_38
REMARK    3  A    between atoms: C_21  and  O_28
REMARK    4  A    between atoms: C_25  and  C_43
REMARK    5  A    between atoms: C_31  and  C_32
REMARK    6  A    between atoms: C_32  and  C_35
REMARK    7  A    between atoms: C_35  and  O_36
REMARK    8  A    between atoms: C_39  and  C_40
REMARK    9  A    between atoms: C_43  and  C_44
REMARK   10  A    between atoms: C_45  and  C_46
REMARK                            x       y       z     vdW  Elec       q    Type
REMARK                         _______ _______ _______ _____ _____    ______ ____
ROOT
ATOM      1  O   UNL     1      -4.308 -38.490  -4.365  0.00  0.00    +0.000 OA
ATOM      2  O   UNL     1      -3.809 -36.340  -6.215  0.00  0.00    +0.000 OA
ATOM      3  O   UNL     1      -6.985 -37.914  -2.760  0.00  0.00    +0.000 OA
ATOM      4  O   UNL     1      -5.507 -32.657  -5.503  0.00  0.00    +0.000 OA
ATOM      5  O   UNL     1      -1.136 -34.630  -9.753  0.00  0.00    +0.000 OA
ATOM      6  C   UNL     1      -4.488 -36.184  -4.977  0.00  0.00    +0.000 C 
ATOM      7  C   UNL     1      -3.535 -36.340  -3.738  0.00  0.00    +0.000 C 
ATOM      8  C   UNL     1      -5.306 -37.484  -4.598  0.00  0.00    +0.000 C 
ATOM      9  C   UNL     1      -3.165 -37.826  -3.799  0.00  0.00    +0.000 C 
ATOM     10  C   UNL     1      -4.280 -35.874  -2.567  0.00  0.00    +0.000 C 
ATOM     11  C   UNL     1      -5.730 -35.823  -2.635  0.00  0.00    +0.000 C 
ATOM     12  C   UNL     1      -5.376 -34.930  -4.901  0.00  0.00    +0.000 C 
ATOM     13  C   UNL     1      -6.148 -37.183  -3.264  0.00  0.00    +0.000 C 
ATOM     14  C   UNL     1      -6.044 -34.842  -3.641  0.00  0.00    +0.000 C 
ATOM     15  C   UNL     1      -2.911 -38.415  -2.404  0.00  0.00    +0.000 C 
ATOM     16  C   UNL     1      -1.939 -38.030  -4.703  0.00  0.00    +0.000 C 
ATOM     17  C   UNL     1      -5.012 -33.760  -5.698  0.00  0.00    +0.000 C 
ATOM     18  C   UNL     1      -3.447 -35.234  -6.936  0.00  0.00    +0.000 A 
ATOM     19  C   UNL     1      -3.992 -33.958  -6.735  0.00  0.00    +0.000 A 
ATOM     20  C   UNL     1      -2.499 -35.443  -7.961  0.00  0.00    +0.000 A 
ATOM     21  C   UNL     1      -3.579 -32.875  -7.529  0.00  0.00    +0.000 A 
ATOM     22  C   UNL     1      -2.085 -34.372  -8.760  0.00  0.00    +0.000 A 
ATOM     23  C   UNL     1      -2.634 -33.086  -8.528  0.00  0.00    +0.000 A 
ATOM     24  C   UNL     1      -2.140 -32.089  -9.405  0.00  0.00    +0.000 C 
ATOM     25  C   UNL     1      -0.712 -33.556 -10.682  0.00  0.00    +0.000 C 
ATOM     26  C   UNL     1      -1.359 -32.306 -10.279  0.00  0.00    +0.000 C 
ATOM     27  C   UNL     1      -1.139 -34.001 -12.103  0.00  0.00    +0.000 C 
ENDROOT
BRANCH  21  28
ATOM     28  O   UNL     1      -4.070 -31.607  -7.366  0.00  0.00    +0.000 OA
ATOM     29  H   UNL     1      -3.507 -31.110  -6.731  0.00  0.00    +0.000 HD
ENDBRANCH  21  28
BRANCH   8  30
ATOM     30  C   UNL     1      -6.197 -37.921  -5.682  0.00  0.00    +0.000 C 
ATOM     31  C   UNL     1      -7.114 -38.431  -6.805  0.00  0.00    +0.000 C 
BRANCH  31  32
ATOM     32  C   UNL     1      -7.858 -38.909  -7.761  0.00  0.00    +0.000 C 
ATOM     33  C   UNL     1      -9.351 -38.842  -7.500  0.00  0.00    +0.000 C 
BRANCH  32  35
ATOM     34  O   UNL     1      -7.009 -38.816 -10.020  0.00  0.00    +0.000 OA
ATOM     35  C   UNL     1      -7.235 -39.449  -8.999  0.00  0.00    +0.000 C 
BRANCH  35  36
ATOM     36  O   UNL     1      -6.910 -40.758  -8.932  0.00  0.00    +0.000 OA
ATOM     37  H   UNL     1      -6.133 -40.799  -8.334  0.00  0.00    +0.000 HD
ENDBRANCH  35  36
ENDBRANCH  32  35
ENDBRANCH  31  32
ENDBRANCH   8  30
BRANCH  20  38
ATOM     38  C   UNL     1      -1.957 -36.753  -8.178  0.00  0.00    +0.000 C 
ATOM     39  C   UNL     1      -1.348 -38.143  -8.416  0.00  0.00    +0.000 C 
BRANCH  39  40
ATOM     40  C   UNL     1      -0.815 -39.308  -8.616  0.00  0.00    +0.000 C 
ATOM     41  C   UNL     1      -1.437 -40.240  -9.612  0.00  0.00    +0.000 C 
ATOM     42  C   UNL     1       0.535 -39.616  -8.044  0.00  0.00    +0.000 C 
ENDBRANCH  39  40
ENDBRANCH  20  38
BRANCH  25  43
ATOM     43  C   UNL     1       0.758 -33.462 -10.588  0.00  0.00    +0.000 C 
BRANCH  43  44
ATOM     44  C   UNL     1       2.285 -33.365 -10.482  0.00  0.00    +0.000 C 
ATOM     45  C   UNL     1       3.814 -33.269 -10.377  0.00  0.00    +0.000 C 
BRANCH  45  46
ATOM     46  C   UNL     1       5.105 -33.195 -10.286  0.00  0.00    +0.000 C 
ATOM     47  C   UNL     1       5.877 -34.367  -9.763  0.00  0.00    +0.000 C 
ATOM     48  C   UNL     1       5.800 -31.892 -10.531  0.00  0.00    +0.000 C 
ENDBRANCH  45  46
ENDBRANCH  43  44
ENDBRANCH  25  43
TORSDOF 10
ENDMDL
MODEL 2
REMARK VINA RESULT:      -6.0      2.367      2.943
REMARK  Name = 9852185_GambogicAcid.pdbqt.pdb
REMARK  10 active torsions:
REMARK  status: ('A' for Active; 'I' for Inactive)
REMARK    1  A    between atoms: C_8  and  C_30
REMARK    2  A    between atoms: C_20  and  C_38
REMARK    3  A    between atoms: C_21  and  O_28
REMARK    4  A    between atoms: C_25  and  C_43
REMARK    5  A    between atoms: C_31  and  C_32
REMARK    6  A    between atoms: C_32  and  C_35
REMARK    7  A    between atoms: C_35  and  O_36
REMARK    8  A    between atoms: C_39  and  C_40
REMARK    9  A    between atoms: C_43  and  C_44
REMARK   10  A    between atoms: C_45  and  C_46
REMARK                            x       y       z     vdW  Elec       q    Type
REMARK                         _______ _______ _______ _____ _____    ______ ____
ROOT
ATOM      1  O   UNL     1      -6.825 -38.221  -3.741  0.00  0.00    +0.000 OA
ATOM      2  O   UNL     1      -5.745 -36.390  -5.684  0.00  0.00    +0.000 OA
ATOM      3  O   UNL     1      -9.077 -36.764  -2.043  0.00  0.00    +0.000 OA
ATOM      4  O   UNL     1      -6.101 -32.341  -5.029  0.00  0.00    +0.000 OA
ATOM      5  O   UNL     1      -2.847 -35.722  -9.392  0.00  0.00    +0.000 OA
ATOM      6  C   UNL     1      -6.270 -35.996  -4.424  0.00  0.00    +0.000 C 
ATOM      7  C   UNL     1      -5.357 -36.434  -3.223  0.00  0.00    +0.000 C 
ATOM      8  C   UNL     1      -7.447 -36.946  -3.966  0.00  0.00    +0.000 C 
ATOM      9  C   UNL     1      -5.499 -37.960  -3.248  0.00  0.00    +0.000 C 
ATOM     10  C   UNL     1      -5.846 -35.727  -2.038  0.00  0.00    +0.000 C 
ATOM     11  C   UNL     1      -7.200 -35.202  -2.045  0.00  0.00    +0.000 C 
ATOM     12  C   UNL     1      -6.691 -34.518  -4.354  0.00  0.00    +0.000 C 
ATOM     13  C   UNL     1      -8.073 -36.359  -2.608  0.00  0.00    +0.000 C 
ATOM     14  C   UNL     1      -7.227 -34.191  -3.070  0.00  0.00    +0.000 C 
ATOM     15  C   UNL     1      -5.380 -38.573  -1.846  0.00  0.00    +0.000 C 
ATOM     16  C   UNL     1      -4.456 -38.573  -4.196  0.00  0.00    +0.000 C 
ATOM     17  C   UNL     1      -6.006 -33.548  -5.206  0.00  0.00    +0.000 C 
ATOM     18  C   UNL     1      -5.078 -35.479  -6.458  0.00  0.00    +0.000 A 
ATOM     19  C   UNL     1      -5.163 -34.091  -6.279  0.00  0.00    +0.000 A 
ATOM     20  C   UNL     1      -4.305 -36.008  -7.515  0.00  0.00    +0.000 A 
ATOM     21  C   UNL     1      -4.459 -33.219  -7.127  0.00  0.00    +0.000 A 
ATOM     22  C   UNL     1      -3.605 -35.148  -8.368  0.00  0.00    +0.000 A 
ATOM     23  C   UNL     1      -3.689 -33.749  -8.158  0.00  0.00    +0.000 A 
ATOM     24  C   UNL     1      -2.941 -32.986  -9.090  0.00  0.00    +0.000 C 
ATOM     25  C   UNL     1      -2.142 -34.866 -10.375  0.00  0.00    +0.000 C 
ATOM     26  C   UNL     1      -2.322 -33.466  -9.988  0.00  0.00    +0.000 C 
ATOM     27  C   UNL     1      -2.765 -35.172 -11.760  0.00  0.00    +0.000 C 
ENDROOT
BRANCH  21  28
ATOM     28  O   UNL     1      -4.498 -31.857  -6.987  0.00  0.00    +0.000 OA
ATOM     29  H   UNL     1      -4.017 -31.431  -7.732  0.00  0.00    +0.000 HD
ENDBRANCH  21  28
BRANCH   8  30
ATOM     30  C   UNL     1      -8.487 -37.086  -4.994  0.00  0.00    +0.000 C 
ATOM     31  C   UNL     1      -9.602 -37.192  -6.046  0.00  0.00    +0.000 C 
BRANCH  31  32
ATOM     32  C   UNL     1     -10.584 -37.258  -6.901  0.00  0.00    +0.000 C 
ATOM     33  C   UNL     1     -10.606 -38.516  -7.749  0.00  0.00    +0.000 C 
BRANCH  32  35
ATOM     34  O   UNL     1     -12.798 -36.305  -7.043  0.00  0.00    +0.000 OA
ATOM     35  C   UNL     1     -11.586 -36.161  -6.980  0.00  0.00    +0.000 C 
BRANCH  35  36
ATOM     36  O   UNL     1     -11.053 -34.921  -6.978  0.00  0.00    +0.000 OA
ATOM     37  H   UNL     1     -11.806 -34.318  -7.152  0.00  0.00    +0.000 HD
ENDBRANCH  35  36
ENDBRANCH  32  35
ENDBRANCH  31  32
ENDBRANCH   8  30
BRANCH  20  38
ATOM     38  C   UNL     1      -4.235 -37.427  -7.710  0.00  0.00    +0.000 C 
ATOM     39  C   UNL     1      -4.161 -38.950  -7.888  0.00  0.00    +0.000 C 
BRANCH  39  40
ATOM     40  C   UNL     1      -4.102 -40.239  -8.018  0.00  0.00    +0.000 C 
ATOM     41  C   UNL     1      -5.367 -41.014  -8.233  0.00  0.00    +0.000 C 
ATOM     42  C   UNL     1      -2.774 -40.909  -8.197  0.00  0.00    +0.000 C 
ENDBRANCH  39  40
ENDBRANCH  20  38
BRANCH  25  43
ATOM     43  C   UNL     1      -0.721 -35.260 -10.347  0.00  0.00    +0.000 C 
BRANCH  43  44
ATOM     44  C   UNL     1       0.755 -35.677 -10.319  0.00  0.00    +0.000 C 
ATOM     45  C   UNL     1       2.232 -36.094 -10.289  0.00  0.00    +0.000 C 
BRANCH  45  46
ATOM     46  C   UNL     1       3.482 -36.439 -10.263  0.00  0.00    +0.000 C 
ATOM     47  C   UNL     1       4.532 -35.445 -10.654  0.00  0.00    +0.000 C 
ATOM     48  C   UNL     1       3.860 -37.867 -10.020  0.00  0.00    +0.000 C 
ENDBRANCH  45  46
ENDBRANCH  43  44
ENDBRANCH  25  43
TORSDOF 10
ENDMDL
MODEL 3
REMARK VINA RESULT:      -5.8      3.068      5.345
REMARK  Name = 9852185_GambogicAcid.pdbqt.pdb
REMARK  10 active torsions:
REMARK  status: ('A' for Active; 'I' for Inactive)
REMARK    1  A    between atoms: C_8  and  C_30
REMARK    2  A    between atoms: C_20  and  C_38
REMARK    3  A    between atoms: C_21  and  O_28
REMARK    4  A    between atoms: C_25  and  C_43
REMARK    5  A    between atoms: C_31  and  C_32
REMARK    6  A    between atoms: C_32  and  C_35
REMARK    7  A    between atoms: C_35  and  O_36
REMARK    8  A    between atoms: C_39  and  C_40
REMARK    9  A    between atoms: C_43  and  C_44
REMARK   10  A    between atoms: C_45  and  C_46
REMARK                            x       y       z     vdW  Elec       q    Type
REMARK                         _______ _______ _______ _____ _____    ______ ____
ROOT
ATOM      1  O   UNL     1      -4.282 -36.511  -8.283  0.00  0.00    +0.000 OA
ATOM      2  O   UNL     1      -1.820 -35.601  -9.467  0.00  0.00    +0.000 OA
ATOM      3  O   UNL     1      -6.593 -34.422  -8.891  0.00  0.00    +0.000 OA
ATOM      4  O   UNL     1      -1.359 -31.592 -10.284  0.00  0.00    +0.000 OA
ATOM      5  O   UNL     1       2.740 -36.513 -10.446  0.00  0.00    +0.000 OA
ATOM      6  C   UNL     1      -2.847 -34.737  -9.000  0.00  0.00    +0.000 C 
ATOM      7  C   UNL     1      -2.970 -34.730  -7.435  0.00  0.00    +0.000 C 
ATOM      8  C   UNL     1      -4.276 -35.389  -9.179  0.00  0.00    +0.000 C 
ATOM      9  C   UNL     1      -3.484 -36.144  -7.144  0.00  0.00    +0.000 C 
ATOM     10  C   UNL     1      -3.840 -33.607  -7.081  0.00  0.00    +0.000 C 
ATOM     11  C   UNL     1      -4.727 -33.063  -8.095  0.00  0.00    +0.000 C 
ATOM     12  C   UNL     1      -2.804 -33.324  -9.608  0.00  0.00    +0.000 C 
ATOM     13  C   UNL     1      -5.385 -34.306  -8.758  0.00  0.00    +0.000 C 
ATOM     14  C   UNL     1      -3.871 -32.513  -9.114  0.00  0.00    +0.000 C 
ATOM     15  C   UNL     1      -4.380 -36.189  -5.897  0.00  0.00    +0.000 C 
ATOM     16  C   UNL     1      -2.303 -37.116  -6.995  0.00  0.00    +0.000 C 
ATOM     17  C   UNL     1      -1.516 -32.779 -10.034  0.00  0.00    +0.000 C 
ATOM     18  C   UNL     1      -0.608 -35.080  -9.833  0.00  0.00    +0.000 A 
ATOM     19  C   UNL     1      -0.395 -33.724 -10.122  0.00  0.00    +0.000 A 
ATOM     20  C   UNL     1       0.453 -36.003  -9.959  0.00  0.00    +0.000 A 
ATOM     21  C   UNL     1       0.877 -33.270 -10.509  0.00  0.00    +0.000 A 
ATOM     22  C   UNL     1       1.722 -35.561 -10.348  0.00  0.00    +0.000 A 
ATOM     23  C   UNL     1       1.921 -34.184 -10.617  0.00  0.00    +0.000 A 
ATOM     24  C   UNL     1       3.245 -33.864 -11.006  0.00  0.00    +0.000 C 
ATOM     25  C   UNL     1       4.088 -36.124 -10.925  0.00  0.00    +0.000 C 
ATOM     26  C   UNL     1       4.111 -34.674 -11.129  0.00  0.00    +0.000 C 
ATOM     27  C   UNL     1       4.335 -36.901 -12.242  0.00  0.00    +0.000 C 
ENDROOT
BRANCH  21  28
ATOM     28  O   UNL     1       1.141 -31.956 -10.789  0.00  0.00    +0.000 OA
ATOM     29  H   UNL     1       1.518 -31.514  -9.996  0.00  0.00    +0.000 HD
ENDBRANCH  21  28
BRANCH   8  30
ATOM     30  C   UNL     1      -4.511 -35.859 -10.551  0.00  0.00    +0.000 C 
ATOM     31  C   UNL     1      -4.809 -36.346 -11.978  0.00  0.00    +0.000 C 
BRANCH  31  32
ATOM     32  C   UNL     1      -5.114 -36.776 -13.169  0.00  0.00    +0.000 C 
ATOM     33  C   UNL     1      -4.356 -38.014 -13.612  0.00  0.00    +0.000 C 
BRANCH  32  35
ATOM     34  O   UNL     1      -6.448 -36.341 -15.134  0.00  0.00    +0.000 OA
ATOM     35  C   UNL     1      -6.146 -36.076 -13.980  0.00  0.00    +0.000 C 
BRANCH  35  36
ATOM     36  O   UNL     1      -6.772 -35.069 -13.333  0.00  0.00    +0.000 OA
ATOM     37  H   UNL     1      -6.785 -34.324 -13.969  0.00  0.00    +0.000 HD
ENDBRANCH  35  36
ENDBRANCH  32  35
ENDBRANCH  31  32
ENDBRANCH   8  30
BRANCH  20  38
ATOM     38  C   UNL     1       0.229 -37.392  -9.682  0.00  0.00    +0.000 C 
ATOM     39  C   UNL     1       0.018 -38.887  -9.399  0.00  0.00    +0.000 C 
BRANCH  39  40
ATOM     40  C   UNL     1      -0.140 -40.152  -9.163  0.00  0.00    +0.000 C 
ATOM     41  C   UNL     1      -0.292 -40.623  -7.748  0.00  0.00    +0.000 C 
ATOM     42  C   UNL     1      -0.413 -41.091 -10.298  0.00  0.00    +0.000 C 
ENDBRANCH  39  40
ENDBRANCH  20  38
BRANCH  25  43
ATOM     43  C   UNL     1       5.050 -36.542  -9.888  0.00  0.00    +0.000 C 
BRANCH  43  44
ATOM     44  C   UNL     1       6.044 -36.977  -8.804  0.00  0.00    +0.000 C 
ATOM     45  C   UNL     1       7.040 -37.414  -7.720  0.00  0.00    +0.000 C 
BRANCH  45  46
ATOM     46  C   UNL     1       7.875 -37.788  -6.802  0.00  0.00    +0.000 C 
ATOM     47  C   UNL     1       9.342 -37.551  -6.995  0.00  0.00    +0.000 C 
ATOM     48  C   UNL     1       7.399 -38.609  -5.645  0.00  0.00    +0.000 C 
ENDBRANCH  45  46
ENDBRANCH  43  44
ENDBRANCH  25  43
TORSDOF 10
ENDMDL
MODEL 4
REMARK VINA RESULT:      -5.8     19.415     23.418
REMARK  Name = 9852185_GambogicAcid.pdbqt.pdb
REMARK  10 active torsions:
REMARK  status: ('A' for Active; 'I' for Inactive)
REMARK    1  A    between atoms: C_8  and  C_30
REMARK    2  A    between atoms: C_20  and  C_38
REMARK    3  A    between atoms: C_21  and  O_28
REMARK    4  A    between atoms: C_25  and  C_43
REMARK    5  A    between atoms: C_31  and  C_32
REMARK    6  A    between atoms: C_32  and  C_35
REMARK    7  A    between atoms: C_35  and  O_36
REMARK    8  A    between atoms: C_39  and  C_40
REMARK    9  A    between atoms: C_43  and  C_44
REMARK   10  A    between atoms: C_45  and  C_46
REMARK                            x       y       z     vdW  Elec       q    Type
REMARK                         _______ _______ _______ _____ _____    ______ ____
ROOT
ATOM      1  O   UNL     1      -1.566 -19.163   2.150  0.00  0.00    +0.000 OA
ATOM      2  O   UNL     1      -3.169 -16.832   1.608  0.00  0.00    +0.000 OA
ATOM      3  O   UNL     1       1.408 -18.664   1.159  0.00  0.00    +0.000 OA
ATOM      4  O   UNL     1      -1.962 -14.218  -1.336  0.00  0.00    +0.000 OA
ATOM      5  O   UNL     1      -7.358 -14.641   2.093  0.00  0.00    +0.000 OA
ATOM      6  C   UNL     1      -2.053 -17.232   0.824  0.00  0.00    +0.000 C 
ATOM      7  C   UNL     1      -2.330 -18.538  -0.003  0.00  0.00    +0.000 C 
ATOM      8  C   UNL     1      -0.951 -17.943   1.707  0.00  0.00    +0.000 C 
ATOM      9  C   UNL     1      -2.440 -19.600   1.095  0.00  0.00    +0.000 C 
ATOM     10  C   UNL     1      -1.237 -18.670  -0.968  0.00  0.00    +0.000 C 
ATOM     11  C   UNL     1       0.008 -17.965  -0.716  0.00  0.00    +0.000 C 
ATOM     12  C   UNL     1      -1.441 -16.101  -0.021  0.00  0.00    +0.000 C 
ATOM     13  C   UNL     1       0.327 -18.242   0.781  0.00  0.00    +0.000 C 
ATOM     14  C   UNL     1      -0.315 -16.562  -0.769  0.00  0.00    +0.000 C 
ATOM     15  C   UNL     1      -1.959 -20.978   0.616  0.00  0.00    +0.000 C 
ATOM     16  C   UNL     1      -3.885 -19.682   1.610  0.00  0.00    +0.000 C 
ATOM     17  C   UNL     1      -2.303 -15.007  -0.465  0.00  0.00    +0.000 C 
ATOM     18  C   UNL     1      -3.985 -15.826   1.165  0.00  0.00    +0.000 A 
ATOM     19  C   UNL     1      -3.626 -14.910   0.167  0.00  0.00    +0.000 A 
ATOM     20  C   UNL     1      -5.237 -15.713   1.808  0.00  0.00    +0.000 A 
ATOM     21  C   UNL     1      -4.515 -13.894  -0.222  0.00  0.00    +0.000 A 
ATOM     22  C   UNL     1      -6.128 -14.702   1.433  0.00  0.00    +0.000 A 
ATOM     23  C   UNL     1      -5.753 -13.798   0.407  0.00  0.00    +0.000 A 
ATOM     24  C   UNL     1      -6.736 -12.818   0.123  0.00  0.00    +0.000 C 
ATOM     25  C   UNL     1      -8.316 -13.549   1.795  0.00  0.00    +0.000 C 
ATOM     26  C   UNL     1      -7.772 -12.735   0.706  0.00  0.00    +0.000 C 
ATOM     27  C   UNL     1      -8.485 -12.735   3.102  0.00  0.00    +0.000 C 
ENDROOT
BRANCH  21  28
ATOM     28  O   UNL     1      -4.218 -12.983  -1.200  0.00  0.00    +0.000 OA
ATOM     29  H   UNL     1      -4.303 -12.070  -0.843  0.00  0.00    +0.000 HD
ENDBRANCH  21  28
BRANCH   8  30
ATOM     30  C   UNL     1      -0.564 -17.139   2.875  0.00  0.00    +0.000 C 
ATOM     31  C   UNL     1      -0.202 -16.266   4.086  0.00  0.00    +0.000 C 
BRANCH  31  32
ATOM     32  C   UNL     1       0.079 -15.482   5.089  0.00  0.00    +0.000 C 
ATOM     33  C   UNL     1       0.870 -16.136   6.207  0.00  0.00    +0.000 C 
BRANCH  32  35
ATOM     34  O   UNL     1       0.051 -13.181   5.821  0.00  0.00    +0.000 OA
ATOM     35  C   UNL     1      -0.354 -14.059   5.073  0.00  0.00    +0.000 C 
BRANCH  35  36
ATOM     36  O   UNL     1      -1.275 -13.769   4.129  0.00  0.00    +0.000 OA
ATOM     37  H   UNL     1      -1.659 -14.633   3.872  0.00  0.00    +0.000 HD
ENDBRANCH  35  36
ENDBRANCH  32  35
ENDBRANCH  31  32
ENDBRANCH   8  30
BRANCH  20  38
ATOM     38  C   UNL     1      -5.596 -16.639   2.844  0.00  0.00    +0.000 C 
ATOM     39  C   UNL     1      -6.001 -17.608   3.963  0.00  0.00    +0.000 C 
BRANCH  39  40
ATOM     40  C   UNL     1      -6.359 -18.415   4.913  0.00  0.00    +0.000 C 
ATOM     41  C   UNL     1      -5.308 -19.063   5.763  0.00  0.00    +0.000 C 
ATOM     42  C   UNL     1      -7.801 -18.501   5.311  0.00  0.00    +0.000 C 
ENDBRANCH  39  40
ENDBRANCH  20  38
BRANCH  25  43
ATOM     43  C   UNL     1      -9.590 -14.188   1.413  0.00  0.00    +0.000 C 
BRANCH  43  44
ATOM     44  C   UNL     1     -10.910 -14.859   1.014  0.00  0.00    +0.000 C 
ATOM     45  C   UNL     1     -12.232 -15.532   0.617  0.00  0.00    +0.000 C 
BRANCH  45  46
ATOM     46  C   UNL     1     -13.344 -16.106   0.279  0.00  0.00    +0.000 C 
ATOM     47  C   UNL     1     -14.596 -15.801   1.042  0.00  0.00    +0.000 C 
ATOM     48  C   UNL     1     -13.342 -17.196  -0.747  0.00  0.00    +0.000 C 
ENDBRANCH  45  46
ENDBRANCH  43  44
ENDBRANCH  25  43
TORSDOF 10
ENDMDL
MODEL 5
REMARK VINA RESULT:      -5.7     21.409     25.079
REMARK  Name = 9852185_GambogicAcid.pdbqt.pdb
REMARK  10 active torsions:
REMARK  status: ('A' for Active; 'I' for Inactive)
REMARK    1  A    between atoms: C_8  and  C_30
REMARK    2  A    between atoms: C_20  and  C_38
REMARK    3  A    between atoms: C_21  and  O_28
REMARK    4  A    between atoms: C_25  and  C_43
REMARK    5  A    between atoms: C_31  and  C_32
REMARK    6  A    between atoms: C_32  and  C_35
REMARK    7  A    between atoms: C_35  and  O_36
REMARK    8  A    between atoms: C_39  and  C_40
REMARK    9  A    between atoms: C_43  and  C_44
REMARK   10  A    between atoms: C_45  and  C_46
REMARK                            x       y       z     vdW  Elec       q    Type
REMARK                         _______ _______ _______ _____ _____    ______ ____
ROOT
ATOM      1  O   UNL     1     -20.224 -15.084  -2.212  0.00  0.00    +0.000 OA
ATOM      2  O   UNL     1     -17.860 -16.653  -1.719  0.00  0.00    +0.000 OA
ATOM      3  O   UNL     1     -22.083 -16.587  -4.300  0.00  0.00    +0.000 OA
ATOM      4  O   UNL     1     -16.669 -19.411  -4.535  0.00  0.00    +0.000 OA
ATOM      5  O   UNL     1     -13.851 -17.195   0.775  0.00  0.00    +0.000 OA
ATOM      6  C   UNL     1     -18.575 -16.655  -2.947  0.00  0.00    +0.000 C 
ATOM      7  C   UNL     1     -18.425 -15.307  -3.738  0.00  0.00    +0.000 C 
ATOM      8  C   UNL     1     -20.122 -16.426  -2.714  0.00  0.00    +0.000 C 
ATOM      9  C   UNL     1     -19.182 -14.319  -2.843  0.00  0.00    +0.000 C 
ATOM     10  C   UNL     1     -18.950 -15.542  -5.084  0.00  0.00    +0.000 C 
ATOM     11  C   UNL     1     -19.855 -16.659  -5.296  0.00  0.00    +0.000 C 
ATOM     12  C   UNL     1     -18.324 -17.897  -3.819  0.00  0.00    +0.000 C 
ATOM     13  C   UNL     1     -20.875 -16.575  -4.126  0.00  0.00    +0.000 C 
ATOM     14  C   UNL     1     -19.085 -17.846  -5.027  0.00  0.00    +0.000 C 
ATOM     15  C   UNL     1     -19.839 -13.192  -3.653  0.00  0.00    +0.000 C 
ATOM     16  C   UNL     1     -18.238 -13.739  -1.778  0.00  0.00    +0.000 C 
ATOM     17  C   UNL     1     -17.040 -18.587  -3.710  0.00  0.00    +0.000 C 
ATOM     18  C   UNL     1     -16.644 -17.277  -1.641  0.00  0.00    +0.000 A 
ATOM     19  C   UNL     1     -16.188 -18.222  -2.571  0.00  0.00    +0.000 A 
ATOM     20  C   UNL     1     -15.851 -16.953  -0.518  0.00  0.00    +0.000 A 
ATOM     21  C   UNL     1     -14.932 -18.831  -2.411  0.00  0.00    +0.000 A 
ATOM     22  C   UNL     1     -14.601 -17.558  -0.347  0.00  0.00    +0.000 A 
ATOM     23  C   UNL     1     -14.151 -18.497  -1.309  0.00  0.00    +0.000 A 
ATOM     24  C   UNL     1     -12.875 -19.042  -1.020  0.00  0.00    +0.000 C 
ATOM     25  C   UNL     1     -12.552 -17.853   1.055  0.00  0.00    +0.000 C 
ATOM     26  C   UNL     1     -12.245 -18.766  -0.047  0.00  0.00    +0.000 C 
ATOM     27  C   UNL     1     -12.712 -18.600   2.403  0.00  0.00    +0.000 C 
ENDROOT
BRANCH  21  28
ATOM     28  O   UNL     1     -14.436 -19.750  -3.296  0.00  0.00    +0.000 OA
ATOM     29  H   UNL     1     -14.000 -20.484  -2.807  0.00  0.00    +0.000 HD
ENDBRANCH  21  28
BRANCH   8  30
ATOM     30  C   UNL     1     -20.686 -17.359  -1.729  0.00  0.00    +0.000 C 
ATOM     31  C   UNL     1     -21.224 -18.349  -0.685  0.00  0.00    +0.000 C 
BRANCH  31  32
ATOM     32  C   UNL     1     -21.632 -19.219   0.196  0.00  0.00    +0.000 C 
ATOM     33  C   UNL     1     -22.719 -18.718   1.129  0.00  0.00    +0.000 C 
BRANCH  32  35
ATOM     34  O   UNL     1     -21.092 -21.400  -0.688  0.00  0.00    +0.000 OA
ATOM     35  C   UNL     1     -21.051 -20.588   0.225  0.00  0.00    +0.000 C 
BRANCH  35  36
ATOM     36  O   UNL     1     -20.437 -20.907   1.384  0.00  0.00    +0.000 OA
ATOM     37  H   UNL     1     -19.716 -20.250   1.482  0.00  0.00    +0.000 HD
ENDBRANCH  35  36
ENDBRANCH  32  35
ENDBRANCH  31  32
ENDBRANCH   8  30
BRANCH  20  38
ATOM     38  C   UNL     1     -16.326 -16.001   0.444  0.00  0.00    +0.000 C 
ATOM     39  C   UNL     1     -16.805 -14.971   1.477  0.00  0.00    +0.000 C 
BRANCH  39  40
ATOM     40  C   UNL     1     -17.192 -14.092   2.348  0.00  0.00    +0.000 C 
ATOM     41  C   UNL     1     -16.167 -13.245   3.042  0.00  0.00    +0.000 C 
ATOM     42  C   UNL     1     -18.647 -13.759   2.473  0.00  0.00    +0.000 C 
ENDBRANCH  39  40
ENDBRANCH  20  38
BRANCH  25  43
ATOM     43  C   UNL     1     -11.544 -16.782   1.172  0.00  0.00    +0.000 C 
BRANCH  43  44
ATOM     44  C   UNL     1     -10.491 -15.675   1.296  0.00  0.00    +0.000 C 
ATOM     45  C   UNL     1      -9.436 -14.565   1.422  0.00  0.00    +0.000 C 
BRANCH  45  46
ATOM     46  C   UNL     1      -8.552 -13.624   1.528  0.00  0.00    +0.000 C 
ATOM     47  C   UNL     1      -8.144 -13.142   2.886  0.00  0.00    +0.000 C 
ATOM     48  C   UNL     1      -8.076 -12.901   0.306  0.00  0.00    +0.000 C 
ENDBRANCH  45  46
ENDBRANCH  43  44
ENDBRANCH  25  43
TORSDOF 10
ENDMDL
MODEL 6
REMARK VINA RESULT:      -5.6      2.858      8.847
REMARK  Name = 9852185_GambogicAcid.pdbqt.pdb
REMARK  10 active torsions:
REMARK  status: ('A' for Active; 'I' for Inactive)
REMARK    1  A    between atoms: C_8  and  C_30
REMARK    2  A    between atoms: C_20  and  C_38
REMARK    3  A    between atoms: C_21  and  O_28
REMARK    4  A    between atoms: C_25  and  C_43
REMARK    5  A    between atoms: C_31  and  C_32
REMARK    6  A    between atoms: C_32  and  C_35
REMARK    7  A    between atoms: C_35  and  O_36
REMARK    8  A    between atoms: C_39  and  C_40
REMARK    9  A    between atoms: C_43  and  C_44
REMARK   10  A    between atoms: C_45  and  C_46
REMARK                            x       y       z     vdW  Elec       q    Type
REMARK                         _______ _______ _______ _____ _____    ______ ____
ROOT
ATOM      1  O   UNL     1      -3.119 -37.188 -10.404  0.00  0.00    +0.000 OA
ATOM      2  O   UNL     1      -2.618 -36.785  -7.597  0.00  0.00    +0.000 OA
ATOM      3  O   UNL     1      -3.034 -34.396 -11.912  0.00  0.00    +0.000 OA
ATOM      4  O   UNL     1      -3.330 -33.078  -5.952  0.00  0.00    +0.000 OA
ATOM      5  O   UNL     1      -1.898 -38.745  -3.327  0.00  0.00    +0.000 OA
ATOM      6  C   UNL     1      -3.242 -35.827  -8.440  0.00  0.00    +0.000 C 
ATOM      7  C   UNL     1      -4.684 -36.259  -8.888  0.00  0.00    +0.000 C 
ATOM      8  C   UNL     1      -2.685 -35.908  -9.918  0.00  0.00    +0.000 C 
ATOM      9  C   UNL     1      -4.395 -37.457  -9.799  0.00  0.00    +0.000 C 
ATOM     10  C   UNL     1      -5.312 -35.083  -9.491  0.00  0.00    +0.000 C 
ATOM     11  C   UNL     1      -4.464 -34.005  -9.971  0.00  0.00    +0.000 C 
ATOM     12  C   UNL     1      -3.183 -34.386  -7.905  0.00  0.00    +0.000 C 
ATOM     13  C   UNL     1      -3.335 -34.713 -10.772  0.00  0.00    +0.000 C 
ATOM     14  C   UNL     1      -3.808 -33.471  -8.806  0.00  0.00    +0.000 C 
ATOM     15  C   UNL     1      -5.437 -37.594 -10.919  0.00  0.00    +0.000 C 
ATOM     16  C   UNL     1      -4.322 -38.748  -8.969  0.00  0.00    +0.000 C 
ATOM     17  C   UNL     1      -3.124 -34.172  -6.460  0.00  0.00    +0.000 C 
ATOM     18  C   UNL     1      -2.598 -36.587  -6.242  0.00  0.00    +0.000 A 
ATOM     19  C   UNL     1      -2.834 -35.348  -5.630  0.00  0.00    +0.000 A 
ATOM     20  C   UNL     1      -2.274 -37.713  -5.455  0.00  0.00    +0.000 A 
ATOM     21  C   UNL     1      -2.778 -35.223  -4.231  0.00  0.00    +0.000 A 
ATOM     22  C   UNL     1      -2.212 -37.598  -4.062  0.00  0.00    +0.000 A 
ATOM     23  C   UNL     1      -2.472 -36.341  -3.461  0.00  0.00    +0.000 A 
ATOM     24  C   UNL     1      -2.372 -36.352  -2.047  0.00  0.00    +0.000 C 
ATOM     25  C   UNL     1      -1.742 -38.674  -1.855  0.00  0.00    +0.000 C 
ATOM     26  C   UNL     1      -2.068 -37.316  -1.415  0.00  0.00    +0.000 C 
ATOM     27  C   UNL     1      -0.272 -39.049  -1.543  0.00  0.00    +0.000 C 
ENDROOT
BRANCH  21  28
ATOM     28  O   UNL     1      -3.013 -34.039  -3.583  0.00  0.00    +0.000 OA
ATOM     29  H   UNL     1      -2.743 -33.286  -4.156  0.00  0.00    +0.000 HD
ENDBRANCH  21  28
BRANCH   8  30
ATOM     30  C   UNL     1      -1.218 -35.839  -9.969  0.00  0.00    +0.000 C 
ATOM     31  C   UNL     1       0.312 -35.743 -10.071  0.00  0.00    +0.000 C 
BRANCH  31  32
ATOM     32  C   UNL     1       1.605 -35.660 -10.214  0.00  0.00    +0.000 C 
ATOM     33  C   UNL     1       2.342 -36.984 -10.125  0.00  0.00    +0.000 C 
BRANCH  32  35
ATOM     34  O   UNL     1       3.445 -34.155 -10.637  0.00  0.00    +0.000 OA
ATOM     35  C   UNL     1       2.251 -34.343 -10.461  0.00  0.00    +0.000 C 
BRANCH  35  36
ATOM     36  O   UNL     1       1.394 -33.299 -10.483  0.00  0.00    +0.000 OA
ATOM     37  H   UNL     1       1.052 -33.229  -9.567  0.00  0.00    +0.000 HD
ENDBRANCH  35  36
ENDBRANCH  32  35
ENDBRANCH  31  32
ENDBRANCH   8  30
BRANCH  20  38
ATOM     38  C   UNL     1      -2.014 -38.976  -6.083  0.00  0.00    +0.000 C 
ATOM     39  C   UNL     1      -1.717 -40.336  -6.731  0.00  0.00    +0.000 C 
BRANCH  39  40
ATOM     40  C   UNL     1      -1.458 -41.491  -7.261  0.00  0.00    +0.000 C 
ATOM     41  C   UNL     1      -2.463 -42.121  -8.178  0.00  0.00    +0.000 C 
ATOM     42  C   UNL     1      -0.079 -42.066  -7.153  0.00  0.00    +0.000 C 
ENDBRANCH  39  40
ENDBRANCH  20  38
BRANCH  25  43
ATOM     43  C   UNL     1      -2.665 -39.669  -1.277  0.00  0.00    +0.000 C 
BRANCH  43  44
ATOM     44  C   UNL     1      -3.623 -40.700  -0.668  0.00  0.00    +0.000 C 
ATOM     45  C   UNL     1      -4.583 -41.732  -0.058  0.00  0.00    +0.000 C 
BRANCH  45  46
ATOM     46  C   UNL     1      -5.388 -42.605   0.463  0.00  0.00    +0.000 C 
ATOM     47  C   UNL     1      -4.940 -44.027   0.611  0.00  0.00    +0.000 C 
ATOM     48  C   UNL     1      -6.811 -42.237   0.746  0.00  0.00    +0.000 C 
ENDBRANCH  45  46
ENDBRANCH  43  44
ENDBRANCH  25  43
TORSDOF 10
ENDMDL
MODEL 7
REMARK VINA RESULT:      -5.6     20.425     25.207
REMARK  Name = 9852185_GambogicAcid.pdbqt.pdb
REMARK  10 active torsions:
REMARK  status: ('A' for Active; 'I' for Inactive)
REMARK    1  A    between atoms: C_8  and  C_30
REMARK    2  A    between atoms: C_20  and  C_38
REMARK    3  A    between atoms: C_21  and  O_28
REMARK    4  A    between atoms: C_25  and  C_43
REMARK    5  A    between atoms: C_31  and  C_32
REMARK    6  A    between atoms: C_32  and  C_35
REMARK    7  A    between atoms: C_35  and  O_36
REMARK    8  A    between atoms: C_39  and  C_40
REMARK    9  A    between atoms: C_43  and  C_44
REMARK   10  A    between atoms: C_45  and  C_46
REMARK                            x       y       z     vdW  Elec       q    Type
REMARK                         _______ _______ _______ _____ _____    ______ ____
ROOT
ATOM      1  O   UNL     1       4.453 -11.209  -3.794  0.00  0.00    +0.000 OA
ATOM      2  O   UNL     1       1.858 -12.372  -4.248  0.00  0.00    +0.000 OA
ATOM      3  O   UNL     1       5.613 -10.093  -6.530  0.00  0.00    +0.000 OA
ATOM      4  O   UNL     1       0.874 -13.643  -8.039  0.00  0.00    +0.000 OA
ATOM      5  O   UNL     1      -2.038 -14.347  -2.375  0.00  0.00    +0.000 OA
ATOM      6  C   UNL     1       2.896 -12.337  -5.218  0.00  0.00    +0.000 C 
ATOM      7  C   UNL     1       4.091 -13.293  -4.862  0.00  0.00    +0.000 C 
ATOM      8  C   UNL     1       3.793 -11.045  -5.059  0.00  0.00    +0.000 C 
ATOM      9  C   UNL     1       4.688 -12.617  -3.623  0.00  0.00    +0.000 C 
ATOM     10  C   UNL     1       4.933 -13.384  -6.056  0.00  0.00    +0.000 C 
ATOM     11  C   UNL     1       4.831 -12.343  -7.065  0.00  0.00    +0.000 C 
ATOM     12  C   UNL     1       2.407 -12.498  -6.668  0.00  0.00    +0.000 C 
ATOM     13  C   UNL     1       4.852 -11.010  -6.266  0.00  0.00    +0.000 C 
ATOM     14  C   UNL     1       3.494 -12.434  -7.593  0.00  0.00    +0.000 C 
ATOM     15  C   UNL     1       6.203 -12.841  -3.517  0.00  0.00    +0.000 C 
ATOM     16  C   UNL     1       3.979 -13.117  -2.354  0.00  0.00    +0.000 C 
ATOM     17  C   UNL     1       1.185 -13.258  -6.920  0.00  0.00    +0.000 C 
ATOM     18  C   UNL     1       0.732 -13.114  -4.485  0.00  0.00    +0.000 A 
ATOM     19  C   UNL     1       0.350 -13.573  -5.753  0.00  0.00    +0.000 A 
ATOM     20  C   UNL     1      -0.087 -13.374  -3.364  0.00  0.00    +0.000 A 
ATOM     21  C   UNL     1      -0.831 -14.316  -5.916  0.00  0.00    +0.000 A 
ATOM     22  C   UNL     1      -1.268 -14.109  -3.517  0.00  0.00    +0.000 A 
ATOM     23  C   UNL     1      -1.626 -14.580  -4.805  0.00  0.00    +0.000 A 
ATOM     24  C   UNL     1      -2.844 -15.304  -4.829  0.00  0.00    +0.000 C 
ATOM     25  C   UNL     1      -3.336 -15.054  -2.480  0.00  0.00    +0.000 C 
ATOM     26  C   UNL     1      -3.526 -15.480  -3.867  0.00  0.00    +0.000 C 
ATOM     27  C   UNL     1      -4.427 -14.053  -2.024  0.00  0.00    +0.000 C 
ENDROOT
BRANCH  21  28
ATOM     28  O   UNL     1      -1.242 -14.798  -7.130  0.00  0.00    +0.000 OA
ATOM     29  H   UNL     1      -0.679 -14.425  -7.845  0.00  0.00    +0.000 HD
ENDBRANCH  21  28
BRANCH   8  30
ATOM     30  C   UNL     1       2.996  -9.810  -5.036  0.00  0.00    +0.000 C 
ATOM     31  C   UNL     1       2.120  -8.548  -4.998  0.00  0.00    +0.000 C 
BRANCH  31  32
ATOM     32  C   UNL     1       1.332  -7.511  -4.976  0.00  0.00    +0.000 C 
ATOM     33  C   UNL     1       2.026  -6.178  -5.193  0.00  0.00    +0.000 C 
BRANCH  32  35
ATOM     34  O   UNL     1      -0.985  -7.647  -5.641  0.00  0.00    +0.000 OA
ATOM     35  C   UNL     1      -0.131  -7.683  -4.768  0.00  0.00    +0.000 C 
BRANCH  35  36
ATOM     36  O   UNL     1      -0.488  -7.897  -3.483  0.00  0.00    +0.000 OA
ATOM     37  H   UNL     1      -0.599  -7.003  -3.096  0.00  0.00    +0.000 HD
ENDBRANCH  35  36
ENDBRANCH  32  35
ENDBRANCH  31  32
ENDBRANCH   8  30
BRANCH  20  38
ATOM     38  C   UNL     1       0.294 -12.887  -2.070  0.00  0.00    +0.000 C 
ATOM     39  C   UNL     1       0.704 -12.337  -0.696  0.00  0.00    +0.000 C 
BRANCH  39  40
ATOM     40  C   UNL     1       1.046 -11.853   0.457  0.00  0.00    +0.000 C 
ATOM     41  C   UNL     1       0.014 -11.729   1.538  0.00  0.00    +0.000 C 
ATOM     42  C   UNL     1       2.495 -11.655   0.780  0.00  0.00    +0.000 C 
ENDBRANCH  39  40
ENDBRANCH  20  38
BRANCH  25  43
ATOM     43  C   UNL     1      -3.273 -16.206  -1.560  0.00  0.00    +0.000 C 
BRANCH  43  44
ATOM     44  C   UNL     1      -3.210 -17.409  -0.611  0.00  0.00    +0.000 C 
ATOM     45  C   UNL     1      -3.144 -18.613   0.341  0.00  0.00    +0.000 C 
BRANCH  45  46
ATOM     46  C   UNL     1      -3.083 -19.631   1.140  0.00  0.00    +0.000 C 
ATOM     47  C   UNL     1      -2.155 -20.764   0.825  0.00  0.00    +0.000 C 
ATOM     48  C   UNL     1      -4.057 -19.757   2.269  0.00  0.00    +0.000 C 
ENDBRANCH  45  46
ENDBRANCH  43  44
ENDBRANCH  25  43
TORSDOF 10
ENDMDL
MODEL 8
REMARK VINA RESULT:      -5.6     18.653     23.332
REMARK  Name = 9852185_GambogicAcid.pdbqt.pdb
REMARK  10 active torsions:
REMARK  status: ('A' for Active; 'I' for Inactive)
REMARK    1  A    between atoms: C_8  and  C_30
REMARK    2  A    between atoms: C_20  and  C_38
REMARK    3  A    between atoms: C_21  and  O_28
REMARK    4  A    between atoms: C_25  and  C_43
REMARK    5  A    between atoms: C_31  and  C_32
REMARK    6  A    between atoms: C_32  and  C_35
REMARK    7  A    between atoms: C_35  and  O_36
REMARK    8  A    between atoms: C_39  and  C_40
REMARK    9  A    between atoms: C_43  and  C_44
REMARK   10  A    between atoms: C_45  and  C_46
REMARK                            x       y       z     vdW  Elec       q    Type
REMARK                         _______ _______ _______ _____ _____    ______ ____
ROOT
ATOM      1  O   UNL     1      -9.414 -16.195   4.888  0.00  0.00    +0.000 OA
ATOM      2  O   UNL     1     -11.102 -18.443   4.261  0.00  0.00    +0.000 OA
ATOM      3  O   UNL     1     -10.016 -13.818   2.872  0.00  0.00    +0.000 OA
ATOM      4  O   UNL     1     -12.667 -18.770   0.467  0.00  0.00    +0.000 OA
ATOM      5  O   UNL     1     -12.596 -22.795   5.452  0.00  0.00    +0.000 OA
ATOM      6  C   UNL     1     -10.642 -17.501   3.303  0.00  0.00    +0.000 C 
ATOM      7  C   UNL     1      -9.101 -17.623   3.023  0.00  0.00    +0.000 C 
ATOM      8  C   UNL     1     -10.482 -16.061   3.937  0.00  0.00    +0.000 C 
ATOM      9  C   UNL     1      -8.493 -17.160   4.352  0.00  0.00    +0.000 C 
ATOM     10  C   UNL     1      -8.820 -16.819   1.833  0.00  0.00    +0.000 C 
ATOM     11  C   UNL     1      -9.764 -15.785   1.447  0.00  0.00    +0.000 C 
ATOM     12  C   UNL     1     -11.485 -17.449   2.017  0.00  0.00    +0.000 C 
ATOM     13  C   UNL     1     -10.092 -15.031   2.768  0.00  0.00    +0.000 C 
ATOM     14  C   UNL     1     -10.983 -16.471   1.105  0.00  0.00    +0.000 C 
ATOM     15  C   UNL     1      -7.136 -16.470   4.157  0.00  0.00    +0.000 C 
ATOM     16  C   UNL     1      -8.360 -18.350   5.316  0.00  0.00    +0.000 C 
ATOM     17  C   UNL     1     -12.193 -18.654   1.589  0.00  0.00    +0.000 C 
ATOM     18  C   UNL     1     -11.736 -19.582   3.844  0.00  0.00    +0.000 A 
ATOM     19  C   UNL     1     -12.286 -19.748   2.565  0.00  0.00    +0.000 A 
ATOM     20  C   UNL     1     -11.859 -20.611   4.804  0.00  0.00    +0.000 A 
ATOM     21  C   UNL     1     -12.936 -20.944   2.219  0.00  0.00    +0.000 A 
ATOM     22  C   UNL     1     -12.509 -21.804   4.470  0.00  0.00    +0.000 A 
ATOM     23  C   UNL     1     -13.042 -21.959   3.166  0.00  0.00    +0.000 A 
ATOM     24  C   UNL     1     -13.680 -23.206   2.954  0.00  0.00    +0.000 C 
ATOM     25  C   UNL     1     -13.336 -24.051   5.188  0.00  0.00    +0.000 C 
ATOM     26  C   UNL     1     -13.791 -24.042   3.796  0.00  0.00    +0.000 C 
ATOM     27  C   UNL     1     -14.519 -24.090   6.187  0.00  0.00    +0.000 C 
ENDROOT
BRANCH  21  28
ATOM     28  O   UNL     1     -13.478 -21.161   0.980  0.00  0.00    +0.000 OA
ATOM     29  H   UNL     1     -13.193 -22.039   0.640  0.00  0.00    +0.000 HD
ENDBRANCH  21  28
BRANCH   8  30
ATOM     30  C   UNL     1     -11.699 -15.616   4.630  0.00  0.00    +0.000 C 
ATOM     31  C   UNL     1     -13.001 -15.183   5.322  0.00  0.00    +0.000 C 
BRANCH  31  32
ATOM     32  C   UNL     1     -14.133 -14.829   5.862  0.00  0.00    +0.000 C 
ATOM     33  C   UNL     1     -14.289 -15.209   7.323  0.00  0.00    +0.000 C 
BRANCH  32  35
ATOM     34  O   UNL     1     -15.069 -13.838   3.869  0.00  0.00    +0.000 OA
ATOM     35  C   UNL     1     -15.150 -14.095   5.061  0.00  0.00    +0.000 C 
BRANCH  35  36
ATOM     36  O   UNL     1     -16.234 -13.704   5.764  0.00  0.00    +0.000 OA
ATOM     37  H   UNL     1     -16.963 -14.282   5.453  0.00  0.00    +0.000 HD
ENDBRANCH  35  36
ENDBRANCH  32  35
ENDBRANCH  31  32
ENDBRANCH   8  30
BRANCH  20  38
ATOM     38  C   UNL     1     -11.314 -20.433   6.118  0.00  0.00    +0.000 C 
ATOM     39  C   UNL     1     -10.732 -20.212   7.522  0.00  0.00    +0.000 C 
BRANCH  39  40
ATOM     40  C   UNL     1     -10.246 -20.005   8.706  0.00  0.00    +0.000 C 
ATOM     41  C   UNL     1     -11.178 -19.907   9.877  0.00  0.00    +0.000 C 
ATOM     42  C   UNL     1      -8.769 -20.110   8.933  0.00  0.00    +0.000 C 
ENDBRANCH  39  40
ENDBRANCH  20  38
BRANCH  25  43
ATOM     43  C   UNL     1     -12.402 -25.163   5.447  0.00  0.00    +0.000 C 
BRANCH  43  44
ATOM     44  C   UNL     1     -11.427 -26.317   5.710  0.00  0.00    +0.000 C 
ATOM     45  C   UNL     1     -10.451 -27.473   5.975  0.00  0.00    +0.000 C 
BRANCH  45  46
ATOM     46  C   UNL     1      -9.623 -28.444   6.204  0.00  0.00    +0.000 C 
ATOM     47  C   UNL     1      -9.803 -29.751   5.495  0.00  0.00    +0.000 C 
ATOM     48  C   UNL     1      -8.607 -28.321   7.296  0.00  0.00    +0.000 C 
ENDBRANCH  45  46
ENDBRANCH  43  44
ENDBRANCH  25  43
TORSDOF 10
ENDMDL
MODEL 9
REMARK VINA RESULT:      -5.4     21.572     25.265
REMARK  Name = 9852185_GambogicAcid.pdbqt.pdb
REMARK  10 active torsions:
REMARK  status: ('A' for Active; 'I' for Inactive)
REMARK    1  A    between atoms: C_8  and  C_30
REMARK    2  A    between atoms: C_20  and  C_38
REMARK    3  A    between atoms: C_21  and  O_28
REMARK    4  A    between atoms: C_25  and  C_43
REMARK    5  A    between atoms: C_31  and  C_32
REMARK    6  A    between atoms: C_32  and  C_35
REMARK    7  A    between atoms: C_35  and  O_36
REMARK    8  A    between atoms: C_39  and  C_40
REMARK    9  A    between atoms: C_43  and  C_44
REMARK   10  A    between atoms: C_45  and  C_46
REMARK                            x       y       z     vdW  Elec       q    Type
REMARK                         _______ _______ _______ _____ _____    ______ ____
ROOT
ATOM      1  O   UNL     1     -20.433 -15.184  -2.652  0.00  0.00    +0.000 OA
ATOM      2  O   UNL     1     -18.098 -16.758  -2.045  0.00  0.00    +0.000 OA
ATOM      3  O   UNL     1     -22.216 -16.708  -4.790  0.00  0.00    +0.000 OA
ATOM      4  O   UNL     1     -16.812 -19.560  -4.774  0.00  0.00    +0.000 OA
ATOM      5  O   UNL     1     -14.193 -17.283   0.612  0.00  0.00    +0.000 OA
ATOM      6  C   UNL     1     -18.765 -16.773  -3.299  0.00  0.00    +0.000 C 
ATOM      7  C   UNL     1     -18.577 -15.436  -4.103  0.00  0.00    +0.000 C 
ATOM      8  C   UNL     1     -20.318 -16.533  -3.131  0.00  0.00    +0.000 C 
ATOM      9  C   UNL     1     -19.363 -14.433  -3.252  0.00  0.00    +0.000 C 
ATOM     10  C   UNL     1     -19.050 -15.689  -5.464  0.00  0.00    +0.000 C 
ATOM     11  C   UNL     1     -19.951 -16.804  -5.697  0.00  0.00    +0.000 C 
ATOM     12  C   UNL     1     -18.486 -18.028  -4.144  0.00  0.00    +0.000 C 
ATOM     13  C   UNL     1     -21.016 -16.698  -4.568  0.00  0.00    +0.000 C 
ATOM     14  C   UNL     1     -19.199 -17.991  -5.381  0.00  0.00    +0.000 C 
ATOM     15  C   UNL     1     -19.982 -13.315  -4.102  0.00  0.00    +0.000 C 
ATOM     16  C   UNL     1     -18.458 -13.843  -2.159  0.00  0.00    +0.000 C 
ATOM     17  C   UNL     1     -17.211 -18.723  -3.975  0.00  0.00    +0.000 C 
ATOM     18  C   UNL     1     -16.889 -17.386  -1.910  0.00  0.00    +0.000 A 
ATOM     19  C   UNL     1     -16.402 -18.346  -2.808  0.00  0.00    +0.000 A 
ATOM     20  C   UNL     1     -16.139 -17.050  -0.762  0.00  0.00    +0.000 A 
ATOM     21  C   UNL     1     -15.157 -18.958  -2.591  0.00  0.00    +0.000 A 
ATOM     22  C   UNL     1     -14.900 -17.658  -0.533  0.00  0.00    +0.000 A 
ATOM     23  C   UNL     1     -14.417 -18.612  -1.464  0.00  0.00    +0.000 A 
ATOM     24  C   UNL     1     -13.156 -19.159  -1.118  0.00  0.00    +0.000 C 
ATOM     25  C   UNL     1     -12.909 -17.943   0.952  0.00  0.00    +0.000 C 
ATOM     26  C   UNL     1     -12.563 -18.873  -0.124  0.00  0.00    +0.000 C 
ATOM     27  C   UNL     1     -13.126 -18.670   2.303  0.00  0.00    +0.000 C 
ENDROOT
BRANCH  21  28
ATOM     28  O   UNL     1     -14.631 -19.892  -3.444  0.00  0.00    +0.000 OA
ATOM     29  H   UNL     1     -14.380 -20.699  -2.941  0.00  0.00    +0.000 HD
ENDBRANCH  21  28
BRANCH   8  30
ATOM     30  C   UNL     1     -20.925 -17.450  -2.156  0.00  0.00    +0.000 C 
ATOM     31  C   UNL     1     -21.514 -18.440  -1.139  0.00  0.00    +0.000 C 
BRANCH  31  32
ATOM     32  C   UNL     1     -21.980 -19.319  -0.298  0.00  0.00    +0.000 C 
ATOM     33  C   UNL     1     -21.352 -20.697  -0.404  0.00  0.00    +0.000 C 
BRANCH  32  35
ATOM     34  O   UNL     1     -23.141 -19.370   1.818  0.00  0.00    +0.000 OA
ATOM     35  C   UNL     1     -23.035 -18.939   0.680  0.00  0.00    +0.000 C 
BRANCH  35  36
ATOM     36  O   UNL     1     -23.922 -18.034   0.215  0.00  0.00    +0.000 OA
ATOM     37  H   UNL     1     -24.755 -18.535   0.087  0.00  0.00    +0.000 HD
ENDBRANCH  35  36
ENDBRANCH  32  35
ENDBRANCH  31  32
ENDBRANCH   8  30
BRANCH  20  38
ATOM     38  C   UNL     1     -16.647 -16.083   0.168  0.00  0.00    +0.000 C 
ATOM     39  C   UNL     1     -17.199 -15.029   1.138  0.00  0.00    +0.000 C 
BRANCH  39  40
ATOM     40  C   UNL     1     -17.676 -14.130   1.942  0.00  0.00    +0.000 C 
ATOM     41  C   UNL     1     -18.865 -13.321   1.519  0.00  0.00    +0.000 C 
ATOM     42  C   UNL     1     -17.201 -14.075   3.362  0.00  0.00    +0.000 C 
ENDBRANCH  39  40
ENDBRANCH  20  38
BRANCH  25  43
ATOM     43  C   UNL     1     -11.901 -16.875   1.094  0.00  0.00    +0.000 C 
BRANCH  43  44
ATOM     44  C   UNL     1     -10.854 -15.766   1.249  0.00  0.00    +0.000 C 
ATOM     45  C   UNL     1      -9.804 -14.656   1.407  0.00  0.00    +0.000 C 
BRANCH  45  46
ATOM     46  C   UNL     1      -8.923 -13.716   1.545  0.00  0.00    +0.000 C 
ATOM     47  C   UNL     1      -8.349 -13.055   0.329  0.00  0.00    +0.000 C 
ATOM     48  C   UNL     1      -8.352 -13.417   2.896  0.00  0.00    +0.000 C 
ENDBRANCH  45  46
ENDBRANCH  43  44
ENDBRANCH  25  43
TORSDOF 10
ENDMDL
