MODEL 1
REMARK VINA RESULT:      -6.1      0.000      0.000
REMARK  Name = AFLATOXIN.pdbqt.pdb
REMARK  1 active torsions:
REMARK  status: ('A' for Active; 'I' for Inactive)
REMARK    1  A    between atoms: C_15  and  O_23
REMARK                            x       y       z     vdW  Elec       q    Type
REMARK                         _______ _______ _______ _____ _____    ______ ____
ROOT
ATOM      1  O   UNL     1      -1.131 -20.160 -15.542  0.00  0.00    +0.000 OA
ATOM      2  O   UNL     1       0.561 -19.250 -13.988  0.00  0.00    +0.000 OA
ATOM      3  O   UNL     1      -3.637 -16.206 -15.031  0.00  0.00    +0.000 OA
ATOM      4  O   UNL     1      -8.560 -15.764 -15.692  0.00  0.00    +0.000 OA
ATOM      5  O   UNL     1      -4.649 -14.196 -14.910  0.00  0.00    +0.000 OA
ATOM      6  O   UNL     1      -7.303 -14.019 -15.033  0.00  0.00    +0.000 OA
ATOM      7  C   UNL     1      -1.090 -17.897 -14.958  0.00  0.00    +0.000 C 
ATOM      8  C   UNL     1      -2.442 -18.243 -15.348  0.00  0.00    +0.000 A 
ATOM      9  C   UNL     1      -0.285 -19.135 -15.107  0.00  0.00    +0.000 C 
ATOM     10  C   UNL     1      -2.384 -19.591 -15.713  0.00  0.00    +0.000 A 
ATOM     11  C   UNL     1      -3.640 -17.555 -15.393  0.00  0.00    +0.000 A 
ATOM     12  C   UNL     1      -4.808 -18.191 -15.810  0.00  0.00    +0.000 A 
ATOM     13  C   UNL     1      -0.640 -17.282 -13.761  0.00  0.00    +0.000 C 
ATOM     14  C   UNL     1      -6.042 -17.388 -15.774  0.00  0.00    +0.000 A 
ATOM     15  C   UNL     1      -4.711 -19.553 -16.216  0.00  0.00    +0.000 A 
ATOM     16  C   UNL     1      -3.502 -20.270 -16.140  0.00  0.00    +0.000 A 
ATOM     17  C   UNL     1      -7.306 -17.950 -16.065  0.00  0.00    +0.000 A 
ATOM     18  C   UNL     1      -6.052 -16.064 -15.441  0.00  0.00    +0.000 A 
ATOM     19  C   UNL     1       0.178 -18.094 -13.445  0.00  0.00    +0.000 C 
ATOM     20  C   UNL     1      -8.465 -17.037 -15.995  0.00  0.00    +0.000 A 
ATOM     21  C   UNL     1      -4.764 -15.396 -15.113  0.00  0.00    +0.000 A 
ATOM     22  C   UNL     1      -7.333 -15.196 -15.374  0.00  0.00    +0.000 A 
ENDROOT
BRANCH  15  23
ATOM     23  O   UNL     1      -5.828 -20.251 -16.620  0.00  0.00    +0.000 OA
ATOM     24  C   UNL     1      -5.621 -20.838 -17.879  0.00  0.00    +0.000 C 
ENDBRANCH  15  23
TORSDOF 1
ENDMDL
MODEL 2
REMARK VINA RESULT:      -6.0     17.406     19.366
REMARK  Name = AFLATOXIN.pdbqt.pdb
REMARK  1 active torsions:
REMARK  status: ('A' for Active; 'I' for Inactive)
REMARK    1  A    between atoms: C_15  and  O_23
REMARK                            x       y       z     vdW  Elec       q    Type
REMARK                         _______ _______ _______ _____ _____    ______ ____
ROOT
ATOM      1  O   UNL     1       0.231 -38.595  -9.493  0.00  0.00    +0.000 OA
ATOM      2  O   UNL     1       2.388 -37.743 -10.347  0.00  0.00    +0.000 OA
ATOM      3  O   UNL     1      -1.411 -34.182  -9.414  0.00  0.00    +0.000 OA
ATOM      4  O   UNL     1      -5.077 -32.484  -6.491  0.00  0.00    +0.000 OA
ATOM      5  O   UNL     1      -2.186 -32.078  -9.629  0.00  0.00    +0.000 OA
ATOM      6  O   UNL     1      -3.977 -31.124  -7.905  0.00  0.00    +0.000 OA
ATOM      7  C   UNL     1       0.447 -36.428 -10.341  0.00  0.00    +0.000 C 
ATOM      8  C   UNL     1      -0.667 -36.446  -9.414  0.00  0.00    +0.000 A 
ATOM      9  C   UNL     1       0.982 -37.812 -10.375  0.00  0.00    +0.000 C 
ATOM     10  C   UNL     1      -0.756 -37.771  -8.975  0.00  0.00    +0.000 A 
ATOM     11  C   UNL     1      -1.536 -35.487  -8.931  0.00  0.00    +0.000 A 
ATOM     12  C   UNL     1      -2.521 -35.825  -8.003  0.00  0.00    +0.000 A 
ATOM     13  C   UNL     1       1.579 -35.572 -10.354  0.00  0.00    +0.000 C 
ATOM     14  C   UNL     1      -3.365 -34.723  -7.510  0.00  0.00    +0.000 A 
ATOM     15  C   UNL     1      -2.615 -37.189  -7.607  0.00  0.00    +0.000 A 
ATOM     16  C   UNL     1      -1.712 -38.166  -8.068  0.00  0.00    +0.000 A 
ATOM     17  C   UNL     1      -4.321 -34.917  -6.488  0.00  0.00    +0.000 A 
ATOM     18  C   UNL     1      -3.266 -33.447  -7.987  0.00  0.00    +0.000 A 
ATOM     19  C   UNL     1       2.430 -36.411 -10.372  0.00  0.00    +0.000 C 
ATOM     20  C   UNL     1      -5.104 -33.731  -6.085  0.00  0.00    +0.000 A 
ATOM     21  C   UNL     1      -2.278 -33.156  -9.059  0.00  0.00    +0.000 A 
ATOM     22  C   UNL     1      -4.123 -32.263  -7.477  0.00  0.00    +0.000 A 
ENDROOT
BRANCH  15  23
ATOM     23  O   UNL     1      -3.551 -37.592  -6.678  0.00  0.00    +0.000 OA
ATOM     24  C   UNL     1      -2.941 -38.313  -5.637  0.00  0.00    +0.000 C 
ENDBRANCH  15  23
TORSDOF 1
ENDMDL
MODEL 3
REMARK VINA RESULT:      -5.8     18.189     19.914
REMARK  Name = AFLATOXIN.pdbqt.pdb
REMARK  1 active torsions:
REMARK  status: ('A' for Active; 'I' for Inactive)
REMARK    1  A    between atoms: C_15  and  O_23
REMARK                            x       y       z     vdW  Elec       q    Type
REMARK                         _______ _______ _______ _____ _____    ______ ____
ROOT
ATOM      1  O   UNL     1      -2.597 -34.978  -8.415  0.00  0.00    +0.000 OA
ATOM      2  O   UNL     1      -2.186 -32.745  -9.389  0.00  0.00    +0.000 OA
ATOM      3  O   UNL     1      -5.718 -33.048  -5.464  0.00  0.00    +0.000 OA
ATOM      4  O   UNL     1      -7.047 -34.874  -1.017  0.00  0.00    +0.000 OA
ATOM      5  O   UNL     1      -7.356 -32.082  -4.255  0.00  0.00    +0.000 OA
ATOM      6  O   UNL     1      -7.884 -32.934  -1.788  0.00  0.00    +0.000 OA
ATOM      7  C   UNL     1      -4.033 -33.179  -8.013  0.00  0.00    +0.000 C 
ATOM      8  C   UNL     1      -4.154 -34.113  -6.912  0.00  0.00    +0.000 A 
ATOM      9  C   UNL     1      -3.048 -33.769  -8.953  0.00  0.00    +0.000 C 
ATOM     10  C   UNL     1      -3.298 -35.171  -7.235  0.00  0.00    +0.000 A 
ATOM     11  C   UNL     1      -4.868 -34.124  -5.728  0.00  0.00    +0.000 A 
ATOM     12  C   UNL     1      -4.751 -35.192  -4.840  0.00  0.00    +0.000 A 
ATOM     13  C   UNL     1      -3.749 -31.789  -7.972  0.00  0.00    +0.000 C 
ATOM     14  C   UNL     1      -5.513 -35.087  -3.583  0.00  0.00    +0.000 A 
ATOM     15  C   UNL     1      -3.906 -36.275  -5.214  0.00  0.00    +0.000 A 
ATOM     16  C   UNL     1      -3.149 -36.256  -6.402  0.00  0.00    +0.000 A 
ATOM     17  C   UNL     1      -5.391 -36.050  -2.556  0.00  0.00    +0.000 A 
ATOM     18  C   UNL     1      -6.362 -34.051  -3.319  0.00  0.00    +0.000 A 
ATOM     19  C   UNL     1      -2.821 -31.779  -8.725  0.00  0.00    +0.000 C 
ATOM     20  C   UNL     1      -6.210 -35.829  -1.347  0.00  0.00    +0.000 A 
ATOM     21  C   UNL     1      -6.541 -32.989  -4.346  0.00  0.00    +0.000 A 
ATOM     22  C   UNL     1      -7.161 -33.900  -2.001  0.00  0.00    +0.000 A 
ENDROOT
BRANCH  15  23
ATOM     23  O   UNL     1      -3.727 -37.355  -4.377  0.00  0.00    +0.000 OA
ATOM     24  C   UNL     1      -2.360 -37.588  -4.149  0.00  0.00    +0.000 C 
ENDBRANCH  15  23
TORSDOF 1
ENDMDL
MODEL 4
REMARK VINA RESULT:      -5.7      2.379      5.074
REMARK  Name = AFLATOXIN.pdbqt.pdb
REMARK  1 active torsions:
REMARK  status: ('A' for Active; 'I' for Inactive)
REMARK    1  A    between atoms: C_15  and  O_23
REMARK                            x       y       z     vdW  Elec       q    Type
REMARK                         _______ _______ _______ _____ _____    ______ ____
ROOT
ATOM      1  O   UNL     1      -3.801 -17.675 -15.271  0.00  0.00    +0.000 OA
ATOM      2  O   UNL     1      -3.549 -19.796 -16.514  0.00  0.00    +0.000 OA
ATOM      3  O   UNL     1      -8.423 -17.770 -16.169  0.00  0.00    +0.000 OA
ATOM      4  O   UNL     1     -11.445 -13.806 -16.339  0.00  0.00    +0.000 OA
ATOM      5  O   UNL     1     -10.645 -18.016 -16.445  0.00  0.00    +0.000 OA
ATOM      6  O   UNL     1     -12.203 -15.880 -16.767  0.00  0.00    +0.000 OA
ATOM      7  C   UNL     1      -5.644 -19.001 -15.826  0.00  0.00    +0.000 C 
ATOM      8  C   UNL     1      -6.097 -17.633 -15.670  0.00  0.00    +0.000 A 
ATOM      9  C   UNL     1      -4.186 -18.990 -15.552  0.00  0.00    +0.000 C 
ATOM     10  C   UNL     1      -4.956 -16.910 -15.309  0.00  0.00    +0.000 A 
ATOM     11  C   UNL     1      -7.314 -16.995 -15.821  0.00  0.00    +0.000 A 
ATOM     12  C   UNL     1      -7.425 -15.622 -15.610  0.00  0.00    +0.000 A 
ATOM     13  C   UNL     1      -5.827 -19.877 -16.927  0.00  0.00    +0.000 C 
ATOM     14  C   UNL     1      -8.752 -15.027 -15.847  0.00  0.00    +0.000 A 
ATOM     15  C   UNL     1      -6.257 -14.918 -15.202  0.00  0.00    +0.000 A 
ATOM     16  C   UNL     1      -5.007 -15.553 -15.079  0.00  0.00    +0.000 A 
ATOM     17  C   UNL     1      -8.966 -13.632 -15.775  0.00  0.00    +0.000 A 
ATOM     18  C   UNL     1      -9.849 -15.773 -16.169  0.00  0.00    +0.000 A 
ATOM     19  C   UNL     1      -4.683 -20.172 -17.106  0.00  0.00    +0.000 C 
ATOM     20  C   UNL     1     -10.343 -13.163 -16.032  0.00  0.00    +0.000 A 
ATOM     21  C   UNL     1      -9.708 -17.250 -16.272  0.00  0.00    +0.000 A 
ATOM     22  C   UNL     1     -11.252 -15.178 -16.443  0.00  0.00    +0.000 A 
ENDROOT
BRANCH  15  23
ATOM     23  O   UNL     1      -6.288 -13.556 -14.996  0.00  0.00    +0.000 OA
ATOM     24  C   UNL     1      -5.173 -12.936 -15.585  0.00  0.00    +0.000 C 
ENDBRANCH  15  23
TORSDOF 1
ENDMDL
MODEL 5
REMARK VINA RESULT:      -5.5     19.213     20.668
REMARK  Name = AFLATOXIN.pdbqt.pdb
REMARK  1 active torsions:
REMARK  status: ('A' for Active; 'I' for Inactive)
REMARK    1  A    between atoms: C_15  and  O_23
REMARK                            x       y       z     vdW  Elec       q    Type
REMARK                         _______ _______ _______ _____ _____    ______ ____
ROOT
ATOM      1  O   UNL     1      -3.533 -35.904  -5.969  0.00  0.00    +0.000 OA
ATOM      2  O   UNL     1      -2.791 -34.165  -7.560  0.00  0.00    +0.000 OA
ATOM      3  O   UNL     1      -6.734 -32.896  -4.271  0.00  0.00    +0.000 OA
ATOM      4  O   UNL     1      -8.712 -33.014   0.305  0.00  0.00    +0.000 OA
ATOM      5  O   UNL     1      -8.382 -31.478  -3.682  0.00  0.00    +0.000 OA
ATOM      6  O   UNL     1      -9.257 -31.404  -1.168  0.00  0.00    +0.000 OA
ATOM      7  C   UNL     1      -4.810 -33.990  -6.382  0.00  0.00    +0.000 C 
ATOM      8  C   UNL     1      -5.143 -34.484  -5.061  0.00  0.00    +0.000 A 
ATOM      9  C   UNL     1      -3.796 -34.924  -6.931  0.00  0.00    +0.000 C 
ATOM     10  C   UNL     1      -4.372 -35.640  -4.898  0.00  0.00    +0.000 A 
ATOM     11  C   UNL     1      -5.977 -34.048  -4.048  0.00  0.00    +0.000 A 
ATOM     12  C   UNL     1      -6.067 -34.755  -2.850  0.00  0.00    +0.000 A 
ATOM     13  C   UNL     1      -4.389 -32.690  -6.764  0.00  0.00    +0.000 C 
ATOM     14  C   UNL     1      -6.943 -34.181  -1.814  0.00  0.00    +0.000 A 
ATOM     15  C   UNL     1      -5.303 -35.951  -2.728  0.00  0.00    +0.000 A 
ATOM     16  C   UNL     1      -4.426 -36.384  -3.741  0.00  0.00    +0.000 A 
ATOM     17  C   UNL     1      -7.033 -34.743  -0.520  0.00  0.00    +0.000 A 
ATOM     18  C   UNL     1      -7.704 -33.067  -2.024  0.00  0.00    +0.000 A 
ATOM     19  C   UNL     1      -3.389 -32.994  -7.344  0.00  0.00    +0.000 C 
ATOM     20  C   UNL     1      -7.948 -34.074   0.426  0.00  0.00    +0.000 A 
ATOM     21  C   UNL     1      -7.661 -32.410  -3.358  0.00  0.00    +0.000 A 
ATOM     22  C   UNL     1      -8.619 -32.428  -0.951  0.00  0.00    +0.000 A 
ENDROOT
BRANCH  15  23
ATOM     23  O   UNL     1      -5.328 -36.690  -1.565  0.00  0.00    +0.000 OA
ATOM     24  C   UNL     1      -4.062 -37.236  -1.295  0.00  0.00    +0.000 C 
ENDBRANCH  15  23
TORSDOF 1
ENDMDL
MODEL 6
REMARK VINA RESULT:      -5.5      2.789      6.460
REMARK  Name = AFLATOXIN.pdbqt.pdb
REMARK  1 active torsions:
REMARK  status: ('A' for Active; 'I' for Inactive)
REMARK    1  A    between atoms: C_15  and  O_23
REMARK                            x       y       z     vdW  Elec       q    Type
REMARK                         _______ _______ _______ _____ _____    ______ ____
ROOT
ATOM      1  O   UNL     1      -7.004 -10.849 -13.992  0.00  0.00    +0.000 OA
ATOM      2  O   UNL     1      -5.017  -9.447 -13.556  0.00  0.00    +0.000 OA
ATOM      3  O   UNL     1      -4.239 -14.660 -13.993  0.00  0.00    +0.000 OA
ATOM      4  O   UNL     1      -5.199 -18.962 -16.325  0.00  0.00    +0.000 OA
ATOM      5  O   UNL     1      -2.883 -16.442 -13.746  0.00  0.00    +0.000 OA
ATOM      6  O   UNL     1      -3.288 -18.647 -15.183  0.00  0.00    +0.000 OA
ATOM      7  C   UNL     1      -4.976 -11.776 -13.292  0.00  0.00    +0.000 C 
ATOM      8  C   UNL     1      -5.716 -12.790 -14.015  0.00  0.00    +0.000 A 
ATOM      9  C   UNL     1      -5.831 -10.563 -13.287  0.00  0.00    +0.000 C 
ATOM     10  C   UNL     1      -6.923 -12.179 -14.371  0.00  0.00    +0.000 A 
ATOM     11  C   UNL     1      -5.454 -14.096 -14.387  0.00  0.00    +0.000 A 
ATOM     12  C   UNL     1      -6.390 -14.826 -15.118  0.00  0.00    +0.000 A 
ATOM     13  C   UNL     1      -3.651 -11.317 -13.511  0.00  0.00    +0.000 C 
ATOM     14  C   UNL     1      -5.997 -16.191 -15.510  0.00  0.00    +0.000 A 
ATOM     15  C   UNL     1      -7.627 -14.193 -15.429  0.00  0.00    +0.000 A 
ATOM     16  C   UNL     1      -7.888 -12.853 -15.084  0.00  0.00    +0.000 A 
ATOM     17  C   UNL     1      -6.811 -16.989 -16.345  0.00  0.00    +0.000 A 
ATOM     18  C   UNL     1      -4.822 -16.763 -15.116  0.00  0.00    +0.000 A 
ATOM     19  C   UNL     1      -3.884 -10.148 -13.600  0.00  0.00    +0.000 C 
ATOM     20  C   UNL     1      -6.303 -18.339 -16.663  0.00  0.00    +0.000 A 
ATOM     21  C   UNL     1      -3.903 -15.985 -14.242  0.00  0.00    +0.000 A 
ATOM     22  C   UNL     1      -4.369 -18.185 -15.527  0.00  0.00    +0.000 A 
ENDROOT
BRANCH  15  23
ATOM     23  O   UNL     1      -8.591 -14.847 -16.166  0.00  0.00    +0.000 OA
ATOM     24  C   UNL     1      -9.809 -14.890 -15.467  0.00  0.00    +0.000 C 
ENDBRANCH  15  23
TORSDOF 1
ENDMDL
MODEL 7
REMARK VINA RESULT:      -5.4     17.312     19.629
REMARK  Name = AFLATOXIN.pdbqt.pdb
REMARK  1 active torsions:
REMARK  status: ('A' for Active; 'I' for Inactive)
REMARK    1  A    between atoms: C_15  and  O_23
REMARK                            x       y       z     vdW  Elec       q    Type
REMARK                         _______ _______ _______ _____ _____    ______ ____
ROOT
ATOM      1  O   UNL     1      -4.799 -36.130  -4.233  0.00  0.00    +0.000 OA
ATOM      2  O   UNL     1      -6.656 -34.564  -3.783  0.00  0.00    +0.000 OA
ATOM      3  O   UNL     1      -3.240 -33.220  -7.591  0.00  0.00    +0.000 OA
ATOM      4  O   UNL     1      -0.473 -34.523 -11.529  0.00  0.00    +0.000 OA
ATOM      5  O   UNL     1      -2.438 -31.665  -9.011  0.00  0.00    +0.000 OA
ATOM      6  O   UNL     1      -1.164 -32.404 -11.230  0.00  0.00    +0.000 OA
ATOM      7  C   UNL     1      -4.787 -33.942  -5.053  0.00  0.00    +0.000 C 
ATOM      8  C   UNL     1      -3.956 -34.756  -5.916  0.00  0.00    +0.000 A 
ATOM      9  C   UNL     1      -5.293 -34.845  -3.990  0.00  0.00    +0.000 C 
ATOM     10  C   UNL     1      -3.984 -36.035  -5.350  0.00  0.00    +0.000 A 
ATOM     11  C   UNL     1      -3.245 -34.519  -7.077  0.00  0.00    +0.000 A 
ATOM     12  C   UNL     1      -2.539 -35.547  -7.699  0.00  0.00    +0.000 A 
ATOM     13  C   UNL     1      -5.876 -33.102  -5.402  0.00  0.00    +0.000 C 
ATOM     14  C   UNL     1      -1.855 -35.205  -8.959  0.00  0.00    +0.000 A 
ATOM     15  C   UNL     1      -2.550 -36.828  -7.078  0.00  0.00    +0.000 A 
ATOM     16  C   UNL     1      -3.299 -37.087  -5.914  0.00  0.00    +0.000 A 
ATOM     17  C   UNL     1      -1.201 -36.185  -9.740  0.00  0.00    +0.000 A 
ATOM     18  C   UNL     1      -1.826 -33.937  -9.463  0.00  0.00    +0.000 A 
ATOM     19  C   UNL     1      -6.693 -33.558  -4.658  0.00  0.00    +0.000 C 
ATOM     20  C   UNL     1      -0.553 -35.712 -10.980  0.00  0.00    +0.000 A 
ATOM     21  C   UNL     1      -2.499 -32.848  -8.705  0.00  0.00    +0.000 A 
ATOM     22  C   UNL     1      -1.135 -33.548 -10.793  0.00  0.00    +0.000 A 
ENDROOT
BRANCH  15  23
ATOM     23  O   UNL     1      -1.891 -37.896  -7.647  0.00  0.00    +0.000 OA
ATOM     24  C   UNL     1      -1.544 -38.845  -6.671  0.00  0.00    +0.000 C 
ENDBRANCH  15  23
TORSDOF 1
ENDMDL
MODEL 8
REMARK VINA RESULT:      -5.3     24.812     27.834
REMARK  Name = AFLATOXIN.pdbqt.pdb
REMARK  1 active torsions:
REMARK  status: ('A' for Active; 'I' for Inactive)
REMARK    1  A    between atoms: C_15  and  O_23
REMARK                            x       y       z     vdW  Elec       q    Type
REMARK                         _______ _______ _______ _____ _____    ______ ____
ROOT
ATOM      1  O   UNL     1       4.314 -34.538   8.993  0.00  0.00    +0.000 OA
ATOM      2  O   UNL     1       3.944 -36.967   9.257  0.00  0.00    +0.000 OA
ATOM      3  O   UNL     1       2.874 -34.867   4.522  0.00  0.00    +0.000 OA
ATOM      4  O   UNL     1       4.127 -31.774   0.816  0.00  0.00    +0.000 OA
ATOM      5  O   UNL     1       1.955 -35.076   2.475  0.00  0.00    +0.000 OA
ATOM      6  O   UNL     1       2.813 -33.564   0.458  0.00  0.00    +0.000 OA
ATOM      7  C   UNL     1       3.079 -35.769   7.437  0.00  0.00    +0.000 C 
ATOM      8  C   UNL     1       3.621 -34.604   6.769  0.00  0.00    +0.000 A 
ATOM      9  C   UNL     1       3.528 -35.686   8.849  0.00  0.00    +0.000 C 
ATOM     10  C   UNL     1       4.315 -33.903   7.761  0.00  0.00    +0.000 A 
ATOM     11  C   UNL     1       3.593 -34.135   5.469  0.00  0.00    +0.000 A 
ATOM     12  C   UNL     1       4.249 -32.953   5.127  0.00  0.00    +0.000 A 
ATOM     13  C   UNL     1       3.193 -37.136   7.072  0.00  0.00    +0.000 C 
ATOM     14  C   UNL     1       4.203 -32.565   3.706  0.00  0.00    +0.000 A 
ATOM     15  C   UNL     1       4.910 -32.239   6.165  0.00  0.00    +0.000 A 
ATOM     16  C   UNL     1       4.973 -32.727   7.485  0.00  0.00    +0.000 A 
ATOM     17  C   UNL     1       4.921 -31.450   3.215  0.00  0.00    +0.000 A 
ATOM     18  C   UNL     1       3.489 -33.260   2.773  0.00  0.00    +0.000 A 
ATOM     19  C   UNL     1       3.620 -37.557   8.106  0.00  0.00    +0.000 C 
ATOM     20  C   UNL     1       4.790 -31.167   1.772  0.00  0.00    +0.000 A 
ATOM     21  C   UNL     1       2.711 -34.452   3.206  0.00  0.00    +0.000 A 
ATOM     22  C   UNL     1       3.436 -32.891   1.270  0.00  0.00    +0.000 A 
ENDROOT
BRANCH  15  23
ATOM     23  O   UNL     1       5.596 -31.074   5.897  0.00  0.00    +0.000 OA
ATOM     24  C   UNL     1       5.829 -30.349   7.078  0.00  0.00    +0.000 C 
ENDBRANCH  15  23
TORSDOF 1
ENDMDL
MODEL 9
REMARK VINA RESULT:      -5.2     13.346     15.298
REMARK  Name = AFLATOXIN.pdbqt.pdb
REMARK  1 active torsions:
REMARK  status: ('A' for Active; 'I' for Inactive)
REMARK    1  A    between atoms: C_15  and  O_23
REMARK                            x       y       z     vdW  Elec       q    Type
REMARK                         _______ _______ _______ _____ _____    ______ ____
ROOT
ATOM      1  O   UNL     1       0.750 -20.757   1.449  0.00  0.00    +0.000 OA
ATOM      2  O   UNL     1       3.165 -20.300   1.699  0.00  0.00    +0.000 OA
ATOM      3  O   UNL     1       0.502 -17.349  -1.790  0.00  0.00    +0.000 OA
ATOM      4  O   UNL     1      -3.578 -14.737  -2.973  0.00  0.00    +0.000 OA
ATOM      5  O   UNL     1       0.523 -15.868  -3.488  0.00  0.00    +0.000 OA
ATOM      6  O   UNL     1      -1.594 -14.321  -3.948  0.00  0.00    +0.000 OA
ATOM      7  C   UNL     1       1.925 -19.471  -0.109  0.00  0.00    +0.000 C 
ATOM      8  C   UNL     1       0.529 -19.086  -0.160  0.00  0.00    +0.000 A 
ATOM      9  C   UNL     1       2.023 -20.542   0.913  0.00  0.00    +0.000 C 
ATOM     10  C   UNL     1      -0.113 -19.914   0.768  0.00  0.00    +0.000 A 
ATOM     11  C   UNL     1      -0.187 -18.138  -0.867  0.00  0.00    +0.000 A 
ATOM     12  C   UNL     1      -1.560 -17.996  -0.673  0.00  0.00    +0.000 A 
ATOM     13  C   UNL     1       3.067 -18.649   0.077  0.00  0.00    +0.000 C 
ATOM     14  C   UNL     1      -2.224 -16.924  -1.436  0.00  0.00    +0.000 A 
ATOM     15  C   UNL     1      -2.194 -18.880   0.246  0.00  0.00    +0.000 A 
ATOM     16  C   UNL     1      -1.467 -19.825   0.996  0.00  0.00    +0.000 A 
ATOM     17  C   UNL     1      -3.588 -16.608  -1.243  0.00  0.00    +0.000 A 
ATOM     18  C   UNL     1      -1.567 -16.157  -2.355  0.00  0.00    +0.000 A 
ATOM     19  C   UNL     1       3.552 -19.232   1.000  0.00  0.00    +0.000 C 
ATOM     20  C   UNL     1      -4.132 -15.513  -2.071  0.00  0.00    +0.000 A 
ATOM     21  C   UNL     1      -0.126 -16.421  -2.612  0.00  0.00    +0.000 A 
ATOM     22  C   UNL     1      -2.229 -15.011  -3.158  0.00  0.00    +0.000 A 
ENDROOT
BRANCH  15  23
ATOM     23  O   UNL     1      -3.544 -18.784   0.503  0.00  0.00    +0.000 OA
ATOM     24  C   UNL     1      -3.952 -19.780   1.406  0.00  0.00    +0.000 C 
ENDBRANCH  15  23
TORSDOF 1
ENDMDL
