MODEL 1
REMARK VINA RESULT:      -6.1      0.000      0.000
REMARK  Name = AZD4547.pdbqt.pdb
REMARK  6 active torsions:
REMARK  status: ('A' for Active; 'I' for Inactive)
REMARK    1  A    between atoms: C_3  and  C_23
REMARK    2  A    between atoms: C_8  and  C_11
REMARK    3  A    between atoms: C_12  and  C_13
REMARK    4  A    between atoms: C_15  and  O_19
REMARK    5  A    between atoms: C_17  and  O_21
REMARK    6  A    between atoms: C_26  and  N_29
REMARK                            x       y       z     vdW  Elec       q    Type
REMARK                         _______ _______ _______ _____ _____    ______ ____
ROOT
ATOM      1  O   UNL     1      -3.150 -31.499  -8.095  0.00  0.00    +0.000 OA
ATOM      2  N   UNL     1      -2.480 -33.662  -8.578  0.00  0.00    +0.000 N 
ATOM      3  C   UNL     1      -3.165 -32.704  -7.867  0.00  0.00    +0.000 C 
ATOM      4  H   UNL     1      -2.520 -34.644  -8.351  0.00  0.00    +0.000 HD
ATOM      5  C   UNL     1      -1.677 -33.398  -9.662  0.00  0.00    +0.000 A 
ATOM      6  N   UNL     1      -1.060 -34.417 -10.270  0.00  0.00    +0.000 NA
ATOM      7  N   UNL     1      -0.373 -33.825 -11.265  0.00  0.00    +0.000 N 
ATOM      8  C   UNL     1      -0.532 -32.473 -11.312  0.00  0.00    +0.000 A 
ATOM      9  H   UNL     1       0.187 -34.406 -11.880  0.00  0.00    +0.000 HD
ATOM     10  C   UNL     1      -1.377 -32.158 -10.277  0.00  0.00    +0.000 A 
ENDROOT
BRANCH   3  11
ATOM     11  C   UNL     1      -3.982 -33.199  -6.730  0.00  0.00    +0.000 A 
ATOM     12  C   UNL     1      -5.371 -33.128  -6.827  0.00  0.00    +0.000 A 
ATOM     13  C   UNL     1      -6.169 -33.584  -5.780  0.00  0.00    +0.000 A 
ATOM     14  C   UNL     1      -5.602 -34.105  -4.610  0.00  0.00    +0.000 A 
ATOM     15  C   UNL     1      -4.204 -34.186  -4.538  0.00  0.00    +0.000 A 
ATOM     16  C   UNL     1      -3.400 -33.732  -5.582  0.00  0.00    +0.000 A 
BRANCH  14  17
ATOM     17  N   UNL     1      -6.414 -34.608  -3.566  0.00  0.00    +0.000 N 
ATOM     18  C   UNL     1      -7.833 -34.881  -3.852  0.00  0.00    +0.000 C 
ATOM     19  C   UNL     1      -9.078 -34.528  -3.252  0.00  0.00    +0.000 C 
ATOM     20  N   UNL     1      -9.013 -33.710  -2.082  0.00  0.00    +0.000 N 
ATOM     21  C   UNL     1     -10.389 -34.947  -3.812  0.00  0.00    +0.000 C 
ATOM     22  C   UNL     1      -7.724 -33.315  -1.615  0.00  0.00    +0.000 C 
ATOM     23  H   UNL     1      -9.854 -33.402  -1.618  0.00  0.00    +0.000 HD
ATOM     24  C   UNL     1      -6.603 -33.778  -2.364  0.00  0.00    +0.000 C 
ATOM     25  C   UNL     1      -7.585 -32.427  -0.430  0.00  0.00    +0.000 C 
ENDBRANCH  14  17
ENDBRANCH   3  11
BRANCH   8  26
ATOM     26  C   UNL     1       0.074 -31.610 -12.256  0.00  0.00    +0.000 C 
ATOM     27  C   UNL     1       0.732 -30.674 -13.276  0.00  0.00    +0.000 C 
BRANCH  27  28
ATOM     28  C   UNL     1       1.350 -29.802 -14.218  0.00  0.00    +0.000 A 
ATOM     29  C   UNL     1       1.899 -28.596 -13.790  0.00  0.00    +0.000 A 
ATOM     30  C   UNL     1       2.511 -27.739 -14.708  0.00  0.00    +0.000 A 
ATOM     31  C   UNL     1       2.569 -28.107 -16.054  0.00  0.00    +0.000 A 
ATOM     32  C   UNL     1       2.015 -29.312 -16.488  0.00  0.00    +0.000 A 
ATOM     33  C   UNL     1       1.407 -30.160 -15.561  0.00  0.00    +0.000 A 
BRANCH  30  34
ATOM     34  O   UNL     1       3.089 -26.534 -14.395  0.00  0.00    +0.000 OA
ATOM     35  C   UNL     1       4.357 -26.610 -13.807  0.00  0.00    +0.000 C 
ENDBRANCH  30  34
BRANCH  32  36
ATOM     36  O   UNL     1       2.132 -29.569 -17.832  0.00  0.00    +0.000 OA
ATOM     37  C   UNL     1       1.973 -28.459 -18.673  0.00  0.00    +0.000 C 
ENDBRANCH  32  36
ENDBRANCH  27  28
ENDBRANCH   8  26
TORSDOF 6
ENDMDL
MODEL 2
REMARK VINA RESULT:      -5.9      0.785      2.035
REMARK  Name = AZD4547.pdbqt.pdb
REMARK  6 active torsions:
REMARK  status: ('A' for Active; 'I' for Inactive)
REMARK    1  A    between atoms: C_3  and  C_23
REMARK    2  A    between atoms: C_8  and  C_11
REMARK    3  A    between atoms: C_12  and  C_13
REMARK    4  A    between atoms: C_15  and  O_19
REMARK    5  A    between atoms: C_17  and  O_21
REMARK    6  A    between atoms: C_26  and  N_29
REMARK                            x       y       z     vdW  Elec       q    Type
REMARK                         _______ _______ _______ _____ _____    ______ ____
ROOT
ATOM      1  O   UNL     1      -3.159 -31.381  -8.245  0.00  0.00    +0.000 OA
ATOM      2  N   UNL     1      -2.552 -33.547  -8.793  0.00  0.00    +0.000 N 
ATOM      3  C   UNL     1      -3.233 -32.592  -8.072  0.00  0.00    +0.000 C 
ATOM      4  H   UNL     1      -2.643 -34.535  -8.611  0.00  0.00    +0.000 HD
ATOM      5  C   UNL     1      -1.689 -33.271  -9.826  0.00  0.00    +0.000 A 
ATOM      6  N   UNL     1      -1.085 -34.288 -10.451  0.00  0.00    +0.000 NA
ATOM      7  N   UNL     1      -0.329 -33.684 -11.386  0.00  0.00    +0.000 N 
ATOM      8  C   UNL     1      -0.431 -32.325 -11.379  0.00  0.00    +0.000 A 
ATOM      9  H   UNL     1       0.236 -34.261 -12.000  0.00  0.00    +0.000 HD
ATOM     10  C   UNL     1      -1.311 -32.019 -10.371  0.00  0.00    +0.000 A 
ENDROOT
BRANCH   3  11
ATOM     11  C   UNL     1      -4.121 -33.101  -6.997  0.00  0.00    +0.000 A 
ATOM     12  C   UNL     1      -5.478 -33.261  -7.275  0.00  0.00    +0.000 A 
ATOM     13  C   UNL     1      -6.341 -33.737  -6.290  0.00  0.00    +0.000 A 
ATOM     14  C   UNL     1      -5.876 -34.048  -5.006  0.00  0.00    +0.000 A 
ATOM     15  C   UNL     1      -4.506 -33.898  -4.750  0.00  0.00    +0.000 A 
ATOM     16  C   UNL     1      -3.636 -33.423  -5.731  0.00  0.00    +0.000 A 
BRANCH  14  17
ATOM     17  N   UNL     1      -6.747 -34.572  -4.022  0.00  0.00    +0.000 N 
ATOM     18  C   UNL     1      -7.924 -35.339  -4.464  0.00  0.00    +0.000 C 
ATOM     19  C   UNL     1      -9.324 -35.298  -4.196  0.00  0.00    +0.000 C 
ATOM     20  N   UNL     1      -9.771 -34.291  -3.287  0.00  0.00    +0.000 N 
ATOM     21  C   UNL     1     -10.295 -36.220  -4.843  0.00  0.00    +0.000 C 
ATOM     22  C   UNL     1      -8.793 -33.417  -2.726  0.00  0.00    +0.000 C 
ATOM     23  H   UNL     1     -10.750 -34.188  -3.068  0.00  0.00    +0.000 HD
ATOM     24  C   UNL     1      -7.441 -33.630  -3.127  0.00  0.00    +0.000 C 
ATOM     25  C   UNL     1      -9.193 -32.319  -1.807  0.00  0.00    +0.000 C 
ENDBRANCH  14  17
ENDBRANCH   3  11
BRANCH   8  26
ATOM     26  C   UNL     1       0.252 -31.449 -12.256  0.00  0.00    +0.000 C 
ATOM     27  C   UNL     1       0.992 -30.497 -13.202  0.00  0.00    +0.000 C 
BRANCH  27  28
ATOM     28  C   UNL     1       1.679 -29.605 -14.075  0.00  0.00    +0.000 A 
ATOM     29  C   UNL     1       1.736 -29.876 -15.439  0.00  0.00    +0.000 A 
ATOM     30  C   UNL     1       2.404 -29.003 -16.301  0.00  0.00    +0.000 A 
ATOM     31  C   UNL     1       3.009 -27.856 -15.780  0.00  0.00    +0.000 A 
ATOM     32  C   UNL     1       2.959 -27.584 -14.412  0.00  0.00    +0.000 A 
ATOM     33  C   UNL     1       2.288 -28.465 -13.561  0.00  0.00    +0.000 A 
BRANCH  30  34
ATOM     34  O   UNL     1       2.514 -29.168 -17.659  0.00  0.00    +0.000 OA
ATOM     35  C   UNL     1       2.997 -28.058 -18.362  0.00  0.00    +0.000 C 
ENDBRANCH  30  34
BRANCH  32  36
ATOM     36  O   UNL     1       3.588 -26.430 -14.013  0.00  0.00    +0.000 OA
ATOM     37  C   UNL     1       4.785 -26.136 -14.680  0.00  0.00    +0.000 C 
ENDBRANCH  32  36
ENDBRANCH  27  28
ENDBRANCH   8  26
TORSDOF 6
ENDMDL
MODEL 3
REMARK VINA RESULT:      -5.9     19.890     22.511
REMARK  Name = AZD4547.pdbqt.pdb
REMARK  6 active torsions:
REMARK  status: ('A' for Active; 'I' for Inactive)
REMARK    1  A    between atoms: C_3  and  C_23
REMARK    2  A    between atoms: C_8  and  C_11
REMARK    3  A    between atoms: C_12  and  C_13
REMARK    4  A    between atoms: C_15  and  O_19
REMARK    5  A    between atoms: C_17  and  O_21
REMARK    6  A    between atoms: C_26  and  N_29
REMARK                            x       y       z     vdW  Elec       q    Type
REMARK                         _______ _______ _______ _____ _____    ______ ____
ROOT
ATOM      1  O   UNL     1      -4.241 -10.490 -10.764  0.00  0.00    +0.000 OA
ATOM      2  N   UNL     1      -5.995 -10.100 -12.224  0.00  0.00    +0.000 N 
ATOM      3  C   UNL     1      -5.189  -9.812 -11.146  0.00  0.00    +0.000 C 
ATOM      4  H   UNL     1      -6.768  -9.512 -12.500  0.00  0.00    +0.000 HD
ATOM      5  C   UNL     1      -5.844 -11.198 -13.036  0.00  0.00    +0.000 A 
ATOM      6  N   UNL     1      -6.695 -11.370 -14.053  0.00  0.00    +0.000 NA
ATOM      7  N   UNL     1      -6.276 -12.511 -14.630  0.00  0.00    +0.000 N 
ATOM      8  C   UNL     1      -5.193 -13.069 -14.019  0.00  0.00    +0.000 A 
ATOM      9  H   UNL     1      -6.776 -12.856 -15.443  0.00  0.00    +0.000 HD
ATOM     10  C   UNL     1      -4.884 -12.238 -12.971  0.00  0.00    +0.000 A 
ENDROOT
BRANCH   3  11
ATOM     11  C   UNL     1      -5.520  -8.572 -10.401  0.00  0.00    +0.000 A 
ATOM     12  C   UNL     1      -5.170  -8.491  -9.054  0.00  0.00    +0.000 A 
ATOM     13  C   UNL     1      -5.465  -7.343  -8.322  0.00  0.00    +0.000 A 
ATOM     14  C   UNL     1      -6.127  -6.258  -8.911  0.00  0.00    +0.000 A 
ATOM     15  C   UNL     1      -6.455  -6.350 -10.271  0.00  0.00    +0.000 A 
ATOM     16  C   UNL     1      -6.162  -7.496 -11.009  0.00  0.00    +0.000 A 
BRANCH  14  17
ATOM     17  N   UNL     1      -6.386  -5.076  -8.179  0.00  0.00    +0.000 N 
ATOM     18  C   UNL     1      -5.408  -4.653  -7.162  0.00  0.00    +0.000 C 
ATOM     19  C   UNL     1      -5.466  -4.283  -5.786  0.00  0.00    +0.000 C 
ATOM     20  N   UNL     1      -6.756  -4.305  -5.173  0.00  0.00    +0.000 N 
ATOM     21  C   UNL     1      -4.258  -3.922  -4.998  0.00  0.00    +0.000 C 
ATOM     22  C   UNL     1      -7.870  -4.693  -5.976  0.00  0.00    +0.000 C 
ATOM     23  H   UNL     1      -6.871  -4.078  -4.197  0.00  0.00    +0.000 HD
ATOM     24  C   UNL     1      -7.592  -5.025  -7.335  0.00  0.00    +0.000 C 
ATOM     25  C   UNL     1      -9.234  -4.781  -5.392  0.00  0.00    +0.000 C 
ENDBRANCH  14  17
ENDBRANCH   3  11
BRANCH   8  26
ATOM     26  C   UNL     1      -4.551 -14.264 -14.422  0.00  0.00    +0.000 C 
ATOM     27  C   UNL     1      -3.860 -15.560 -14.859  0.00  0.00    +0.000 C 
BRANCH  27  28
ATOM     28  C   UNL     1      -3.226 -16.768 -15.270  0.00  0.00    +0.000 A 
ATOM     29  C   UNL     1      -1.837 -16.862 -15.255  0.00  0.00    +0.000 A 
ATOM     30  C   UNL     1      -1.210 -18.046 -15.652  0.00  0.00    +0.000 A 
ATOM     31  C   UNL     1      -1.990 -19.131 -16.057  0.00  0.00    +0.000 A 
ATOM     32  C   UNL     1      -3.383 -19.040 -16.078  0.00  0.00    +0.000 A 
ATOM     33  C   UNL     1      -3.997 -17.851 -15.680  0.00  0.00    +0.000 A 
BRANCH  30  34
ATOM     34  O   UNL     1       0.148 -18.250 -15.668  0.00  0.00    +0.000 OA
ATOM     35  C   UNL     1       0.579 -19.465 -15.123  0.00  0.00    +0.000 C 
ENDBRANCH  30  34
BRANCH  32  36
ATOM     36  O   UNL     1      -4.045 -20.168 -16.494  0.00  0.00    +0.000 OA
ATOM     37  C   UNL     1      -5.444 -20.084 -16.479  0.00  0.00    +0.000 C 
ENDBRANCH  32  36
ENDBRANCH  27  28
ENDBRANCH   8  26
TORSDOF 6
ENDMDL
MODEL 4
REMARK VINA RESULT:      -5.9     12.126     16.725
REMARK  Name = AZD4547.pdbqt.pdb
REMARK  6 active torsions:
REMARK  status: ('A' for Active; 'I' for Inactive)
REMARK    1  A    between atoms: C_3  and  C_23
REMARK    2  A    between atoms: C_8  and  C_11
REMARK    3  A    between atoms: C_12  and  C_13
REMARK    4  A    between atoms: C_15  and  O_19
REMARK    5  A    between atoms: C_17  and  O_21
REMARK    6  A    between atoms: C_26  and  N_29
REMARK                            x       y       z     vdW  Elec       q    Type
REMARK                         _______ _______ _______ _____ _____    ______ ____
ROOT
ATOM      1  O   UNL     1      -0.593 -18.495 -15.217  0.00  0.00    +0.000 OA
ATOM      2  N   UNL     1      -0.054 -17.685 -13.116  0.00  0.00    +0.000 N 
ATOM      3  C   UNL     1      -0.722 -17.670 -14.319  0.00  0.00    +0.000 C 
ATOM      4  H   UNL     1      -0.191 -16.981 -12.407  0.00  0.00    +0.000 HD
ATOM      5  C   UNL     1       0.860 -18.643 -12.747  0.00  0.00    +0.000 A 
ATOM      6  N   UNL     1       1.446 -18.547 -11.549  0.00  0.00    +0.000 NA
ATOM      7  N   UNL     1       2.262 -19.616 -11.507  0.00  0.00    +0.000 N 
ATOM      8  C   UNL     1       2.215 -20.386 -12.630  0.00  0.00    +0.000 A 
ATOM      9  H   UNL     1       2.827 -19.764 -10.677  0.00  0.00    +0.000 HD
ATOM     10  C   UNL     1       1.309 -19.779 -13.464  0.00  0.00    +0.000 A 
ENDROOT
BRANCH   3  11
ATOM     11  C   UNL     1      -1.672 -16.547 -14.520  0.00  0.00    +0.000 A 
ATOM     12  C   UNL     1      -2.990 -16.706 -14.095  0.00  0.00    +0.000 A 
ATOM     13  C   UNL     1      -3.909 -15.674 -14.267  0.00  0.00    +0.000 A 
ATOM     14  C   UNL     1      -3.541 -14.469 -14.880  0.00  0.00    +0.000 A 
ATOM     15  C   UNL     1      -2.207 -14.320 -15.285  0.00  0.00    +0.000 A 
ATOM     16  C   UNL     1      -1.282 -15.350 -15.115  0.00  0.00    +0.000 A 
BRANCH  14  17
ATOM     17  N   UNL     1      -4.464 -13.405 -15.014  0.00  0.00    +0.000 N 
ATOM     18  C   UNL     1      -4.655 -12.494 -13.871  0.00  0.00    +0.000 C 
ATOM     19  C   UNL     1      -5.774 -12.002 -13.139  0.00  0.00    +0.000 C 
ATOM     20  N   UNL     1      -7.061 -12.460 -13.556  0.00  0.00    +0.000 N 
ATOM     21  C   UNL     1      -5.636 -11.085 -11.977  0.00  0.00    +0.000 C 
ATOM     22  C   UNL     1      -7.123 -13.365 -14.657  0.00  0.00    +0.000 C 
ATOM     23  H   UNL     1      -7.897 -12.172 -13.070  0.00  0.00    +0.000 HD
ATOM     24  C   UNL     1      -5.880 -13.733 -15.252  0.00  0.00    +0.000 C 
ATOM     25  C   UNL     1      -8.425 -13.917 -15.115  0.00  0.00    +0.000 C 
ENDBRANCH  14  17
ENDBRANCH   3  11
BRANCH   8  26
ATOM     26  C   UNL     1       2.968 -21.566 -12.846  0.00  0.00    +0.000 C 
ATOM     27  C   UNL     1       3.780 -22.843 -13.084  0.00  0.00    +0.000 C 
BRANCH  27  28
ATOM     28  C   UNL     1       4.533 -24.030 -13.314  0.00  0.00    +0.000 A 
ATOM     29  C   UNL     1       5.081 -24.724 -12.238  0.00  0.00    +0.000 A 
ATOM     30  C   UNL     1       5.815 -25.892 -12.457  0.00  0.00    +0.000 A 
ATOM     31  C   UNL     1       5.988 -26.357 -13.763  0.00  0.00    +0.000 A 
ATOM     32  C   UNL     1       5.445 -25.662 -14.844  0.00  0.00    +0.000 A 
ATOM     33  C   UNL     1       4.713 -24.496 -14.613  0.00  0.00    +0.000 A 
BRANCH  30  34
ATOM     34  O   UNL     1       6.391 -26.656 -11.472  0.00  0.00    +0.000 OA
ATOM     35  C   UNL     1       5.511 -27.475 -10.755  0.00  0.00    +0.000 C 
ENDBRANCH  30  34
BRANCH  32  36
ATOM     36  O   UNL     1       5.679 -26.212 -16.081  0.00  0.00    +0.000 OA
ATOM     37  C   UNL     1       4.558 -26.313 -16.916  0.00  0.00    +0.000 C 
ENDBRANCH  32  36
ENDBRANCH  27  28
ENDBRANCH   8  26
TORSDOF 6
ENDMDL
MODEL 5
REMARK VINA RESULT:      -5.8     13.052     16.814
REMARK  Name = AZD4547.pdbqt.pdb
REMARK  6 active torsions:
REMARK  status: ('A' for Active; 'I' for Inactive)
REMARK    1  A    between atoms: C_3  and  C_23
REMARK    2  A    between atoms: C_8  and  C_11
REMARK    3  A    between atoms: C_12  and  C_13
REMARK    4  A    between atoms: C_15  and  O_19
REMARK    5  A    between atoms: C_17  and  O_21
REMARK    6  A    between atoms: C_26  and  N_29
REMARK                            x       y       z     vdW  Elec       q    Type
REMARK                         _______ _______ _______ _____ _____    ______ ____
ROOT
ATOM      1  O   UNL     1      -0.519 -18.417 -15.260  0.00  0.00    +0.000 OA
ATOM      2  N   UNL     1      -0.148 -17.745 -13.075  0.00  0.00    +0.000 N 
ATOM      3  C   UNL     1      -0.726 -17.656 -14.322  0.00  0.00    +0.000 C 
ATOM      4  H   UNL     1      -0.347 -17.092 -12.333  0.00  0.00    +0.000 HD
ATOM      5  C   UNL     1       0.750 -18.717 -12.703  0.00  0.00    +0.000 A 
ATOM      6  N   UNL     1       1.244 -18.696 -11.461  0.00  0.00    +0.000 NA
ATOM      7  N   UNL     1       2.071 -19.758 -11.430  0.00  0.00    +0.000 N 
ATOM      8  C   UNL     1       2.118 -20.451 -12.602  0.00  0.00    +0.000 A 
ATOM      9  H   UNL     1       2.575 -19.956 -10.572  0.00  0.00    +0.000 HD
ATOM     10  C   UNL     1       1.267 -19.798 -13.459  0.00  0.00    +0.000 A 
ENDROOT
BRANCH   3  11
ATOM     11  C   UNL     1      -1.674 -16.531 -14.518  0.00  0.00    +0.000 A 
ATOM     12  C   UNL     1      -2.989 -16.684 -14.078  0.00  0.00    +0.000 A 
ATOM     13  C   UNL     1      -3.906 -15.649 -14.246  0.00  0.00    +0.000 A 
ATOM     14  C   UNL     1      -3.540 -14.448 -14.867  0.00  0.00    +0.000 A 
ATOM     15  C   UNL     1      -2.210 -14.305 -15.286  0.00  0.00    +0.000 A 
ATOM     16  C   UNL     1      -1.286 -15.337 -15.121  0.00  0.00    +0.000 A 
BRANCH  14  17
ATOM     17  N   UNL     1      -4.462 -13.382 -14.997  0.00  0.00    +0.000 N 
ATOM     18  C   UNL     1      -4.654 -12.479 -13.849  0.00  0.00    +0.000 C 
ATOM     19  C   UNL     1      -5.776 -11.990 -13.116  0.00  0.00    +0.000 C 
ATOM     20  N   UNL     1      -7.062 -12.444 -13.540  0.00  0.00    +0.000 N 
ATOM     21  C   UNL     1      -5.639 -11.082 -11.947  0.00  0.00    +0.000 C 
ATOM     22  C   UNL     1      -7.122 -13.341 -14.648  0.00  0.00    +0.000 C 
ATOM     23  H   UNL     1      -7.899 -12.158 -13.054  0.00  0.00    +0.000 HD
ATOM     24  C   UNL     1      -5.877 -13.707 -15.241  0.00  0.00    +0.000 C 
ATOM     25  C   UNL     1      -8.423 -13.888 -15.113  0.00  0.00    +0.000 C 
ENDBRANCH  14  17
ENDBRANCH   3  11
BRANCH   8  26
ATOM     26  C   UNL     1       2.901 -21.606 -12.839  0.00  0.00    +0.000 C 
ATOM     27  C   UNL     1       3.752 -22.854 -13.097  0.00  0.00    +0.000 C 
BRANCH  27  28
ATOM     28  C   UNL     1       4.550 -24.009 -13.341  0.00  0.00    +0.000 A 
ATOM     29  C   UNL     1       4.741 -24.458 -14.645  0.00  0.00    +0.000 A 
ATOM     30  C   UNL     1       5.527 -25.587 -14.890  0.00  0.00    +0.000 A 
ATOM     31  C   UNL     1       6.120 -26.255 -13.816  0.00  0.00    +0.000 A 
ATOM     32  C   UNL     1       5.926 -25.811 -12.507  0.00  0.00    +0.000 A 
ATOM     33  C   UNL     1       5.139 -24.682 -12.275  0.00  0.00    +0.000 A 
BRANCH  30  34
ATOM     34  O   UNL     1       5.788 -26.110 -16.132  0.00  0.00    +0.000 OA
ATOM     35  C   UNL     1       4.846 -25.806 -17.122  0.00  0.00    +0.000 C 
ENDBRANCH  30  34
BRANCH  32  36
ATOM     36  O   UNL     1       6.557 -26.545 -11.532  0.00  0.00    +0.000 OA
ATOM     37  C   UNL     1       7.187 -27.716 -11.974  0.00  0.00    +0.000 C 
ENDBRANCH  32  36
ENDBRANCH  27  28
ENDBRANCH   8  26
TORSDOF 6
ENDMDL
MODEL 6
REMARK VINA RESULT:      -5.6     18.142     19.680
REMARK  Name = AZD4547.pdbqt.pdb
REMARK  6 active torsions:
REMARK  status: ('A' for Active; 'I' for Inactive)
REMARK    1  A    between atoms: C_3  and  C_23
REMARK    2  A    between atoms: C_8  and  C_11
REMARK    3  A    between atoms: C_12  and  C_13
REMARK    4  A    between atoms: C_15  and  O_19
REMARK    5  A    between atoms: C_17  and  O_21
REMARK    6  A    between atoms: C_26  and  N_29
REMARK                            x       y       z     vdW  Elec       q    Type
REMARK                         _______ _______ _______ _____ _____    ______ ____
ROOT
ATOM      1  O   UNL     1     -10.653 -29.373   5.154  0.00  0.00    +0.000 OA
ATOM      2  N   UNL     1     -10.088 -27.455   6.322  0.00  0.00    +0.000 N 
ATOM      3  C   UNL     1      -9.982 -28.789   5.998  0.00  0.00    +0.000 C 
ATOM      4  H   UNL     1      -9.515 -27.018   7.028  0.00  0.00    +0.000 HD
ATOM      5  C   UNL     1     -10.969 -26.580   5.733  0.00  0.00    +0.000 A 
ATOM      6  N   UNL     1     -10.978 -25.305   6.136  0.00  0.00    +0.000 NA
ATOM      7  N   UNL     1     -11.932 -24.738   5.374  0.00  0.00    +0.000 N 
ATOM      8  C   UNL     1     -12.525 -25.602   4.504  0.00  0.00    +0.000 A 
ATOM      9  H   UNL     1     -12.128 -23.750   5.499  0.00  0.00    +0.000 HD
ATOM     10  C   UNL     1     -11.921 -26.817   4.711  0.00  0.00    +0.000 A 
ENDROOT
BRANCH   3  11
ATOM     11  C   UNL     1      -8.963 -29.561   6.752  0.00  0.00    +0.000 A 
ATOM     12  C   UNL     1      -8.596 -29.116   8.022  0.00  0.00    +0.000 A 
ATOM     13  C   UNL     1      -7.642 -29.815   8.759  0.00  0.00    +0.000 A 
ATOM     14  C   UNL     1      -7.024 -30.961   8.242  0.00  0.00    +0.000 A 
ATOM     15  C   UNL     1      -7.418 -31.404   6.972  0.00  0.00    +0.000 A 
ATOM     16  C   UNL     1      -8.373 -30.709   6.230  0.00  0.00    +0.000 A 
BRANCH  14  17
ATOM     17  N   UNL     1      -6.088 -31.695   9.010  0.00  0.00    +0.000 N 
ATOM     18  C   UNL     1      -5.471 -31.040  10.176  0.00  0.00    +0.000 C 
ATOM     19  C   UNL     1      -4.139 -30.841  10.645  0.00  0.00    +0.000 C 
ATOM     20  N   UNL     1      -3.091 -31.381   9.838  0.00  0.00    +0.000 N 
ATOM     21  C   UNL     1      -3.827 -30.087  11.887  0.00  0.00    +0.000 C 
ATOM     22  C   UNL     1      -3.457 -32.066   8.641  0.00  0.00    +0.000 C 
ATOM     23  H   UNL     1      -2.124 -31.259  10.095  0.00  0.00    +0.000 HD
ATOM     24  C   UNL     1      -4.851 -32.153   8.355  0.00  0.00    +0.000 C 
ATOM     25  C   UNL     1      -2.416 -32.613   7.731  0.00  0.00    +0.000 C 
ENDBRANCH  14  17
ENDBRANCH   3  11
BRANCH   8  26
ATOM     26  C   UNL     1     -13.552 -25.266   3.589  0.00  0.00    +0.000 C 
ATOM     27  C   UNL     1     -14.661 -24.899   2.598  0.00  0.00    +0.000 C 
BRANCH  27  28
ATOM     28  C   UNL     1     -15.687 -24.551   1.673  0.00  0.00    +0.000 A 
ATOM     29  C   UNL     1     -16.541 -25.535   1.181  0.00  0.00    +0.000 A 
ATOM     30  C   UNL     1     -17.552 -25.199   0.278  0.00  0.00    +0.000 A 
ATOM     31  C   UNL     1     -17.699 -23.868  -0.121  0.00  0.00    +0.000 A 
ATOM     32  C   UNL     1     -16.842 -22.880   0.366  0.00  0.00    +0.000 A 
ATOM     33  C   UNL     1     -15.836 -23.228   1.268  0.00  0.00    +0.000 A 
BRANCH  30  34
ATOM     34  O   UNL     1     -18.452 -26.084  -0.262  0.00  0.00    +0.000 OA
ATOM     35  C   UNL     1     -18.080 -27.432  -0.200  0.00  0.00    +0.000 C 
ENDBRANCH  30  34
BRANCH  32  36
ATOM     36  O   UNL     1     -17.081 -21.608  -0.095  0.00  0.00    +0.000 OA
ATOM     37  C   UNL     1     -15.969 -20.756  -0.112  0.00  0.00    +0.000 C 
ENDBRANCH  32  36
ENDBRANCH  27  28
ENDBRANCH   8  26
TORSDOF 6
ENDMDL
MODEL 7
REMARK VINA RESULT:      -5.6     20.637     23.186
REMARK  Name = AZD4547.pdbqt.pdb
REMARK  6 active torsions:
REMARK  status: ('A' for Active; 'I' for Inactive)
REMARK    1  A    between atoms: C_3  and  C_23
REMARK    2  A    between atoms: C_8  and  C_11
REMARK    3  A    between atoms: C_12  and  C_13
REMARK    4  A    between atoms: C_15  and  O_19
REMARK    5  A    between atoms: C_17  and  O_21
REMARK    6  A    between atoms: C_26  and  N_29
REMARK                            x       y       z     vdW  Elec       q    Type
REMARK                         _______ _______ _______ _____ _____    ______ ____
ROOT
ATOM      1  O   UNL     1      -4.623 -10.116  -9.886  0.00  0.00    +0.000 OA
ATOM      2  N   UNL     1      -5.752  -9.151 -11.663  0.00  0.00    +0.000 N 
ATOM      3  C   UNL     1      -5.229  -9.176 -10.390  0.00  0.00    +0.000 C 
ATOM      4  H   UNL     1      -6.246  -8.354 -12.034  0.00  0.00    +0.000 HD
ATOM      5  C   UNL     1      -5.661 -10.188 -12.561  0.00  0.00    +0.000 A 
ATOM      6  N   UNL     1      -6.213 -10.043 -13.770  0.00  0.00    +0.000 NA
ATOM      7  N   UNL     1      -5.949 -11.212 -14.383  0.00  0.00    +0.000 N 
ATOM      8  C   UNL     1      -5.251 -12.091 -13.609  0.00  0.00    +0.000 A 
ATOM      9  H   UNL     1      -6.275 -11.346 -15.334  0.00  0.00    +0.000 HD
ATOM     10  C   UNL     1      -5.046 -11.455 -12.410  0.00  0.00    +0.000 A 
ENDROOT
BRANCH   3  11
ATOM     11  C   UNL     1      -5.433  -7.949  -9.580  0.00  0.00    +0.000 A 
ATOM     12  C   UNL     1      -6.363  -7.008 -10.020  0.00  0.00    +0.000 A 
ATOM     13  C   UNL     1      -6.581  -5.844  -9.286  0.00  0.00    +0.000 A 
ATOM     14  C   UNL     1      -5.868  -5.586  -8.108  0.00  0.00    +0.000 A 
ATOM     15  C   UNL     1      -4.950  -6.552  -7.671  0.00  0.00    +0.000 A 
ATOM     16  C   UNL     1      -4.728  -7.719  -8.401  0.00  0.00    +0.000 A 
BRANCH  14  17
ATOM     17  N   UNL     1      -6.122  -4.425  -7.340  0.00  0.00    +0.000 N 
ATOM     18  C   UNL     1      -5.211  -4.107  -6.227  0.00  0.00    +0.000 C 
ATOM     19  C   UNL     1      -5.364  -3.799  -4.843  0.00  0.00    +0.000 C 
ATOM     20  N   UNL     1      -6.700  -3.773  -4.339  0.00  0.00    +0.000 N 
ATOM     21  C   UNL     1      -4.209  -3.546  -3.942  0.00  0.00    +0.000 C 
ATOM     22  C   UNL     1      -7.762  -4.057  -5.249  0.00  0.00    +0.000 C 
ATOM     23  H   UNL     1      -6.884  -3.585  -3.365  0.00  0.00    +0.000 HD
ATOM     24  C   UNL     1      -7.390  -4.342  -6.596  0.00  0.00    +0.000 C 
ATOM     25  C   UNL     1      -9.173  -4.092  -4.782  0.00  0.00    +0.000 C 
ENDBRANCH  14  17
ENDBRANCH   3  11
BRANCH   8  26
ATOM     26  C   UNL     1      -4.842 -13.386 -14.008  0.00  0.00    +0.000 C 
ATOM     27  C   UNL     1      -4.402 -14.788 -14.442  0.00  0.00    +0.000 C 
BRANCH  27  28
ATOM     28  C   UNL     1      -3.998 -16.090 -14.854  0.00  0.00    +0.000 A 
ATOM     29  C   UNL     1      -4.923 -16.952 -15.437  0.00  0.00    +0.000 A 
ATOM     30  C   UNL     1      -4.532 -18.228 -15.847  0.00  0.00    +0.000 A 
ATOM     31  C   UNL     1      -3.205 -18.628 -15.671  0.00  0.00    +0.000 A 
ATOM     32  C   UNL     1      -2.276 -17.769 -15.081  0.00  0.00    +0.000 A 
ATOM     33  C   UNL     1      -2.679 -16.496 -14.676  0.00  0.00    +0.000 A 
BRANCH  30  34
ATOM     34  O   UNL     1      -5.357 -19.153 -16.438  0.00  0.00    +0.000 OA
ATOM     35  C   UNL     1      -6.480 -18.628 -17.089  0.00  0.00    +0.000 C 
ENDBRANCH  30  34
BRANCH  32  36
ATOM     36  O   UNL     1      -1.002 -18.268 -14.959  0.00  0.00    +0.000 OA
ATOM     37  C   UNL     1      -0.799 -19.541 -15.508  0.00  0.00    +0.000 C 
ENDBRANCH  32  36
ENDBRANCH  27  28
ENDBRANCH   8  26
TORSDOF 6
ENDMDL
MODEL 8
REMARK VINA RESULT:      -5.5     16.730     20.856
REMARK  Name = AZD4547.pdbqt.pdb
REMARK  6 active torsions:
REMARK  status: ('A' for Active; 'I' for Inactive)
REMARK    1  A    between atoms: C_3  and  C_23
REMARK    2  A    between atoms: C_8  and  C_11
REMARK    3  A    between atoms: C_12  and  C_13
REMARK    4  A    between atoms: C_15  and  O_19
REMARK    5  A    between atoms: C_17  and  O_21
REMARK    6  A    between atoms: C_26  and  N_29
REMARK                            x       y       z     vdW  Elec       q    Type
REMARK                         _______ _______ _______ _____ _____    ______ ____
ROOT
ATOM      1  O   UNL     1      -6.051 -18.085 -15.529  0.00  0.00    +0.000 OA
ATOM      2  N   UNL     1      -5.687 -15.817 -15.233  0.00  0.00    +0.000 N 
ATOM      3  C   UNL     1      -5.301 -17.136 -15.329  0.00  0.00    +0.000 C 
ATOM      4  H   UNL     1      -5.032 -15.069 -15.064  0.00  0.00    +0.000 HD
ATOM      5  C   UNL     1      -6.982 -15.376 -15.356  0.00  0.00    +0.000 A 
ATOM      6  N   UNL     1      -7.231 -14.067 -15.241  0.00  0.00    +0.000 NA
ATOM      7  N   UNL     1      -8.563 -13.980 -15.409  0.00  0.00    +0.000 N 
ATOM      8  C   UNL     1      -9.168 -15.181 -15.626  0.00  0.00    +0.000 A 
ATOM      9  H   UNL     1      -8.999 -13.065 -15.363  0.00  0.00    +0.000 HD
ATOM     10  C   UNL     1      -8.165 -16.117 -15.597  0.00  0.00    +0.000 A 
ENDROOT
BRANCH   3  11
ATOM     11  C   UNL     1      -3.849 -17.400 -15.170  0.00  0.00    +0.000 A 
ATOM     12  C   UNL     1      -3.242 -18.314 -16.030  0.00  0.00    +0.000 A 
ATOM     13  C   UNL     1      -1.881 -18.588 -15.910  0.00  0.00    +0.000 A 
ATOM     14  C   UNL     1      -1.101 -17.971 -14.924  0.00  0.00    +0.000 A 
ATOM     15  C   UNL     1      -1.725 -17.041 -14.081  0.00  0.00    +0.000 A 
ATOM     16  C   UNL     1      -3.086 -16.762 -14.195  0.00  0.00    +0.000 A 
BRANCH  14  17
ATOM     17  N   UNL     1       0.289 -18.217 -14.833  0.00  0.00    +0.000 N 
ATOM     18  C   UNL     1       0.840 -18.655 -13.538  0.00  0.00    +0.000 C 
ATOM     19  C   UNL     1       1.909 -18.236 -12.693  0.00  0.00    +0.000 C 
ATOM     20  N   UNL     1       2.679 -17.121 -13.143  0.00  0.00    +0.000 N 
ATOM     21  C   UNL     1       2.205 -18.885 -11.388  0.00  0.00    +0.000 C 
ATOM     22  C   UNL     1       2.322 -16.522 -14.388  0.00  0.00    +0.000 C 
ATOM     23  H   UNL     1       3.436 -16.754 -12.586  0.00  0.00    +0.000 HD
ATOM     24  C   UNL     1       1.216 -17.099 -15.080  0.00  0.00    +0.000 C 
ATOM     25  C   UNL     1       3.052 -15.331 -14.896  0.00  0.00    +0.000 C 
ENDBRANCH  14  17
ENDBRANCH   3  11
BRANCH   8  26
ATOM     26  C   UNL     1     -10.555 -15.374 -15.836  0.00  0.00    +0.000 C 
ATOM     27  C   UNL     1     -12.056 -15.578 -16.064  0.00  0.00    +0.000 C 
BRANCH  27  28
ATOM     28  C   UNL     1     -13.453 -15.758 -16.278  0.00  0.00    +0.000 A 
ATOM     29  C   UNL     1     -13.994 -15.548 -17.544  0.00  0.00    +0.000 A 
ATOM     30  C   UNL     1     -15.362 -15.728 -17.761  0.00  0.00    +0.000 A 
ATOM     31  C   UNL     1     -16.177 -16.126 -16.699  0.00  0.00    +0.000 A 
ATOM     32  C   UNL     1     -15.640 -16.332 -15.427  0.00  0.00    +0.000 A 
ATOM     33  C   UNL     1     -14.271 -16.149 -15.223  0.00  0.00    +0.000 A 
BRANCH  30  34
ATOM     34  O   UNL     1     -15.997 -15.557 -18.966  0.00  0.00    +0.000 OA
ATOM     35  C   UNL     1     -17.293 -15.034 -18.893  0.00  0.00    +0.000 C 
ENDBRANCH  30  34
BRANCH  32  36
ATOM     36  O   UNL     1     -16.535 -16.721 -14.461  0.00  0.00    +0.000 OA
ATOM     37  C   UNL     1     -15.974 -17.331 -13.331  0.00  0.00    +0.000 C 
ENDBRANCH  32  36
ENDBRANCH  27  28
ENDBRANCH   8  26
TORSDOF 6
ENDMDL
MODEL 9
REMARK VINA RESULT:      -5.5      8.462     14.681
REMARK  Name = AZD4547.pdbqt.pdb
REMARK  6 active torsions:
REMARK  status: ('A' for Active; 'I' for Inactive)
REMARK    1  A    between atoms: C_3  and  C_23
REMARK    2  A    between atoms: C_8  and  C_11
REMARK    3  A    between atoms: C_12  and  C_13
REMARK    4  A    between atoms: C_15  and  O_19
REMARK    5  A    between atoms: C_17  and  O_21
REMARK    6  A    between atoms: C_26  and  N_29
REMARK                            x       y       z     vdW  Elec       q    Type
REMARK                         _______ _______ _______ _____ _____    ______ ____
ROOT
ATOM      1  O   UNL     1       2.854 -30.572  -7.892  0.00  0.00    +0.000 OA
ATOM      2  N   UNL     1       5.038 -29.805  -7.923  0.00  0.00    +0.000 N 
ATOM      3  C   UNL     1       3.842 -30.170  -8.497  0.00  0.00    +0.000 C 
ATOM      4  H   UNL     1       5.827 -29.482  -8.463  0.00  0.00    +0.000 HD
ATOM      5  C   UNL     1       5.294 -29.836  -6.573  0.00  0.00    +0.000 A 
ATOM      6  N   UNL     1       6.500 -29.457  -6.136  0.00  0.00    +0.000 NA
ATOM      7  N   UNL     1       6.415 -29.604  -4.801  0.00  0.00    +0.000 N 
ATOM      8  C   UNL     1       5.203 -30.059  -4.375  0.00  0.00    +0.000 A 
ATOM      9  H   UNL     1       7.225 -29.374  -4.235  0.00  0.00    +0.000 HD
ATOM     10  C   UNL     1       4.444 -30.223  -5.507  0.00  0.00    +0.000 A 
ENDROOT
BRANCH   3  11
ATOM     11  C   UNL     1       3.771 -30.059  -9.976  0.00  0.00    +0.000 A 
ATOM     12  C   UNL     1       4.035 -28.823 -10.564  0.00  0.00    +0.000 A 
ATOM     13  C   UNL     1       3.978 -28.682 -11.949  0.00  0.00    +0.000 A 
ATOM     14  C   UNL     1       3.642 -29.762 -12.775  0.00  0.00    +0.000 A 
ATOM     15  C   UNL     1       3.397 -31.002 -12.167  0.00  0.00    +0.000 A 
ATOM     16  C   UNL     1       3.453 -31.150 -10.782  0.00  0.00    +0.000 A 
BRANCH  14  17
ATOM     17  N   UNL     1       3.628 -29.628 -14.183  0.00  0.00    +0.000 N 
ATOM     18  C   UNL     1       2.405 -29.115 -14.826  0.00  0.00    +0.000 C 
ATOM     19  C   UNL     1       1.563 -29.541 -15.895  0.00  0.00    +0.000 C 
ATOM     20  N   UNL     1       1.928 -30.756 -16.552  0.00  0.00    +0.000 N 
ATOM     21  C   UNL     1       0.342 -28.797 -16.303  0.00  0.00    +0.000 C 
ATOM     22  C   UNL     1       3.094 -31.439 -16.090  0.00  0.00    +0.000 C 
ATOM     23  H   UNL     1       1.367 -31.130 -17.301  0.00  0.00    +0.000 HD
ATOM     24  C   UNL     1       3.797 -30.840 -15.004  0.00  0.00    +0.000 C 
ATOM     25  C   UNL     1       3.507 -32.731 -16.698  0.00  0.00    +0.000 C 
ENDBRANCH  14  17
ENDBRANCH   3  11
BRANCH   8  26
ATOM     26  C   UNL     1       4.846 -30.298  -3.026  0.00  0.00    +0.000 C 
ATOM     27  C   UNL     1       4.457 -30.559  -1.567  0.00  0.00    +0.000 C 
BRANCH  27  28
ATOM     28  C   UNL     1       4.089 -30.808  -0.214  0.00  0.00    +0.000 A 
ATOM     29  C   UNL     1       3.543 -32.038   0.142  0.00  0.00    +0.000 A 
ATOM     30  C   UNL     1       3.185 -32.290   1.468  0.00  0.00    +0.000 A 
ATOM     31  C   UNL     1       3.385 -31.298   2.431  0.00  0.00    +0.000 A 
ATOM     32  C   UNL     1       3.927 -30.061   2.078  0.00  0.00    +0.000 A 
ATOM     33  C   UNL     1       4.281 -29.822   0.749  0.00  0.00    +0.000 A 
BRANCH  30  34
ATOM     34  O   UNL     1       2.647 -33.466   1.929  0.00  0.00    +0.000 OA
ATOM     35  C   UNL     1       3.472 -34.211   2.779  0.00  0.00    +0.000 C 
ENDBRANCH  30  34
BRANCH  32  36
ATOM     36  O   UNL     1       4.078 -29.164   3.107  0.00  0.00    +0.000 OA
ATOM     37  C   UNL     1       4.418 -29.722   4.347  0.00  0.00    +0.000 C 
ENDBRANCH  32  36
ENDBRANCH  27  28
ENDBRANCH   8  26
TORSDOF 6
ENDMDL
