MODEL 1
REMARK VINA RESULT:      -5.8      0.000      0.000
REMARK  Name = Belinostat.pdbqt.pdb
REMARK  6 active torsions:
REMARK  status: ('A' for Active; 'I' for Inactive)
REMARK    1  A    between atoms: C_1  and  S_7
REMARK    2  A    between atoms: C_3  and  C_18
REMARK    3  A    between atoms: S_7  and  N_10
REMARK    4  A    between atoms: N_10  and  C_12
REMARK    5  A    between atoms: C_19  and  C_20
REMARK    6  A    between atoms: N_22  and  O_24
REMARK                            x       y       z     vdW  Elec       q    Type
REMARK                         _______ _______ _______ _____ _____    ______ ____
ROOT
ATOM      1  C   UNL     1      -4.086 -33.943  -5.943  0.00  0.00    +0.000 A 
ATOM      2  C   UNL     1      -3.095 -33.608  -6.858  0.00  0.00    +0.000 A 
ATOM      3  C   UNL     1      -3.466 -33.211  -8.139  0.00  0.00    +0.000 A 
ATOM      4  C   UNL     1      -5.436 -33.862  -6.270  0.00  0.00    +0.000 A 
ATOM      5  C   UNL     1      -4.814 -33.139  -8.489  0.00  0.00    +0.000 A 
ATOM      6  C   UNL     1      -5.798 -33.463  -7.554  0.00  0.00    +0.000 A 
ENDROOT
BRANCH   1   7
ATOM      7  S   UNL     1      -3.632 -34.406  -4.311  0.00  0.00    +0.000 S 
ATOM      8  O   UNL     1      -4.683 -33.944  -3.430  0.00  0.00    +0.000 OA
ATOM      9  O   UNL     1      -2.254 -34.019  -4.098  0.00  0.00    +0.000 OA
BRANCH   7  10
ATOM     10  N   UNL     1      -3.737 -36.078  -4.338  0.00  0.00    +0.000 N 
ATOM     11  H   UNL     1      -4.368 -36.450  -5.047  0.00  0.00    +0.000 HD
BRANCH  10  12
ATOM     12  C   UNL     1      -2.764 -36.932  -3.747  0.00  0.00    +0.000 A 
ATOM     13  C   UNL     1      -1.746 -37.537  -4.480  0.00  0.00    +0.000 A 
ATOM     14  C   UNL     1      -0.771 -38.298  -3.840  0.00  0.00    +0.000 A 
ATOM     15  C   UNL     1      -0.795 -38.434  -2.455  0.00  0.00    +0.000 A 
ATOM     16  C   UNL     1      -1.789 -37.802  -1.712  0.00  0.00    +0.000 A 
ATOM     17  C   UNL     1      -2.762 -37.043  -2.356  0.00  0.00    +0.000 A 
ENDBRANCH  10  12
ENDBRANCH   7  10
ENDBRANCH   1   7
BRANCH   3  18
ATOM     18  C   UNL     1      -2.462 -32.877  -9.096  0.00  0.00    +0.000 C 
ATOM     19  C   UNL     1      -1.615 -32.598  -9.901  0.00  0.00    +0.000 C 
BRANCH  19  20
ATOM     20  C   UNL     1      -0.598 -32.263 -10.866  0.00  0.00    +0.000 C 
ATOM     21  O   UNL     1      -0.821 -32.371 -12.067  0.00  0.00    +0.000 OA
ATOM     22  N   UNL     1       0.590 -31.823 -10.355  0.00  0.00    +0.000 N 
ATOM     23  H   UNL     1       0.771 -31.674  -9.369  0.00  0.00    +0.000 HD
BRANCH  22  24
ATOM     24  O   UNL     1       1.594 -31.440 -11.272  0.00  0.00    +0.000 OA
ATOM     25  H   UNL     1       1.136 -30.772 -11.827  0.00  0.00    +0.000 HD
ENDBRANCH  22  24
ENDBRANCH  19  20
ENDBRANCH   3  18
TORSDOF 6
ENDMDL
MODEL 2
REMARK VINA RESULT:      -5.3     20.998     23.745
REMARK  Name = Belinostat.pdbqt.pdb
REMARK  6 active torsions:
REMARK  status: ('A' for Active; 'I' for Inactive)
REMARK    1  A    between atoms: C_1  and  S_7
REMARK    2  A    between atoms: C_3  and  C_18
REMARK    3  A    between atoms: S_7  and  N_10
REMARK    4  A    between atoms: N_10  and  C_12
REMARK    5  A    between atoms: C_19  and  C_20
REMARK    6  A    between atoms: N_22  and  O_24
REMARK                            x       y       z     vdW  Elec       q    Type
REMARK                         _______ _______ _______ _____ _____    ______ ____
ROOT
ATOM      1  C   UNL     1     -14.597 -18.629  -1.179  0.00  0.00    +0.000 A 
ATOM      2  C   UNL     1     -15.107 -17.557  -0.457  0.00  0.00    +0.000 A 
ATOM      3  C   UNL     1     -14.280 -16.899   0.449  0.00  0.00    +0.000 A 
ATOM      4  C   UNL     1     -13.275 -19.038  -1.038  0.00  0.00    +0.000 A 
ATOM      5  C   UNL     1     -12.956 -17.306   0.614  0.00  0.00    +0.000 A 
ATOM      6  C   UNL     1     -12.454 -18.374  -0.130  0.00  0.00    +0.000 A 
ENDROOT
BRANCH   1   7
ATOM      7  S   UNL     1     -15.619 -19.441  -2.354  0.00  0.00    +0.000 S 
ATOM      8  O   UNL     1     -16.305 -20.506  -1.656  0.00  0.00    +0.000 OA
ATOM      9  O   UNL     1     -14.825 -19.710  -3.534  0.00  0.00    +0.000 OA
BRANCH   7  10
ATOM     10  N   UNL     1     -16.779 -18.289  -2.721  0.00  0.00    +0.000 N 
ATOM     11  H   UNL     1     -17.380 -18.033  -1.940  0.00  0.00    +0.000 HD
BRANCH  10  12
ATOM     12  C   UNL     1     -16.700 -17.435  -3.856  0.00  0.00    +0.000 A 
ATOM     13  C   UNL     1     -17.524 -17.582  -4.970  0.00  0.00    +0.000 A 
ATOM     14  C   UNL     1     -17.463 -16.668  -6.019  0.00  0.00    +0.000 A 
ATOM     15  C   UNL     1     -16.592 -15.584  -5.946  0.00  0.00    +0.000 A 
ATOM     16  C   UNL     1     -15.792 -15.411  -4.820  0.00  0.00    +0.000 A 
ATOM     17  C   UNL     1     -15.856 -16.327  -3.773  0.00  0.00    +0.000 A 
ENDBRANCH  10  12
ENDBRANCH   7  10
ENDBRANCH   1   7
BRANCH   3  18
ATOM     18  C   UNL     1     -14.790 -15.806   1.210  0.00  0.00    +0.000 C 
ATOM     19  C   UNL     1     -15.218 -14.886   1.853  0.00  0.00    +0.000 C 
BRANCH  19  20
ATOM     20  C   UNL     1     -15.730 -13.782   2.625  0.00  0.00    +0.000 C 
ATOM     21  O   UNL     1     -15.185 -13.448   3.671  0.00  0.00    +0.000 OA
ATOM     22  N   UNL     1     -16.830 -13.152   2.112  0.00  0.00    +0.000 N 
ATOM     23  H   UNL     1     -17.257 -13.379   1.222  0.00  0.00    +0.000 HD
BRANCH  22  24
ATOM     24  O   UNL     1     -17.331 -12.036   2.816  0.00  0.00    +0.000 OA
ATOM     25  H   UNL     1     -18.243 -12.318   3.048  0.00  0.00    +0.000 HD
ENDBRANCH  22  24
ENDBRANCH  19  20
ENDBRANCH   3  18
TORSDOF 6
ENDMDL
MODEL 3
REMARK VINA RESULT:      -5.2     16.978     20.420
REMARK  Name = Belinostat.pdbqt.pdb
REMARK  6 active torsions:
REMARK  status: ('A' for Active; 'I' for Inactive)
REMARK    1  A    between atoms: C_1  and  S_7
REMARK    2  A    between atoms: C_3  and  C_18
REMARK    3  A    between atoms: S_7  and  N_10
REMARK    4  A    between atoms: N_10  and  C_12
REMARK    5  A    between atoms: C_19  and  C_20
REMARK    6  A    between atoms: N_22  and  O_24
REMARK                            x       y       z     vdW  Elec       q    Type
REMARK                         _______ _______ _______ _____ _____    ______ ____
ROOT
ATOM      1  C   UNL     1      -2.665 -15.035 -15.014  0.00  0.00    +0.000 A 
ATOM      2  C   UNL     1      -2.119 -16.080 -14.277  0.00  0.00    +0.000 A 
ATOM      3  C   UNL     1      -0.741 -16.267 -14.289  0.00  0.00    +0.000 A 
ATOM      4  C   UNL     1      -1.862 -14.159 -15.738  0.00  0.00    +0.000 A 
ATOM      5  C   UNL     1       0.078 -15.408 -15.022  0.00  0.00    +0.000 A 
ATOM      6  C   UNL     1      -0.483 -14.354 -15.744  0.00  0.00    +0.000 A 
ENDROOT
BRANCH   1   7
ATOM      7  S   UNL     1      -4.399 -14.764 -14.973  0.00  0.00    +0.000 S 
ATOM      8  O   UNL     1      -4.795 -14.346 -16.300  0.00  0.00    +0.000 OA
ATOM      9  O   UNL     1      -4.703 -13.954 -13.812  0.00  0.00    +0.000 OA
BRANCH   7  10
ATOM     10  N   UNL     1      -5.027 -16.301 -14.752  0.00  0.00    +0.000 N 
ATOM     11  H   UNL     1      -5.318 -16.505 -13.797  0.00  0.00    +0.000 HD
BRANCH  10  12
ATOM     12  C   UNL     1      -5.508 -17.109 -15.820  0.00  0.00    +0.000 A 
ATOM     13  C   UNL     1      -4.674 -17.917 -16.590  0.00  0.00    +0.000 A 
ATOM     14  C   UNL     1      -5.208 -18.751 -17.570  0.00  0.00    +0.000 A 
ATOM     15  C   UNL     1      -6.585 -18.800 -17.765  0.00  0.00    +0.000 A 
ATOM     16  C   UNL     1      -7.427 -18.023 -16.975  0.00  0.00    +0.000 A 
ATOM     17  C   UNL     1      -6.890 -17.190 -15.997  0.00  0.00    +0.000 A 
ENDBRANCH  10  12
ENDBRANCH   7  10
ENDBRANCH   1   7
BRANCH   3  18
ATOM     18  C   UNL     1      -0.165 -17.343 -13.550  0.00  0.00    +0.000 C 
ATOM     19  C   UNL     1       0.318 -18.249 -12.926  0.00  0.00    +0.000 C 
BRANCH  19  20
ATOM     20  C   UNL     1       0.896 -19.336 -12.177  0.00  0.00    +0.000 C 
ATOM     21  O   UNL     1       1.388 -19.138 -11.072  0.00  0.00    +0.000 OA
ATOM     22  N   UNL     1       0.846 -20.565 -12.772  0.00  0.00    +0.000 N 
ATOM     23  H   UNL     1       0.392 -20.757 -13.657  0.00  0.00    +0.000 HD
BRANCH  22  24
ATOM     24  O   UNL     1       1.359 -21.663 -12.047  0.00  0.00    +0.000 OA
ATOM     25  H   UNL     1       0.546 -22.141 -11.774  0.00  0.00    +0.000 HD
ENDBRANCH  22  24
ENDBRANCH  19  20
ENDBRANCH   3  18
TORSDOF 6
ENDMDL
MODEL 4
REMARK VINA RESULT:      -5.0     19.165     20.541
REMARK  Name = Belinostat.pdbqt.pdb
REMARK  6 active torsions:
REMARK  status: ('A' for Active; 'I' for Inactive)
REMARK    1  A    between atoms: C_1  and  S_7
REMARK    2  A    between atoms: C_3  and  C_18
REMARK    3  A    between atoms: S_7  and  N_10
REMARK    4  A    between atoms: N_10  and  C_12
REMARK    5  A    between atoms: C_19  and  C_20
REMARK    6  A    between atoms: N_22  and  O_24
REMARK                            x       y       z     vdW  Elec       q    Type
REMARK                         _______ _______ _______ _____ _____    ______ ____
ROOT
ATOM      1  C   UNL     1     -15.574 -19.771  -0.547  0.00  0.00    +0.000 A 
ATOM      2  C   UNL     1     -15.887 -18.907  -1.589  0.00  0.00    +0.000 A 
ATOM      3  C   UNL     1     -14.997 -17.888  -1.912  0.00  0.00    +0.000 A 
ATOM      4  C   UNL     1     -14.379 -19.658   0.157  0.00  0.00    +0.000 A 
ATOM      5  C   UNL     1     -13.802 -17.751  -1.206  0.00  0.00    +0.000 A 
ATOM      6  C   UNL     1     -13.493 -18.637  -0.173  0.00  0.00    +0.000 A 
ENDROOT
BRANCH   1   7
ATOM      7  S   UNL     1     -16.671 -21.086  -0.157  0.00  0.00    +0.000 S 
ATOM      8  O   UNL     1     -17.713 -21.081  -1.162  0.00  0.00    +0.000 OA
ATOM      9  O   UNL     1     -16.991 -21.005   1.252  0.00  0.00    +0.000 OA
BRANCH   7  10
ATOM     10  N   UNL     1     -15.750 -22.457  -0.435  0.00  0.00    +0.000 N 
ATOM     11  H   UNL     1     -15.105 -22.380  -1.221  0.00  0.00    +0.000 HD
BRANCH  10  12
ATOM     12  C   UNL     1     -15.552 -23.476   0.538  0.00  0.00    +0.000 A 
ATOM     13  C   UNL     1     -14.572 -23.397   1.525  0.00  0.00    +0.000 A 
ATOM     14  C   UNL     1     -14.475 -24.384   2.503  0.00  0.00    +0.000 A 
ATOM     15  C   UNL     1     -15.378 -25.443   2.514  0.00  0.00    +0.000 A 
ATOM     16  C   UNL     1     -16.382 -25.509   1.552  0.00  0.00    +0.000 A 
ATOM     17  C   UNL     1     -16.475 -24.521   0.575  0.00  0.00    +0.000 A 
ENDBRANCH  10  12
ENDBRANCH   7  10
ENDBRANCH   1   7
BRANCH   3  18
ATOM     18  C   UNL     1     -15.309 -16.982  -2.969  0.00  0.00    +0.000 C 
ATOM     19  C   UNL     1     -15.571 -16.222  -3.861  0.00  0.00    +0.000 C 
BRANCH  19  20
ATOM     20  C   UNL     1     -15.885 -15.309  -4.932  0.00  0.00    +0.000 C 
ATOM     21  O   UNL     1     -17.024 -15.245  -5.379  0.00  0.00    +0.000 OA
ATOM     22  N   UNL     1     -14.850 -14.542  -5.388  0.00  0.00    +0.000 N 
ATOM     23  H   UNL     1     -13.917 -14.542  -4.991  0.00  0.00    +0.000 HD
BRANCH  22  24
ATOM     24  O   UNL     1     -15.131 -13.602  -6.404  0.00  0.00    +0.000 OA
ATOM     25  H   UNL     1     -14.261 -13.169  -6.544  0.00  0.00    +0.000 HD
ENDBRANCH  22  24
ENDBRANCH  19  20
ENDBRANCH   3  18
TORSDOF 6
ENDMDL
MODEL 5
REMARK VINA RESULT:      -4.9     19.345     22.446
REMARK  Name = Belinostat.pdbqt.pdb
REMARK  6 active torsions:
REMARK  status: ('A' for Active; 'I' for Inactive)
REMARK    1  A    between atoms: C_1  and  S_7
REMARK    2  A    between atoms: C_3  and  C_18
REMARK    3  A    between atoms: S_7  and  N_10
REMARK    4  A    between atoms: N_10  and  C_12
REMARK    5  A    between atoms: C_19  and  C_20
REMARK    6  A    between atoms: N_22  and  O_24
REMARK                            x       y       z     vdW  Elec       q    Type
REMARK                         _______ _______ _______ _____ _____    ______ ____
ROOT
ATOM      1  C   UNL     1      -5.303 -13.854 -14.893  0.00  0.00    +0.000 A 
ATOM      2  C   UNL     1      -4.934 -13.066 -13.809  0.00  0.00    +0.000 A 
ATOM      3  C   UNL     1      -5.889 -12.249 -13.213  0.00  0.00    +0.000 A 
ATOM      4  C   UNL     1      -6.608 -13.864 -15.374  0.00  0.00    +0.000 A 
ATOM      5  C   UNL     1      -7.199 -12.235 -13.692  0.00  0.00    +0.000 A 
ATOM      6  C   UNL     1      -7.558 -13.044 -14.771  0.00  0.00    +0.000 A 
ENDROOT
BRANCH   1   7
ATOM      7  S   UNL     1      -4.116 -14.920 -15.628  0.00  0.00    +0.000 S 
ATOM      8  O   UNL     1      -2.828 -14.273 -15.499  0.00  0.00    +0.000 OA
ATOM      9  O   UNL     1      -4.619 -15.335 -16.919  0.00  0.00    +0.000 OA
BRANCH   7  10
ATOM     10  N   UNL     1      -4.089 -16.239 -14.597  0.00  0.00    +0.000 N 
ATOM     11  H   UNL     1      -4.615 -16.112 -13.734  0.00  0.00    +0.000 HD
BRANCH  10  12
ATOM     12  C   UNL     1      -3.740 -17.553 -15.018  0.00  0.00    +0.000 A 
ATOM     13  C   UNL     1      -4.689 -18.537 -15.287  0.00  0.00    +0.000 A 
ATOM     14  C   UNL     1      -4.298 -19.781 -15.775  0.00  0.00    +0.000 A 
ATOM     15  C   UNL     1      -2.953 -20.037 -16.024  0.00  0.00    +0.000 A 
ATOM     16  C   UNL     1      -2.002 -19.047 -15.793  0.00  0.00    +0.000 A 
ATOM     17  C   UNL     1      -2.398 -17.805 -15.304  0.00  0.00    +0.000 A 
ENDBRANCH  10  12
ENDBRANCH   7  10
ENDBRANCH   1   7
BRANCH   3  18
ATOM     18  C   UNL     1      -5.526 -11.423 -12.108  0.00  0.00    +0.000 C 
ATOM     19  C   UNL     1      -5.218 -10.730 -11.176  0.00  0.00    +0.000 C 
BRANCH  19  20
ATOM     20  C   UNL     1      -4.849  -9.899 -10.057  0.00  0.00    +0.000 C 
ATOM     21  O   UNL     1      -5.044  -8.690 -10.090  0.00  0.00    +0.000 OA
ATOM     22  N   UNL     1      -4.291 -10.546  -8.991  0.00  0.00    +0.000 N 
ATOM     23  H   UNL     1      -4.176 -11.551  -8.924  0.00  0.00    +0.000 HD
BRANCH  22  24
ATOM     24  O   UNL     1      -3.960  -9.771  -7.857  0.00  0.00    +0.000 OA
ATOM     25  H   UNL     1      -4.443 -10.228  -7.135  0.00  0.00    +0.000 HD
ENDBRANCH  22  24
ENDBRANCH  19  20
ENDBRANCH   3  18
TORSDOF 6
ENDMDL
MODEL 6
REMARK VINA RESULT:      -4.9      3.977      5.441
REMARK  Name = Belinostat.pdbqt.pdb
REMARK  6 active torsions:
REMARK  status: ('A' for Active; 'I' for Inactive)
REMARK    1  A    between atoms: C_1  and  S_7
REMARK    2  A    between atoms: C_3  and  C_18
REMARK    3  A    between atoms: S_7  and  N_10
REMARK    4  A    between atoms: N_10  and  C_12
REMARK    5  A    between atoms: C_19  and  C_20
REMARK    6  A    between atoms: N_22  and  O_24
REMARK                            x       y       z     vdW  Elec       q    Type
REMARK                         _______ _______ _______ _____ _____    ______ ____
ROOT
ATOM      1  C   UNL     1      -6.606 -35.485  -1.337  0.00  0.00    +0.000 A 
ATOM      2  C   UNL     1      -6.046 -35.133  -2.560  0.00  0.00    +0.000 A 
ATOM      3  C   UNL     1      -6.436 -33.942  -3.163  0.00  0.00    +0.000 A 
ATOM      4  C   UNL     1      -7.522 -34.660  -0.693  0.00  0.00    +0.000 A 
ATOM      5  C   UNL     1      -7.365 -33.110  -2.538  0.00  0.00    +0.000 A 
ATOM      6  C   UNL     1      -7.906 -33.469  -1.303  0.00  0.00    +0.000 A 
ENDROOT
BRANCH   1   7
ATOM      7  S   UNL     1      -6.091 -36.966  -0.547  0.00  0.00    +0.000 S 
ATOM      8  O   UNL     1      -5.536 -37.823  -1.573  0.00  0.00    +0.000 OA
ATOM      9  O   UNL     1      -7.168 -37.422   0.305  0.00  0.00    +0.000 OA
BRANCH   7  10
ATOM     10  N   UNL     1      -4.805 -36.472   0.405  0.00  0.00    +0.000 N 
ATOM     11  H   UNL     1      -5.033 -35.740   1.076  0.00  0.00    +0.000 HD
BRANCH  10  12
ATOM     12  C   UNL     1      -3.623 -37.244   0.584  0.00  0.00    +0.000 A 
ATOM     13  C   UNL     1      -2.414 -36.926  -0.031  0.00  0.00    +0.000 A 
ATOM     14  C   UNL     1      -1.267 -37.668   0.244  0.00  0.00    +0.000 A 
ATOM     15  C   UNL     1      -1.320 -38.716   1.157  0.00  0.00    +0.000 A 
ATOM     16  C   UNL     1      -2.516 -39.016   1.803  0.00  0.00    +0.000 A 
ATOM     17  C   UNL     1      -3.661 -38.273   1.525  0.00  0.00    +0.000 A 
ENDBRANCH  10  12
ENDBRANCH   7  10
ENDBRANCH   1   7
BRANCH   3  18
ATOM     18  C   UNL     1      -5.883 -33.571  -4.425  0.00  0.00    +0.000 C 
ATOM     19  C   UNL     1      -5.420 -33.258  -5.488  0.00  0.00    +0.000 C 
BRANCH  19  20
ATOM     20  C   UNL     1      -4.865 -32.882  -6.764  0.00  0.00    +0.000 C 
ATOM     21  O   UNL     1      -5.470 -33.125  -7.802  0.00  0.00    +0.000 OA
ATOM     22  N   UNL     1      -3.656 -32.246  -6.726  0.00  0.00    +0.000 N 
ATOM     23  H   UNL     1      -3.170 -31.986  -5.875  0.00  0.00    +0.000 HD
BRANCH  22  24
ATOM     24  O   UNL     1      -3.103 -31.819  -7.953  0.00  0.00    +0.000 OA
ATOM     25  H   UNL     1      -3.895 -31.733  -8.528  0.00  0.00    +0.000 HD
ENDBRANCH  22  24
ENDBRANCH  19  20
ENDBRANCH   3  18
TORSDOF 6
ENDMDL
MODEL 7
REMARK VINA RESULT:      -4.9     17.236     19.642
REMARK  Name = Belinostat.pdbqt.pdb
REMARK  6 active torsions:
REMARK  status: ('A' for Active; 'I' for Inactive)
REMARK    1  A    between atoms: C_1  and  S_7
REMARK    2  A    between atoms: C_3  and  C_18
REMARK    3  A    between atoms: S_7  and  N_10
REMARK    4  A    between atoms: N_10  and  C_12
REMARK    5  A    between atoms: C_19  and  C_20
REMARK    6  A    between atoms: N_22  and  O_24
REMARK                            x       y       z     vdW  Elec       q    Type
REMARK                         _______ _______ _______ _____ _____    ______ ____
ROOT
ATOM      1  C   UNL     1      -1.673 -15.748 -14.607  0.00  0.00    +0.000 A 
ATOM      2  C   UNL     1      -0.939 -16.718 -13.935  0.00  0.00    +0.000 A 
ATOM      3  C   UNL     1       0.447 -16.718 -14.053  0.00  0.00    +0.000 A 
ATOM      4  C   UNL     1      -1.051 -14.763 -15.368  0.00  0.00    +0.000 A 
ATOM      5  C   UNL     1       1.086 -15.747 -14.824  0.00  0.00    +0.000 A 
ATOM      6  C   UNL     1       0.336 -14.769 -15.479  0.00  0.00    +0.000 A 
ENDROOT
BRANCH   1   7
ATOM      7  S   UNL     1      -3.420 -15.714 -14.433  0.00  0.00    +0.000 S 
ATOM      8  O   UNL     1      -3.826 -14.327 -14.499  0.00  0.00    +0.000 OA
ATOM      9  O   UNL     1      -3.778 -16.545 -13.304  0.00  0.00    +0.000 OA
BRANCH   7  10
ATOM     10  N   UNL     1      -3.965 -16.435 -15.843  0.00  0.00    +0.000 N 
ATOM     11  H   UNL     1      -3.921 -15.837 -16.667  0.00  0.00    +0.000 HD
BRANCH  10  12
ATOM     12  C   UNL     1      -4.087 -17.844 -16.005  0.00  0.00    +0.000 A 
ATOM     13  C   UNL     1      -5.313 -18.504 -15.970  0.00  0.00    +0.000 A 
ATOM     14  C   UNL     1      -5.385 -19.873 -16.215  0.00  0.00    +0.000 A 
ATOM     15  C   UNL     1      -4.229 -20.584 -16.525  0.00  0.00    +0.000 A 
ATOM     16  C   UNL     1      -3.005 -19.924 -16.597  0.00  0.00    +0.000 A 
ATOM     17  C   UNL     1      -2.938 -18.556 -16.350  0.00  0.00    +0.000 A 
ENDBRANCH  10  12
ENDBRANCH   7  10
ENDBRANCH   1   7
BRANCH   3  18
ATOM     18  C   UNL     1       1.216 -17.715 -13.381  0.00  0.00    +0.000 C 
ATOM     19  C   UNL     1       1.866 -18.554 -12.819  0.00  0.00    +0.000 C 
BRANCH  19  20
ATOM     20  C   UNL     1       2.646 -19.561 -12.144  0.00  0.00    +0.000 C 
ATOM     21  O   UNL     1       2.890 -20.630 -12.692  0.00  0.00    +0.000 OA
ATOM     22  N   UNL     1       3.085 -19.237 -10.891  0.00  0.00    +0.000 N 
ATOM     23  H   UNL     1       2.941 -18.338 -10.447  0.00  0.00    +0.000 HD
BRANCH  22  24
ATOM     24  O   UNL     1       3.893 -20.180 -10.218  0.00  0.00    +0.000 OA
ATOM     25  H   UNL     1       4.784 -19.772 -10.263  0.00  0.00    +0.000 HD
ENDBRANCH  22  24
ENDBRANCH  19  20
ENDBRANCH   3  18
TORSDOF 6
ENDMDL
MODEL 8
REMARK VINA RESULT:      -4.8     18.842     22.028
REMARK  Name = Belinostat.pdbqt.pdb
REMARK  6 active torsions:
REMARK  status: ('A' for Active; 'I' for Inactive)
REMARK    1  A    between atoms: C_1  and  S_7
REMARK    2  A    between atoms: C_3  and  C_18
REMARK    3  A    between atoms: S_7  and  N_10
REMARK    4  A    between atoms: N_10  and  C_12
REMARK    5  A    between atoms: C_19  and  C_20
REMARK    6  A    between atoms: N_22  and  O_24
REMARK                            x       y       z     vdW  Elec       q    Type
REMARK                         _______ _______ _______ _____ _____    ______ ____
ROOT
ATOM      1  C   UNL     1      -4.659 -15.071 -15.029  0.00  0.00    +0.000 A 
ATOM      2  C   UNL     1      -3.435 -15.406 -14.462  0.00  0.00    +0.000 A 
ATOM      3  C   UNL     1      -3.000 -16.726 -14.525  0.00  0.00    +0.000 A 
ATOM      4  C   UNL     1      -5.442 -16.019 -15.682  0.00  0.00    +0.000 A 
ATOM      5  C   UNL     1      -3.779 -17.692 -15.162  0.00  0.00    +0.000 A 
ATOM      6  C   UNL     1      -4.999 -17.337 -15.742  0.00  0.00    +0.000 A 
ENDROOT
BRANCH   1   7
ATOM      7  S   UNL     1      -5.199 -13.401 -14.991  0.00  0.00    +0.000 S 
ATOM      8  O   UNL     1      -4.265 -12.635 -15.789  0.00  0.00    +0.000 OA
ATOM      9  O   UNL     1      -5.475 -13.046 -13.616  0.00  0.00    +0.000 OA
BRANCH   7  10
ATOM     10  N   UNL     1      -6.637 -13.437 -15.850  0.00  0.00    +0.000 N 
ATOM     11  H   UNL     1      -6.577 -13.906 -16.753  0.00  0.00    +0.000 HD
BRANCH  10  12
ATOM     12  C   UNL     1      -7.911 -13.228 -15.250  0.00  0.00    +0.000 A 
ATOM     13  C   UNL     1      -8.447 -11.959 -15.042  0.00  0.00    +0.000 A 
ATOM     14  C   UNL     1      -9.733 -11.813 -14.527  0.00  0.00    +0.000 A 
ATOM     15  C   UNL     1     -10.500 -12.939 -14.243  0.00  0.00    +0.000 A 
ATOM     16  C   UNL     1      -9.984 -14.209 -14.483  0.00  0.00    +0.000 A 
ATOM     17  C   UNL     1      -8.697 -14.352 -14.997  0.00  0.00    +0.000 A 
ENDBRANCH  10  12
ENDBRANCH   7  10
ENDBRANCH   1   7
BRANCH   3  18
ATOM     18  C   UNL     1      -1.753 -17.091 -13.936  0.00  0.00    +0.000 C 
ATOM     19  C   UNL     1      -0.703 -17.395 -13.439  0.00  0.00    +0.000 C 
BRANCH  19  20
ATOM     20  C   UNL     1       0.558 -17.760 -12.843  0.00  0.00    +0.000 C 
ATOM     21  O   UNL     1       1.194 -18.717 -13.269  0.00  0.00    +0.000 OA
ATOM     22  N   UNL     1       0.977 -16.976 -11.805  0.00  0.00    +0.000 N 
ATOM     23  H   UNL     1       0.492 -16.148 -11.478  0.00  0.00    +0.000 HD
BRANCH  22  24
ATOM     24  O   UNL     1       2.231 -17.273 -11.227  0.00  0.00    +0.000 OA
ATOM     25  H   UNL     1       2.571 -16.386 -10.980  0.00  0.00    +0.000 HD
ENDBRANCH  22  24
ENDBRANCH  19  20
ENDBRANCH   3  18
TORSDOF 6
ENDMDL
MODEL 9
REMARK VINA RESULT:      -4.6     11.779     15.002
REMARK  Name = Belinostat.pdbqt.pdb
REMARK  6 active torsions:
REMARK  status: ('A' for Active; 'I' for Inactive)
REMARK    1  A    between atoms: C_1  and  S_7
REMARK    2  A    between atoms: C_3  and  C_18
REMARK    3  A    between atoms: S_7  and  N_10
REMARK    4  A    between atoms: N_10  and  C_12
REMARK    5  A    between atoms: C_19  and  C_20
REMARK    6  A    between atoms: N_22  and  O_24
REMARK                            x       y       z     vdW  Elec       q    Type
REMARK                         _______ _______ _______ _____ _____    ______ ____
ROOT
ATOM      1  C   UNL     1      -5.505 -32.426   7.780  0.00  0.00    +0.000 A 
ATOM      2  C   UNL     1      -5.130 -33.523   7.013  0.00  0.00    +0.000 A 
ATOM      3  C   UNL     1      -5.990 -33.975   6.016  0.00  0.00    +0.000 A 
ATOM      4  C   UNL     1      -6.702 -31.756   7.555  0.00  0.00    +0.000 A 
ATOM      5  C   UNL     1      -7.201 -33.323   5.787  0.00  0.00    +0.000 A 
ATOM      6  C   UNL     1      -7.556 -32.213   6.555  0.00  0.00    +0.000 A 
ENDROOT
BRANCH   1   7
ATOM      7  S   UNL     1      -4.409 -31.823   9.013  0.00  0.00    +0.000 S 
ATOM      8  O   UNL     1      -5.215 -31.124   9.992  0.00  0.00    +0.000 OA
ATOM      9  O   UNL     1      -3.301 -31.168   8.353  0.00  0.00    +0.000 OA
BRANCH   7  10
ATOM     10  N   UNL     1      -3.860 -33.217   9.761  0.00  0.00    +0.000 N 
ATOM     11  H   UNL     1      -4.036 -34.074   9.238  0.00  0.00    +0.000 HD
BRANCH  10  12
ATOM     12  C   UNL     1      -2.884 -33.216  10.797  0.00  0.00    +0.000 A 
ATOM     13  C   UNL     1      -3.219 -33.205  12.149  0.00  0.00    +0.000 A 
ATOM     14  C   UNL     1      -2.227 -33.287  13.123  0.00  0.00    +0.000 A 
ATOM     15  C   UNL     1      -0.893 -33.409  12.747  0.00  0.00    +0.000 A 
ATOM     16  C   UNL     1      -0.554 -33.458  11.397  0.00  0.00    +0.000 A 
ATOM     17  C   UNL     1      -1.549 -33.374  10.427  0.00  0.00    +0.000 A 
ENDBRANCH  10  12
ENDBRANCH   7  10
ENDBRANCH   1   7
BRANCH   3  18
ATOM     18  C   UNL     1      -5.629 -35.107   5.228  0.00  0.00    +0.000 C 
ATOM     19  C   UNL     1      -5.326 -36.063   4.566  0.00  0.00    +0.000 C 
BRANCH  19  20
ATOM     20  C   UNL     1      -4.963 -37.210   3.773  0.00  0.00    +0.000 C 
ATOM     21  O   UNL     1      -5.768 -37.708   2.995  0.00  0.00    +0.000 OA
ATOM     22  N   UNL     1      -3.690 -37.677   3.944  0.00  0.00    +0.000 N 
ATOM     23  H   UNL     1      -2.994 -37.243   4.539  0.00  0.00    +0.000 HD
BRANCH  22  24
ATOM     24  O   UNL     1      -3.282 -38.770   3.148  0.00  0.00    +0.000 OA
ATOM     25  H   UNL     1      -4.041 -38.886   2.536  0.00  0.00    +0.000 HD
ENDBRANCH  22  24
ENDBRANCH  19  20
ENDBRANCH   3  18
TORSDOF 6
ENDMDL
