MODEL 1
REMARK VINA RESULT:      -6.7      0.000      0.000
REMARK  Name = Benzo[a]pyrene.pdbqt.pdb
REMARK  0 active torsions:
REMARK  status: ('A' for Active; 'I' for Inactive)
REMARK                            x       y       z     vdW  Elec       q    Type
REMARK                         _______ _______ _______ _____ _____    ______ ____
ROOT
ATOM      1  C   UNL     1      -0.391 -34.606  -9.909  0.00  0.00    +0.000 A 
ATOM      2  C   UNL     1       0.854 -35.226 -10.154  0.00  0.00    +0.000 A 
ATOM      3  C   UNL     1      -1.488 -35.365  -9.442  0.00  0.00    +0.000 A 
ATOM      4  C   UNL     1      -0.525 -33.220 -10.137  0.00  0.00    +0.000 A 
ATOM      5  C   UNL     1      -2.726 -34.717  -9.205  0.00  0.00    +0.000 A 
ATOM      6  C   UNL     1       1.010 -36.609  -9.934  0.00  0.00    +0.000 A 
ATOM      7  C   UNL     1       1.946 -34.464 -10.620  0.00  0.00    +0.000 A 
ATOM      8  C   UNL     1      -2.839 -33.328  -9.439  0.00  0.00    +0.000 A 
ATOM      9  C   UNL     1      -1.747 -32.598  -9.899  0.00  0.00    +0.000 A 
ATOM     10  C   UNL     1      -1.298 -36.742  -9.233  0.00  0.00    +0.000 A 
ATOM     11  C   UNL     1       0.563 -32.479 -10.597  0.00  0.00    +0.000 A 
ATOM     12  C   UNL     1      -0.070 -37.358  -9.474  0.00  0.00    +0.000 A 
ATOM     13  C   UNL     1       1.790 -33.096 -10.838  0.00  0.00    +0.000 A 
ATOM     14  C   UNL     1       2.243 -37.213 -10.178  0.00  0.00    +0.000 A 
ATOM     15  C   UNL     1       3.171 -35.086 -10.858  0.00  0.00    +0.000 A 
ATOM     16  C   UNL     1      -3.862 -35.401  -8.742  0.00  0.00    +0.000 A 
ATOM     17  C   UNL     1      -4.048 -32.670  -9.213  0.00  0.00    +0.000 A 
ATOM     18  C   UNL     1       3.318 -36.455 -10.638  0.00  0.00    +0.000 A 
ATOM     19  C   UNL     1      -5.067 -34.738  -8.517  0.00  0.00    +0.000 A 
ATOM     20  C   UNL     1      -5.159 -33.371  -8.753  0.00  0.00    +0.000 A 
ENDROOT
TORSDOF 0
ENDMDL
MODEL 2
REMARK VINA RESULT:      -6.5      0.599      6.178
REMARK  Name = Benzo[a]pyrene.pdbqt.pdb
REMARK  0 active torsions:
REMARK  status: ('A' for Active; 'I' for Inactive)
REMARK                            x       y       z     vdW  Elec       q    Type
REMARK                         _______ _______ _______ _____ _____    ______ ____
ROOT
ATOM      1  C   UNL     1      -1.617 -34.969  -9.326  0.00  0.00    +0.000 A 
ATOM      2  C   UNL     1      -2.843 -34.360  -8.979  0.00  0.00    +0.000 A 
ATOM      3  C   UNL     1      -0.560 -34.196  -9.860  0.00  0.00    +0.000 A 
ATOM      4  C   UNL     1      -1.460 -36.358  -9.133  0.00  0.00    +0.000 A 
ATOM      5  C   UNL     1       0.659 -34.834 -10.200  0.00  0.00    +0.000 A 
ATOM      6  C   UNL     1      -3.020 -32.974  -9.164  0.00  0.00    +0.000 A 
ATOM      7  C   UNL     1      -3.894 -35.136  -8.447  0.00  0.00    +0.000 A 
ATOM      8  C   UNL     1       0.795 -36.226  -9.999  0.00  0.00    +0.000 A 
ATOM      9  C   UNL     1      -0.258 -36.970  -9.471  0.00  0.00    +0.000 A 
ATOM     10  C   UNL     1      -0.772 -32.817 -10.031  0.00  0.00    +0.000 A 
ATOM     11  C   UNL     1      -2.508 -37.112  -8.606  0.00  0.00    +0.000 A 
ATOM     12  C   UNL     1      -1.980 -32.212  -9.689  0.00  0.00    +0.000 A 
ATOM     13  C   UNL     1      -3.717 -36.506  -8.265  0.00  0.00    +0.000 A 
ATOM     14  C   UNL     1      -4.234 -32.381  -8.818  0.00  0.00    +0.000 A 
ATOM     15  C   UNL     1      -5.100 -34.524  -8.107  0.00  0.00    +0.000 A 
ATOM     16  C   UNL     1       1.755 -34.136 -10.735  0.00  0.00    +0.000 A 
ATOM     17  C   UNL     1       1.985 -36.874 -10.326  0.00  0.00    +0.000 A 
ATOM     18  C   UNL     1      -5.269 -33.152  -8.292  0.00  0.00    +0.000 A 
ATOM     19  C   UNL     1       2.942 -34.789 -11.060  0.00  0.00    +0.000 A 
ATOM     20  C   UNL     1       3.057 -36.159 -10.855  0.00  0.00    +0.000 A 
ENDROOT
TORSDOF 0
ENDMDL
MODEL 3
REMARK VINA RESULT:      -6.5      1.231      5.667
REMARK  Name = Benzo[a]pyrene.pdbqt.pdb
REMARK  0 active torsions:
REMARK  status: ('A' for Active; 'I' for Inactive)
REMARK                            x       y       z     vdW  Elec       q    Type
REMARK                         _______ _______ _______ _____ _____    ______ ____
ROOT
ATOM      1  C   UNL     1      -2.529 -34.175  -8.750  0.00  0.00    +0.000 A 
ATOM      2  C   UNL     1      -3.730 -34.318  -8.019  0.00  0.00    +0.000 A 
ATOM      3  C   UNL     1      -1.710 -35.298  -9.005  0.00  0.00    +0.000 A 
ATOM      4  C   UNL     1      -2.159 -32.898  -9.220  0.00  0.00    +0.000 A 
ATOM      5  C   UNL     1      -0.511 -35.126  -9.740  0.00  0.00    +0.000 A 
ATOM      6  C   UNL     1      -4.118 -35.585  -7.540  0.00  0.00    +0.000 A 
ATOM      7  C   UNL     1      -4.543 -33.194  -7.767  0.00  0.00    +0.000 A 
ATOM      8  C   UNL     1      -0.158 -33.838 -10.203  0.00  0.00    +0.000 A 
ATOM      9  C   UNL     1      -0.979 -32.744  -9.940  0.00  0.00    +0.000 A 
ATOM     10  C   UNL     1      -2.128 -36.547  -8.513  0.00  0.00    +0.000 A 
ATOM     11  C   UNL     1      -2.973 -31.796  -8.963  0.00  0.00    +0.000 A 
ATOM     12  C   UNL     1      -3.312 -36.692  -7.792  0.00  0.00    +0.000 A 
ATOM     13  C   UNL     1      -4.157 -31.941  -8.242  0.00  0.00    +0.000 A 
ATOM     14  C   UNL     1      -5.305 -35.717  -6.820  0.00  0.00    +0.000 A 
ATOM     15  C   UNL     1      -5.727 -33.346  -7.045  0.00  0.00    +0.000 A 
ATOM     16  C   UNL     1       0.356 -36.191 -10.036  0.00  0.00    +0.000 A 
ATOM     17  C   UNL     1       1.017 -33.645 -10.928  0.00  0.00    +0.000 A 
ATOM     18  C   UNL     1      -6.106 -34.602  -6.574  0.00  0.00    +0.000 A 
ATOM     19  C   UNL     1       1.529 -35.993 -10.761  0.00  0.00    +0.000 A 
ATOM     20  C   UNL     1       1.859 -34.719 -11.207  0.00  0.00    +0.000 A 
ENDROOT
TORSDOF 0
ENDMDL
MODEL 4
REMARK VINA RESULT:      -6.4     18.963     20.025
REMARK  Name = Benzo[a]pyrene.pdbqt.pdb
REMARK  0 active torsions:
REMARK  status: ('A' for Active; 'I' for Inactive)
REMARK                            x       y       z     vdW  Elec       q    Type
REMARK                         _______ _______ _______ _____ _____    ______ ____
ROOT
ATOM      1  C   UNL     1      -1.483 -16.774  -1.826  0.00  0.00    +0.000 A 
ATOM      2  C   UNL     1      -0.968 -15.920  -2.826  0.00  0.00    +0.000 A 
ATOM      3  C   UNL     1      -2.849 -16.713  -1.469  0.00  0.00    +0.000 A 
ATOM      4  C   UNL     1      -0.617 -17.687  -1.189  0.00  0.00    +0.000 A 
ATOM      5  C   UNL     1      -3.339 -17.582  -0.462  0.00  0.00    +0.000 A 
ATOM      6  C   UNL     1      -1.816 -15.000  -3.475  0.00  0.00    +0.000 A 
ATOM      7  C   UNL     1       0.396 -15.984  -3.179  0.00  0.00    +0.000 A 
ATOM      8  C   UNL     1      -2.455 -18.490   0.164  0.00  0.00    +0.000 A 
ATOM      9  C   UNL     1      -1.112 -18.534  -0.203  0.00  0.00    +0.000 A 
ATOM     10  C   UNL     1      -3.666 -15.785  -2.136  0.00  0.00    +0.000 A 
ATOM     11  C   UNL     1       0.729 -17.739  -1.548  0.00  0.00    +0.000 A 
ATOM     12  C   UNL     1      -3.162 -14.940  -3.124  0.00  0.00    +0.000 A 
ATOM     13  C   UNL     1       1.234 -16.895  -2.536  0.00  0.00    +0.000 A 
ATOM     14  C   UNL     1      -1.299 -14.161  -4.461  0.00  0.00    +0.000 A 
ATOM     15  C   UNL     1       0.895 -15.136  -4.168  0.00  0.00    +0.000 A 
ATOM     16  C   UNL     1      -4.683 -17.583  -0.051  0.00  0.00    +0.000 A 
ATOM     17  C   UNL     1      -2.915 -19.353   1.157  0.00  0.00    +0.000 A 
ATOM     18  C   UNL     1       0.051 -14.229  -4.806  0.00  0.00    +0.000 A 
ATOM     19  C   UNL     1      -5.137 -18.449   0.942  0.00  0.00    +0.000 A 
ATOM     20  C   UNL     1      -4.252 -19.334   1.546  0.00  0.00    +0.000 A 
ENDROOT
TORSDOF 0
ENDMDL
MODEL 5
REMARK VINA RESULT:      -6.3      9.106     11.784
REMARK  Name = Benzo[a]pyrene.pdbqt.pdb
REMARK  0 active torsions:
REMARK  status: ('A' for Active; 'I' for Inactive)
REMARK                            x       y       z     vdW  Elec       q    Type
REMARK                         _______ _______ _______ _____ _____    ______ ____
ROOT
ATOM      1  C   UNL     1      -8.383 -29.433 -15.416  0.00  0.00    +0.000 A 
ATOM      2  C   UNL     1      -8.227 -30.793 -15.069  0.00  0.00    +0.000 A 
ATOM      3  C   UNL     1      -9.027 -29.072 -16.621  0.00  0.00    +0.000 A 
ATOM      4  C   UNL     1      -7.888 -28.440 -14.544  0.00  0.00    +0.000 A 
ATOM      5  C   UNL     1      -9.169 -27.700 -16.945  0.00  0.00    +0.000 A 
ATOM      6  C   UNL     1      -8.715 -31.801 -15.925  0.00  0.00    +0.000 A 
ATOM      7  C   UNL     1      -7.584 -31.148 -13.864  0.00  0.00    +0.000 A 
ATOM      8  C   UNL     1      -8.666 -26.721 -16.058  0.00  0.00    +0.000 A 
ATOM      9  C   UNL     1      -8.035 -27.097 -14.875  0.00  0.00    +0.000 A 
ATOM     10  C   UNL     1      -9.500 -30.103 -17.451  0.00  0.00    +0.000 A 
ATOM     11  C   UNL     1      -7.254 -28.806 -13.357  0.00  0.00    +0.000 A 
ATOM     12  C   UNL     1      -9.349 -31.447 -17.112  0.00  0.00    +0.000 A 
ATOM     13  C   UNL     1      -7.103 -30.149 -13.018  0.00  0.00    +0.000 A 
ATOM     14  C   UNL     1      -8.557 -33.141 -15.573  0.00  0.00    +0.000 A 
ATOM     15  C   UNL     1      -7.436 -32.494 -13.531  0.00  0.00    +0.000 A 
ATOM     16  C   UNL     1      -9.796 -27.261 -18.123  0.00  0.00    +0.000 A 
ATOM     17  C   UNL     1      -8.795 -25.365 -16.356  0.00  0.00    +0.000 A 
ATOM     18  C   UNL     1      -7.920 -33.486 -14.382  0.00  0.00    +0.000 A 
ATOM     19  C   UNL     1      -9.922 -25.905 -18.415  0.00  0.00    +0.000 A 
ATOM     20  C   UNL     1      -9.421 -24.956 -17.531  0.00  0.00    +0.000 A 
ENDROOT
TORSDOF 0
ENDMDL
MODEL 6
REMARK VINA RESULT:      -6.3     19.481     21.820
REMARK  Name = Benzo[a]pyrene.pdbqt.pdb
REMARK  0 active torsions:
REMARK  status: ('A' for Active; 'I' for Inactive)
REMARK                            x       y       z     vdW  Elec       q    Type
REMARK                         _______ _______ _______ _____ _____    ______ ____
ROOT
ATOM      1  C   UNL     1      -4.225 -15.972  -0.208  0.00  0.00    +0.000 A 
ATOM      2  C   UNL     1      -3.630 -17.183   0.210  0.00  0.00    +0.000 A 
ATOM      3  C   UNL     1      -5.222 -15.356   0.582  0.00  0.00    +0.000 A 
ATOM      4  C   UNL     1      -3.810 -15.385  -1.422  0.00  0.00    +0.000 A 
ATOM      5  C   UNL     1      -5.801 -14.141   0.139  0.00  0.00    +0.000 A 
ATOM      6  C   UNL     1      -4.030 -17.786   1.419  0.00  0.00    +0.000 A 
ATOM      7  C   UNL     1      -2.635 -17.794  -0.582  0.00  0.00    +0.000 A 
ATOM      8  C   UNL     1      -5.372 -13.570  -1.080  0.00  0.00    +0.000 A 
ATOM      9  C   UNL     1      -4.388 -14.192  -1.844  0.00  0.00    +0.000 A 
ATOM     10  C   UNL     1      -5.597 -15.985   1.782  0.00  0.00    +0.000 A 
ATOM     11  C   UNL     1      -2.825 -16.000  -2.194  0.00  0.00    +0.000 A 
ATOM     12  C   UNL     1      -5.012 -17.181   2.198  0.00  0.00    +0.000 A 
ATOM     13  C   UNL     1      -2.241 -17.196  -1.778  0.00  0.00    +0.000 A 
ATOM     14  C   UNL     1      -3.438 -18.982   1.823  0.00  0.00    +0.000 A 
ATOM     15  C   UNL     1      -2.055 -18.990  -0.161  0.00  0.00    +0.000 A 
ATOM     16  C   UNL     1      -6.798 -13.468   0.866  0.00  0.00    +0.000 A 
ATOM     17  C   UNL     1      -5.928 -12.375  -1.535  0.00  0.00    +0.000 A 
ATOM     18  C   UNL     1      -2.455 -19.582   1.037  0.00  0.00    +0.000 A 
ATOM     19  C   UNL     1      -7.349 -12.274   0.406  0.00  0.00    +0.000 A 
ATOM     20  C   UNL     1      -6.914 -11.728  -0.795  0.00  0.00    +0.000 A 
ENDROOT
TORSDOF 0
ENDMDL
MODEL 7
REMARK VINA RESULT:      -6.2     18.989     19.858
REMARK  Name = Benzo[a]pyrene.pdbqt.pdb
REMARK  0 active torsions:
REMARK  status: ('A' for Active; 'I' for Inactive)
REMARK                            x       y       z     vdW  Elec       q    Type
REMARK                         _______ _______ _______ _____ _____    ______ ____
ROOT
ATOM      1  C   UNL     1      -1.585 -16.562  -1.971  0.00  0.00    +0.000 A 
ATOM      2  C   UNL     1      -0.458 -16.140  -2.710  0.00  0.00    +0.000 A 
ATOM      3  C   UNL     1      -1.463 -17.583  -1.001  0.00  0.00    +0.000 A 
ATOM      4  C   UNL     1      -2.834 -15.952  -2.213  0.00  0.00    +0.000 A 
ATOM      5  C   UNL     1      -2.610 -17.987  -0.274  0.00  0.00    +0.000 A 
ATOM      6  C   UNL     1       0.799 -16.736  -2.483  0.00  0.00    +0.000 A 
ATOM      7  C   UNL     1      -0.586 -15.120  -3.676  0.00  0.00    +0.000 A 
ATOM      8  C   UNL     1      -3.852 -17.363  -0.533  0.00  0.00    +0.000 A 
ATOM      9  C   UNL     1      -3.952 -16.359  -1.492  0.00  0.00    +0.000 A 
ATOM     10  C   UNL     1      -0.195 -18.155  -0.801  0.00  0.00    +0.000 A 
ATOM     11  C   UNL     1      -2.945 -14.946  -3.172  0.00  0.00    +0.000 A 
ATOM     12  C   UNL     1       0.921 -17.741  -1.528  0.00  0.00    +0.000 A 
ATOM     13  C   UNL     1      -1.830 -14.532  -3.899  0.00  0.00    +0.000 A 
ATOM     14  C   UNL     1       1.906 -16.312  -3.217  0.00  0.00    +0.000 A 
ATOM     15  C   UNL     1       0.534 -14.711  -4.400  0.00  0.00    +0.000 A 
ATOM     16  C   UNL     1      -2.571 -18.993   0.705  0.00  0.00    +0.000 A 
ATOM     17  C   UNL     1      -4.994 -17.745   0.171  0.00  0.00    +0.000 A 
ATOM     18  C   UNL     1       1.774 -15.304  -4.171  0.00  0.00    +0.000 A 
ATOM     19  C   UNL     1      -3.715 -19.371   1.404  0.00  0.00    +0.000 A 
ATOM     20  C   UNL     1      -4.927 -18.746   1.137  0.00  0.00    +0.000 A 
ENDROOT
TORSDOF 0
ENDMDL
MODEL 8
REMARK VINA RESULT:      -6.2      3.978      6.077
REMARK  Name = Benzo[a]pyrene.pdbqt.pdb
REMARK  0 active torsions:
REMARK  status: ('A' for Active; 'I' for Inactive)
REMARK                            x       y       z     vdW  Elec       q    Type
REMARK                         _______ _______ _______ _____ _____    ______ ____
ROOT
ATOM      1  C   UNL     1      -2.642 -36.074  -5.864  0.00  0.00    +0.000 A 
ATOM      2  C   UNL     1      -2.354 -36.837  -4.711  0.00  0.00    +0.000 A 
ATOM      3  C   UNL     1      -3.129 -34.752  -5.744  0.00  0.00    +0.000 A 
ATOM      4  C   UNL     1      -2.439 -36.648  -7.137  0.00  0.00    +0.000 A 
ATOM      5  C   UNL     1      -3.410 -34.010  -6.918  0.00  0.00    +0.000 A 
ATOM      6  C   UNL     1      -2.550 -36.283  -3.431  0.00  0.00    +0.000 A 
ATOM      7  C   UNL     1      -1.869 -38.156  -4.837  0.00  0.00    +0.000 A 
ATOM      8  C   UNL     1      -3.199 -34.604  -8.183  0.00  0.00    +0.000 A 
ATOM      9  C   UNL     1      -2.719 -35.907  -8.280  0.00  0.00    +0.000 A 
ATOM     10  C   UNL     1      -3.313 -34.231  -4.452  0.00  0.00    +0.000 A 
ATOM     11  C   UNL     1      -1.959 -37.953  -7.246  0.00  0.00    +0.000 A 
ATOM     12  C   UNL     1      -3.029 -34.981  -3.311  0.00  0.00    +0.000 A 
ATOM     13  C   UNL     1      -1.675 -38.702  -6.105  0.00  0.00    +0.000 A 
ATOM     14  C   UNL     1      -2.263 -37.043  -2.298  0.00  0.00    +0.000 A 
ATOM     15  C   UNL     1      -1.587 -38.900  -3.692  0.00  0.00    +0.000 A 
ATOM     16  C   UNL     1      -3.895 -32.692  -6.882  0.00  0.00    +0.000 A 
ATOM     17  C   UNL     1      -3.469 -33.891  -9.351  0.00  0.00    +0.000 A 
ATOM     18  C   UNL     1      -1.784 -38.346  -2.428  0.00  0.00    +0.000 A 
ATOM     19  C   UNL     1      -4.163 -31.986  -8.052  0.00  0.00    +0.000 A 
ATOM     20  C   UNL     1      -3.949 -32.586  -9.288  0.00  0.00    +0.000 A 
ENDROOT
TORSDOF 0
ENDMDL
MODEL 9
REMARK VINA RESULT:      -6.2      3.865      5.666
REMARK  Name = Benzo[a]pyrene.pdbqt.pdb
REMARK  0 active torsions:
REMARK  status: ('A' for Active; 'I' for Inactive)
REMARK                            x       y       z     vdW  Elec       q    Type
REMARK                         _______ _______ _______ _____ _____    ______ ____
ROOT
ATOM      1  C   UNL     1      -2.643 -35.970  -5.636  0.00  0.00    +0.000 A 
ATOM      2  C   UNL     1      -2.164 -37.175  -5.077  0.00  0.00    +0.000 A 
ATOM      3  C   UNL     1      -2.729 -35.816  -7.038  0.00  0.00    +0.000 A 
ATOM      4  C   UNL     1      -3.034 -34.921  -4.777  0.00  0.00    +0.000 A 
ATOM      5  C   UNL     1      -3.213 -34.596  -7.572  0.00  0.00    +0.000 A 
ATOM      6  C   UNL     1      -1.769 -38.235  -5.917  0.00  0.00    +0.000 A 
ATOM      7  C   UNL     1      -2.081 -37.323  -3.676  0.00  0.00    +0.000 A 
ATOM      8  C   UNL     1      -3.600 -33.558  -6.693  0.00  0.00    +0.000 A 
ATOM      9  C   UNL     1      -3.507 -33.729  -5.315  0.00  0.00    +0.000 A 
ATOM     10  C   UNL     1      -2.326 -36.894  -7.846  0.00  0.00    +0.000 A 
ATOM     11  C   UNL     1      -2.946 -35.082  -3.394  0.00  0.00    +0.000 A 
ATOM     12  C   UNL     1      -1.853 -38.085  -7.299  0.00  0.00    +0.000 A 
ATOM     13  C   UNL     1      -2.473 -36.273  -2.847  0.00  0.00    +0.000 A 
ATOM     14  C   UNL     1      -1.297 -39.421  -5.357  0.00  0.00    +0.000 A 
ATOM     15  C   UNL     1      -1.607 -38.517  -3.135  0.00  0.00    +0.000 A 
ATOM     16  C   UNL     1      -3.328 -34.366  -8.953  0.00  0.00    +0.000 A 
ATOM     17  C   UNL     1      -4.079 -32.349  -7.196  0.00  0.00    +0.000 A 
ATOM     18  C   UNL     1      -1.217 -39.562  -3.972  0.00  0.00    +0.000 A 
ATOM     19  C   UNL     1      -3.808 -33.156  -9.449  0.00  0.00    +0.000 A 
ATOM     20  C   UNL     1      -4.183 -32.147  -8.570  0.00  0.00    +0.000 A 
ENDROOT
TORSDOF 0
ENDMDL
