MODEL 1
REMARK VINA RESULT:      -6.0      0.000      0.000
REMARK  Name = Bicalutamide.pdbqt.pdb
REMARK  8 active torsions:
REMARK  status: ('A' for Active; 'I' for Inactive)
REMARK    1  A    between atoms: C_2  and  N_13
REMARK    2  A    between atoms: C_5  and  C_9
REMARK    3  A    between atoms: C_6  and  C_8
REMARK    4  A    between atoms: C_14  and  C_17
REMARK    5  A    between atoms: C_17  and  O_19
REMARK    6  A    between atoms: C_17  and  C_21
REMARK    7  A    between atoms: C_21  and  S_22
REMARK    8  A    between atoms: S_22  and  C_25
REMARK                            x       y       z     vdW  Elec       q    Type
REMARK                         _______ _______ _______ _____ _____    ______ ____
ROOT
ATOM      1  N   UNL     1      -5.000 -34.751  -6.678  0.00  0.00    +0.000 N 
ATOM      2  C   UNL     1      -6.295 -35.170  -6.971  0.00  0.00    +0.000 C 
ATOM      3  O   UNL     1      -6.825 -35.088  -8.084  0.00  0.00    +0.000 OA
ATOM      4  H   UNL     1      -4.651 -34.970  -5.744  0.00  0.00    +0.000 HD
ENDROOT
BRANCH   1   5
ATOM      5  C   UNL     1      -4.110 -34.134  -7.572  0.00  0.00    +0.000 A 
ATOM      6  C   UNL     1      -3.178 -34.942  -8.223  0.00  0.00    +0.000 A 
ATOM      7  C   UNL     1      -4.114 -32.765  -7.821  0.00  0.00    +0.000 A 
ATOM      8  C   UNL     1      -2.251 -34.402  -9.123  0.00  0.00    +0.000 A 
ATOM      9  C   UNL     1      -2.268 -33.020  -9.365  0.00  0.00    +0.000 A 
ATOM     10  C   UNL     1      -3.199 -32.211  -8.712  0.00  0.00    +0.000 A 
BRANCH   8  11
ATOM     11  C   UNL     1      -1.271 -35.317  -9.796  0.00  0.00    +0.000 C 
ATOM     12  F   UNL     1       0.025 -34.926  -9.640  0.00  0.00    +0.000 F 
ATOM     13  F   UNL     1      -1.334 -36.587  -9.317  0.00  0.00    +0.000 F 
ATOM     14  F   UNL     1      -1.474 -35.399 -11.138  0.00  0.00    +0.000 F 
ENDBRANCH   8  11
BRANCH   9  16
ATOM     15  N   UNL     1      -0.602 -31.885 -10.993  0.00  0.00    +0.000 NA
ATOM     16  C   UNL     1      -1.353 -32.393 -10.270  0.00  0.00    +0.000 C 
ENDBRANCH   9  16
ENDBRANCH   1   5
BRANCH   2  17
ATOM     17  C   UNL     1      -7.111 -35.747  -5.744  0.00  0.00    +0.000 C 
ATOM     18  C   UNL     1      -7.196 -37.298  -5.799  0.00  0.00    +0.000 C 
BRANCH  17  19
ATOM     19  O   UNL     1      -8.441 -35.254  -5.763  0.00  0.00    +0.000 OA
ATOM     20  H   UNL     1      -8.467 -34.642  -6.524  0.00  0.00    +0.000 HD
ENDBRANCH  17  19
BRANCH  17  21
ATOM     21  C   UNL     1      -6.472 -35.309  -4.541  0.00  0.00    +0.000 C 
BRANCH  21  22
ATOM     22  S   UNL     1      -5.830 -34.600  -3.106  0.00  0.00    +0.000 S 
ATOM     23  O   UNL     1      -4.741 -33.878  -3.711  0.00  0.00    +0.000 OA
ATOM     24  O   UNL     1      -5.711 -35.826  -2.353  0.00  0.00    +0.000 OA
BRANCH  22  25
ATOM     25  C   UNL     1      -7.009 -33.534  -2.419  0.00  0.00    +0.000 A 
ATOM     26  C   UNL     1      -7.816 -32.804  -3.286  0.00  0.00    +0.000 A 
ATOM     27  C   UNL     1      -8.756 -31.923  -2.759  0.00  0.00    +0.000 A 
ATOM     28  C   UNL     1      -8.866 -31.787  -1.377  0.00  0.00    +0.000 A 
ATOM     29  F   UNL     1      -9.771 -30.938  -0.870  0.00  0.00    +0.000 F 
ATOM     30  C   UNL     1      -8.052 -32.514  -0.514  0.00  0.00    +0.000 A 
ATOM     31  C   UNL     1      -7.112 -33.395  -1.039  0.00  0.00    +0.000 A 
ENDBRANCH  22  25
ENDBRANCH  21  22
ENDBRANCH  17  21
ENDBRANCH   2  17
TORSDOF 8
ENDMDL
MODEL 2
REMARK VINA RESULT:      -5.7      3.491      4.526
REMARK  Name = Bicalutamide.pdbqt.pdb
REMARK  8 active torsions:
REMARK  status: ('A' for Active; 'I' for Inactive)
REMARK    1  A    between atoms: C_2  and  N_13
REMARK    2  A    between atoms: C_5  and  C_9
REMARK    3  A    between atoms: C_6  and  C_8
REMARK    4  A    between atoms: C_14  and  C_17
REMARK    5  A    between atoms: C_17  and  O_19
REMARK    6  A    between atoms: C_17  and  C_21
REMARK    7  A    between atoms: C_21  and  S_22
REMARK    8  A    between atoms: S_22  and  C_25
REMARK                            x       y       z     vdW  Elec       q    Type
REMARK                         _______ _______ _______ _____ _____    ______ ____
ROOT
ATOM      1  N   UNL     1      -2.922 -34.205  -9.119  0.00  0.00    +0.000 N 
ATOM      2  C   UNL     1      -4.116 -34.505  -9.769  0.00  0.00    +0.000 C 
ATOM      3  O   UNL     1      -4.259 -34.541 -10.996  0.00  0.00    +0.000 OA
ATOM      4  H   UNL     1      -2.918 -34.310  -8.103  0.00  0.00    +0.000 HD
ENDROOT
BRANCH   1   5
ATOM      5  C   UNL     1      -1.711 -33.856  -9.738  0.00  0.00    +0.000 A 
ATOM      6  C   UNL     1      -0.714 -34.828  -9.810  0.00  0.00    +0.000 A 
ATOM      7  C   UNL     1      -1.466 -32.591 -10.262  0.00  0.00    +0.000 A 
ATOM      8  C   UNL     1       0.524 -34.557 -10.403  0.00  0.00    +0.000 A 
ATOM      9  C   UNL     1       0.757 -33.277 -10.930  0.00  0.00    +0.000 A 
ATOM     10  C   UNL     1      -0.240 -32.302 -10.856  0.00  0.00    +0.000 A 
BRANCH   8  11
ATOM     11  C   UNL     1       1.562 -35.640 -10.455  0.00  0.00    +0.000 C 
ATOM     12  F   UNL     1       1.298 -36.678  -9.614  0.00  0.00    +0.000 F 
ATOM     13  F   UNL     1       1.677 -36.187 -11.694  0.00  0.00    +0.000 F 
ATOM     14  F   UNL     1       2.798 -35.191 -10.114  0.00  0.00    +0.000 F 
ENDBRANCH   8  11
BRANCH   9  16
ATOM     15  N   UNL     1       2.998 -32.643 -12.066  0.00  0.00    +0.000 NA
ATOM     16  C   UNL     1       1.996 -32.921 -11.552  0.00  0.00    +0.000 C 
ENDBRANCH   9  16
ENDBRANCH   1   5
BRANCH   2  17
ATOM     17  C   UNL     1      -5.354 -34.769  -8.819  0.00  0.00    +0.000 C 
ATOM     18  C   UNL     1      -5.513 -36.284  -8.504  0.00  0.00    +0.000 C 
BRANCH  17  19
ATOM     19  O   UNL     1      -6.554 -34.344  -9.444  0.00  0.00    +0.000 OA
ATOM     20  H   UNL     1      -6.628 -33.397  -9.218  0.00  0.00    +0.000 HD
ENDBRANCH  17  19
BRANCH  17  21
ATOM     21  C   UNL     1      -5.163 -34.013  -7.620  0.00  0.00    +0.000 C 
BRANCH  21  22
ATOM     22  S   UNL     1      -5.063 -33.252  -6.075  0.00  0.00    +0.000 S 
ATOM     23  O   UNL     1      -6.472 -33.232  -5.773  0.00  0.00    +0.000 OA
ATOM     24  O   UNL     1      -4.278 -32.118  -6.499  0.00  0.00    +0.000 OA
BRANCH  22  25
ATOM     25  C   UNL     1      -4.184 -34.276  -4.990  0.00  0.00    +0.000 A 
ATOM     26  C   UNL     1      -4.887 -34.907  -3.970  0.00  0.00    +0.000 A 
ATOM     27  C   UNL     1      -4.199 -35.717  -3.071  0.00  0.00    +0.000 A 
ATOM     28  C   UNL     1      -2.822 -35.875  -3.208  0.00  0.00    +0.000 A 
ATOM     29  F   UNL     1      -2.160 -36.655  -2.343  0.00  0.00    +0.000 F 
ATOM     30  C   UNL     1      -2.121 -35.235  -4.227  0.00  0.00    +0.000 A 
ATOM     31  C   UNL     1      -2.807 -34.425  -5.126  0.00  0.00    +0.000 A 
ENDBRANCH  22  25
ENDBRANCH  21  22
ENDBRANCH  17  21
ENDBRANCH   2  17
TORSDOF 8
ENDMDL
MODEL 3
REMARK VINA RESULT:      -5.7      6.343     10.416
REMARK  Name = Bicalutamide.pdbqt.pdb
REMARK  8 active torsions:
REMARK  status: ('A' for Active; 'I' for Inactive)
REMARK    1  A    between atoms: C_2  and  N_13
REMARK    2  A    between atoms: C_5  and  C_9
REMARK    3  A    between atoms: C_6  and  C_8
REMARK    4  A    between atoms: C_14  and  C_17
REMARK    5  A    between atoms: C_17  and  O_19
REMARK    6  A    between atoms: C_17  and  C_21
REMARK    7  A    between atoms: C_21  and  S_22
REMARK    8  A    between atoms: S_22  and  C_25
REMARK                            x       y       z     vdW  Elec       q    Type
REMARK                         _______ _______ _______ _____ _____    ______ ____
ROOT
ATOM      1  N   UNL     1      -0.309 -32.645 -11.254  0.00  0.00    +0.000 N 
ATOM      2  C   UNL     1       1.022 -32.260 -11.109  0.00  0.00    +0.000 C 
ATOM      3  O   UNL     1       1.709 -32.472 -10.105  0.00  0.00    +0.000 OA
ATOM      4  H   UNL     1      -0.728 -32.498 -12.173  0.00  0.00    +0.000 HD
ENDROOT
BRANCH   1   5
ATOM      5  C   UNL     1      -1.091 -33.290 -10.282  0.00  0.00    +0.000 A 
ATOM      6  C   UNL     1      -2.014 -32.519  -9.575  0.00  0.00    +0.000 A 
ATOM      7  C   UNL     1      -0.974 -34.645  -9.992  0.00  0.00    +0.000 A 
ATOM      8  C   UNL     1      -2.826 -33.084  -8.584  0.00  0.00    +0.000 A 
ATOM      9  C   UNL     1      -2.699 -34.453  -8.304  0.00  0.00    +0.000 A 
ATOM     10  C   UNL     1      -1.773 -35.224  -9.009  0.00  0.00    +0.000 A 
BRANCH   8  11
ATOM     11  C   UNL     1      -3.802 -32.209  -7.855  0.00  0.00    +0.000 C 
ATOM     12  F   UNL     1      -3.749 -32.356  -6.502  0.00  0.00    +0.000 F 
ATOM     13  F   UNL     1      -3.591 -30.888  -8.092  0.00  0.00    +0.000 F 
ATOM     14  F   UNL     1      -5.090 -32.464  -8.205  0.00  0.00    +0.000 F 
ENDBRANCH   8  11
BRANCH   9  16
ATOM     15  N   UNL     1      -4.143 -35.636  -6.508  0.00  0.00    +0.000 NA
ATOM     16  C   UNL     1      -3.491 -35.105  -7.306  0.00  0.00    +0.000 C 
ENDBRANCH   9  16
ENDBRANCH   1   5
BRANCH   2  17
ATOM     17  C   UNL     1       1.630 -31.461 -12.333  0.00  0.00    +0.000 C 
ATOM     18  C   UNL     1       0.540 -30.623 -13.059  0.00  0.00    +0.000 C 
BRANCH  17  19
ATOM     19  O   UNL     1       2.171 -32.361 -13.287  0.00  0.00    +0.000 OA
ATOM     20  H   UNL     1       2.624 -33.042 -12.755  0.00  0.00    +0.000 HD
ENDBRANCH  17  19
BRANCH  17  21
ATOM     21  C   UNL     1       2.678 -30.623 -11.838  0.00  0.00    +0.000 C 
BRANCH  21  22
ATOM     22  S   UNL     1       3.886 -29.686 -11.039  0.00  0.00    +0.000 S 
ATOM     23  O   UNL     1       3.108 -28.491 -10.835  0.00  0.00    +0.000 OA
ATOM     24  O   UNL     1       4.916 -29.859 -12.035  0.00  0.00    +0.000 OA
BRANCH  22  25
ATOM     25  C   UNL     1       4.302 -30.450  -9.542  0.00  0.00    +0.000 A 
ATOM     26  C   UNL     1       3.543 -30.145  -8.417  0.00  0.00    +0.000 A 
ATOM     27  C   UNL     1       3.872 -30.728  -7.197  0.00  0.00    +0.000 A 
ATOM     28  C   UNL     1       4.955 -31.600  -7.126  0.00  0.00    +0.000 A 
ATOM     29  F   UNL     1       5.271 -32.161  -5.951  0.00  0.00    +0.000 F 
ATOM     30  C   UNL     1       5.717 -31.897  -8.253  0.00  0.00    +0.000 A 
ATOM     31  C   UNL     1       5.390 -31.315  -9.473  0.00  0.00    +0.000 A 
ENDBRANCH  22  25
ENDBRANCH  21  22
ENDBRANCH  17  21
ENDBRANCH   2  17
TORSDOF 8
ENDMDL
MODEL 4
REMARK VINA RESULT:      -5.5     19.954     21.103
REMARK  Name = Bicalutamide.pdbqt.pdb
REMARK  8 active torsions:
REMARK  status: ('A' for Active; 'I' for Inactive)
REMARK    1  A    between atoms: C_2  and  N_13
REMARK    2  A    between atoms: C_5  and  C_9
REMARK    3  A    between atoms: C_6  and  C_8
REMARK    4  A    between atoms: C_14  and  C_17
REMARK    5  A    between atoms: C_17  and  O_19
REMARK    6  A    between atoms: C_17  and  C_21
REMARK    7  A    between atoms: C_21  and  S_22
REMARK    8  A    between atoms: S_22  and  C_25
REMARK                            x       y       z     vdW  Elec       q    Type
REMARK                         _______ _______ _______ _____ _____    ______ ____
ROOT
ATOM      1  N   UNL     1     -16.594 -16.374  -2.954  0.00  0.00    +0.000 N 
ATOM      2  C   UNL     1     -15.545 -16.967  -2.257  0.00  0.00    +0.000 C 
ATOM      3  O   UNL     1     -14.423 -17.181  -2.726  0.00  0.00    +0.000 OA
ATOM      4  H   UNL     1     -17.437 -16.164  -2.417  0.00  0.00    +0.000 HD
ENDROOT
BRANCH   1   5
ATOM      5  C   UNL     1     -16.567 -15.966  -4.297  0.00  0.00    +0.000 A 
ATOM      6  C   UNL     1     -17.191 -16.783  -5.238  0.00  0.00    +0.000 A 
ATOM      7  C   UNL     1     -15.937 -14.799  -4.722  0.00  0.00    +0.000 A 
ATOM      8  C   UNL     1     -17.200 -16.452  -6.598  0.00  0.00    +0.000 A 
ATOM      9  C   UNL     1     -16.563 -15.272  -7.012  0.00  0.00    +0.000 A 
ATOM     10  C   UNL     1     -15.935 -14.454  -6.071  0.00  0.00    +0.000 A 
BRANCH   8  11
ATOM     11  C   UNL     1     -17.888 -17.367  -7.568  0.00  0.00    +0.000 C 
ATOM     12  F   UNL     1     -18.422 -18.472  -6.978  0.00  0.00    +0.000 F 
ATOM     13  F   UNL     1     -18.917 -16.758  -8.214  0.00  0.00    +0.000 F 
ATOM     14  F   UNL     1     -17.047 -17.831  -8.530  0.00  0.00    +0.000 F 
ENDBRANCH   8  11
BRANCH   9  16
ATOM     15  N   UNL     1     -16.503 -14.546  -9.498  0.00  0.00    +0.000 NA
ATOM     16  C   UNL     1     -16.528 -14.863  -8.383  0.00  0.00    +0.000 C 
ENDBRANCH   9  16
ENDBRANCH   1   5
BRANCH   2  17
ATOM     17  C   UNL     1     -15.886 -17.417  -0.778  0.00  0.00    +0.000 C 
ATOM     18  C   UNL     1     -16.888 -18.606  -0.765  0.00  0.00    +0.000 C 
BRANCH  17  19
ATOM     19  O   UNL     1     -16.493 -16.350  -0.068  0.00  0.00    +0.000 OA
ATOM     20  H   UNL     1     -17.329 -16.181  -0.543  0.00  0.00    +0.000 HD
ENDBRANCH  17  19
BRANCH  17  21
ATOM     21  C   UNL     1     -14.662 -17.770  -0.128  0.00  0.00    +0.000 C 
BRANCH  21  22
ATOM     22  S   UNL     1     -13.301 -18.188   0.846  0.00  0.00    +0.000 S 
ATOM     23  O   UNL     1     -12.798 -19.265   0.032  0.00  0.00    +0.000 OA
ATOM     24  O   UNL     1     -14.024 -18.337   2.086  0.00  0.00    +0.000 OA
BRANCH  22  25
ATOM     25  C   UNL     1     -12.203 -16.850   0.897  0.00  0.00    +0.000 A 
ATOM     26  C   UNL     1     -10.917 -17.075   1.377  0.00  0.00    +0.000 A 
ATOM     27  C   UNL     1     -10.023 -16.010   1.449  0.00  0.00    +0.000 A 
ATOM     28  C   UNL     1     -10.435 -14.743   1.045  0.00  0.00    +0.000 A 
ATOM     29  F   UNL     1      -9.574 -13.718   1.115  0.00  0.00    +0.000 F 
ATOM     30  C   UNL     1     -11.726 -14.521   0.572  0.00  0.00    +0.000 A 
ATOM     31  C   UNL     1     -12.620 -15.583   0.500  0.00  0.00    +0.000 A 
ENDBRANCH  22  25
ENDBRANCH  21  22
ENDBRANCH  17  21
ENDBRANCH   2  17
TORSDOF 8
ENDMDL
MODEL 5
REMARK VINA RESULT:      -5.5      4.090      8.569
REMARK  Name = Bicalutamide.pdbqt.pdb
REMARK  8 active torsions:
REMARK  status: ('A' for Active; 'I' for Inactive)
REMARK    1  A    between atoms: C_2  and  N_13
REMARK    2  A    between atoms: C_5  and  C_9
REMARK    3  A    between atoms: C_6  and  C_8
REMARK    4  A    between atoms: C_14  and  C_17
REMARK    5  A    between atoms: C_17  and  O_19
REMARK    6  A    between atoms: C_17  and  C_21
REMARK    7  A    between atoms: C_21  and  S_22
REMARK    8  A    between atoms: S_22  and  C_25
REMARK                            x       y       z     vdW  Elec       q    Type
REMARK                         _______ _______ _______ _____ _____    ______ ____
ROOT
ATOM      1  N   UNL     1      -8.394 -35.411  -3.684  0.00  0.00    +0.000 N 
ATOM      2  C   UNL     1      -7.757 -34.226  -3.324  0.00  0.00    +0.000 C 
ATOM      3  O   UNL     1      -8.124 -33.098  -3.670  0.00  0.00    +0.000 OA
ATOM      4  H   UNL     1      -8.047 -36.265  -3.246  0.00  0.00    +0.000 HD
ENDROOT
BRANCH   1   5
ATOM      5  C   UNL     1      -9.515 -35.524  -4.522  0.00  0.00    +0.000 A 
ATOM      6  C   UNL     1     -10.774 -35.549  -3.924  0.00  0.00    +0.000 A 
ATOM      7  C   UNL     1      -9.418 -35.623  -5.907  0.00  0.00    +0.000 A 
ATOM      8  C   UNL     1     -11.940 -35.669  -4.689  0.00  0.00    +0.000 A 
ATOM      9  C   UNL     1     -11.828 -35.765  -6.084  0.00  0.00    +0.000 A 
ATOM     10  C   UNL     1     -10.567 -35.743  -6.684  0.00  0.00    +0.000 A 
BRANCH   8  11
ATOM     11  C   UNL     1     -13.270 -35.690  -3.994  0.00  0.00    +0.000 C 
ATOM     12  F   UNL     1     -14.009 -36.797  -4.283  0.00  0.00    +0.000 F 
ATOM     13  F   UNL     1     -13.147 -35.669  -2.641  0.00  0.00    +0.000 F 
ATOM     14  F   UNL     1     -14.048 -34.628  -4.329  0.00  0.00    +0.000 F 
ENDBRANCH   8  11
BRANCH   9  16
ATOM     15  N   UNL     1     -13.902 -35.978  -7.622  0.00  0.00    +0.000 NA
ATOM     16  C   UNL     1     -12.972 -35.890  -6.936  0.00  0.00    +0.000 C 
ENDBRANCH   9  16
ENDBRANCH   1   5
BRANCH   2  17
ATOM     17  C   UNL     1      -6.454 -34.401  -2.444  0.00  0.00    +0.000 C 
ATOM     18  C   UNL     1      -6.518 -35.698  -1.589  0.00  0.00    +0.000 C 
BRANCH  17  19
ATOM     19  O   UNL     1      -6.318 -33.312  -1.544  0.00  0.00    +0.000 OA
ATOM     20  H   UNL     1      -6.728 -32.557  -2.007  0.00  0.00    +0.000 HD
ENDBRANCH  17  19
BRANCH  17  21
ATOM     21  C   UNL     1      -5.325 -34.420  -3.322  0.00  0.00    +0.000 C 
BRANCH  21  22
ATOM     22  S   UNL     1      -3.909 -34.637  -4.283  0.00  0.00    +0.000 S 
ATOM     23  O   UNL     1      -3.883 -36.078  -4.276  0.00  0.00    +0.000 OA
ATOM     24  O   UNL     1      -3.048 -33.777  -3.507  0.00  0.00    +0.000 OA
BRANCH  22  25
ATOM     25  C   UNL     1      -4.193 -34.003  -5.869  0.00  0.00    +0.000 A 
ATOM     26  C   UNL     1      -5.510 -33.891  -6.304  0.00  0.00    +0.000 A 
ATOM     27  C   UNL     1      -5.763 -33.406  -7.584  0.00  0.00    +0.000 A 
ATOM     28  C   UNL     1      -4.696 -33.048  -8.403  0.00  0.00    +0.000 A 
ATOM     29  F   UNL     1      -4.940 -32.581  -9.635  0.00  0.00    +0.000 F 
ATOM     30  C   UNL     1      -3.379 -33.169  -7.966  0.00  0.00    +0.000 A 
ATOM     31  C   UNL     1      -3.124 -33.654  -6.688  0.00  0.00    +0.000 A 
ENDBRANCH  22  25
ENDBRANCH  21  22
ENDBRANCH  17  21
ENDBRANCH   2  17
TORSDOF 8
ENDMDL
MODEL 6
REMARK VINA RESULT:      -5.5      5.887      8.745
REMARK  Name = Bicalutamide.pdbqt.pdb
REMARK  8 active torsions:
REMARK  status: ('A' for Active; 'I' for Inactive)
REMARK    1  A    between atoms: C_2  and  N_13
REMARK    2  A    between atoms: C_5  and  C_9
REMARK    3  A    between atoms: C_6  and  C_8
REMARK    4  A    between atoms: C_14  and  C_17
REMARK    5  A    between atoms: C_17  and  O_19
REMARK    6  A    between atoms: C_17  and  C_21
REMARK    7  A    between atoms: C_21  and  S_22
REMARK    8  A    between atoms: S_22  and  C_25
REMARK                            x       y       z     vdW  Elec       q    Type
REMARK                         _______ _______ _______ _____ _____    ______ ____
ROOT
ATOM      1  N   UNL     1       2.120 -31.216 -10.535  0.00  0.00    +0.000 N 
ATOM      2  C   UNL     1       1.503 -32.417 -10.873  0.00  0.00    +0.000 C 
ATOM      3  O   UNL     1       1.950 -33.537 -10.605  0.00  0.00    +0.000 OA
ATOM      4  H   UNL     1       1.593 -30.363 -10.728  0.00  0.00    +0.000 HD
ENDROOT
BRANCH   1   5
ATOM      5  C   UNL     1       3.356 -31.078  -9.883  0.00  0.00    +0.000 A 
ATOM      6  C   UNL     1       3.348 -30.959  -8.494  0.00  0.00    +0.000 A 
ATOM      7  C   UNL     1       4.571 -31.043 -10.561  0.00  0.00    +0.000 A 
ATOM      8  C   UNL     1       4.537 -30.810  -7.770  0.00  0.00    +0.000 A 
ATOM      9  C   UNL     1       5.755 -30.778  -8.467  0.00  0.00    +0.000 A 
ATOM     10  C   UNL     1       5.763 -30.894  -9.858  0.00  0.00    +0.000 A 
BRANCH   8  11
ATOM     11  C   UNL     1       4.471 -30.687  -6.276  0.00  0.00    +0.000 C 
ATOM     12  F   UNL     1       4.909 -31.800  -5.625  0.00  0.00    +0.000 F 
ATOM     13  F   UNL     1       5.230 -29.661  -5.807  0.00  0.00    +0.000 F 
ATOM     14  F   UNL     1       3.207 -30.469  -5.828  0.00  0.00    +0.000 F 
ENDBRANCH   8  11
BRANCH   9  16
ATOM     15  N   UNL     1       8.032 -30.521  -7.259  0.00  0.00    +0.000 NA
ATOM     16  C   UNL     1       7.012 -30.628  -7.800  0.00  0.00    +0.000 C 
ENDBRANCH   9  16
ENDBRANCH   1   5
BRANCH   2  17
ATOM     17  C   UNL     1       0.157 -32.277 -11.694  0.00  0.00    +0.000 C 
ATOM     18  C   UNL     1       0.381 -32.577 -13.203  0.00  0.00    +0.000 C 
BRANCH  17  19
ATOM     19  O   UNL     1      -0.340 -30.952 -11.601  0.00  0.00    +0.000 OA
ATOM     20  H   UNL     1       0.458 -30.390 -11.571  0.00  0.00    +0.000 HD
ENDBRANCH  17  19
BRANCH  17  21
ATOM     21  C   UNL     1      -0.803 -33.173 -11.129  0.00  0.00    +0.000 C 
BRANCH  21  22
ATOM     22  S   UNL     1      -1.850 -34.418 -10.551  0.00  0.00    +0.000 S 
ATOM     23  O   UNL     1      -0.839 -35.396 -10.238  0.00  0.00    +0.000 OA
ATOM     24  O   UNL     1      -2.722 -34.448 -11.700  0.00  0.00    +0.000 OA
BRANCH  22  25
ATOM     25  C   UNL     1      -2.670 -33.860  -9.132  0.00  0.00    +0.000 A 
ATOM     26  C   UNL     1      -3.267 -32.604  -9.171  0.00  0.00    +0.000 A 
ATOM     27  C   UNL     1      -3.913 -32.124  -8.036  0.00  0.00    +0.000 A 
ATOM     28  C   UNL     1      -3.945 -32.906  -6.885  0.00  0.00    +0.000 A 
ATOM     29  F   UNL     1      -4.567 -32.443  -5.792  0.00  0.00    +0.000 F 
ATOM     30  C   UNL     1      -3.340 -34.160  -6.848  0.00  0.00    +0.000 A 
ATOM     31  C   UNL     1      -2.694 -34.641  -7.982  0.00  0.00    +0.000 A 
ENDBRANCH  22  25
ENDBRANCH  21  22
ENDBRANCH  17  21
ENDBRANCH   2  17
TORSDOF 8
ENDMDL
MODEL 7
REMARK VINA RESULT:      -5.3     19.173     21.519
REMARK  Name = Bicalutamide.pdbqt.pdb
REMARK  8 active torsions:
REMARK  status: ('A' for Active; 'I' for Inactive)
REMARK    1  A    between atoms: C_2  and  N_13
REMARK    2  A    between atoms: C_5  and  C_9
REMARK    3  A    between atoms: C_6  and  C_8
REMARK    4  A    between atoms: C_14  and  C_17
REMARK    5  A    between atoms: C_17  and  O_19
REMARK    6  A    between atoms: C_17  and  C_21
REMARK    7  A    between atoms: C_21  and  S_22
REMARK    8  A    between atoms: S_22  and  C_25
REMARK                            x       y       z     vdW  Elec       q    Type
REMARK                         _______ _______ _______ _____ _____    ______ ____
ROOT
ATOM      1  N   UNL     1     -15.978 -18.069  -3.478  0.00  0.00    +0.000 N 
ATOM      2  C   UNL     1     -17.067 -18.934  -3.559  0.00  0.00    +0.000 C 
ATOM      3  O   UNL     1     -17.376 -19.757  -2.691  0.00  0.00    +0.000 OA
ATOM      4  H   UNL     1     -15.895 -17.371  -4.218  0.00  0.00    +0.000 HD
ENDROOT
BRANCH   1   5
ATOM      5  C   UNL     1     -15.040 -18.019  -2.434  0.00  0.00    +0.000 A 
ATOM      6  C   UNL     1     -15.273 -17.120  -1.394  0.00  0.00    +0.000 A 
ATOM      7  C   UNL     1     -13.897 -18.811  -2.405  0.00  0.00    +0.000 A 
ATOM      8  C   UNL     1     -14.382 -17.003  -0.321  0.00  0.00    +0.000 A 
ATOM      9  C   UNL     1     -13.234 -17.809  -0.303  0.00  0.00    +0.000 A 
ATOM     10  C   UNL     1     -12.998 -18.708  -1.345  0.00  0.00    +0.000 A 
BRANCH   8  11
ATOM     11  C   UNL     1     -14.681 -16.019   0.772  0.00  0.00    +0.000 C 
ATOM     12  F   UNL     1     -15.844 -15.338   0.578  0.00  0.00    +0.000 F 
ATOM     13  F   UNL     1     -14.800 -16.617   1.987  0.00  0.00    +0.000 F 
ATOM     14  F   UNL     1     -13.714 -15.073   0.899  0.00  0.00    +0.000 F 
ENDBRANCH   8  11
BRANCH   9  16
ATOM     15  N   UNL     1     -11.491 -17.689   1.610  0.00  0.00    +0.000 NA
ATOM     16  C   UNL     1     -12.275 -17.749   0.758  0.00  0.00    +0.000 C 
ENDBRANCH   9  16
ENDBRANCH   1   5
BRANCH   2  17
ATOM     17  C   UNL     1     -17.905 -18.840  -4.898  0.00  0.00    +0.000 C 
ATOM     18  C   UNL     1     -19.423 -19.048  -4.631  0.00  0.00    +0.000 C 
BRANCH  17  19
ATOM     19  O   UNL     1     -17.497 -19.851  -5.806  0.00  0.00    +0.000 OA
ATOM     20  H   UNL     1     -18.283 -20.015  -6.362  0.00  0.00    +0.000 HD
ENDBRANCH  17  19
BRANCH  17  21
ATOM     21  C   UNL     1     -17.657 -17.560  -5.488  0.00  0.00    +0.000 C 
BRANCH  21  22
ATOM     22  S   UNL     1     -17.554 -16.044  -6.304  0.00  0.00    +0.000 S 
ATOM     23  O   UNL     1     -16.411 -15.518  -5.602  0.00  0.00    +0.000 OA
ATOM     24  O   UNL     1     -18.925 -15.648  -6.094  0.00  0.00    +0.000 OA
BRANCH  22  25
ATOM     25  C   UNL     1     -17.212 -16.320  -7.979  0.00  0.00    +0.000 A 
ATOM     26  C   UNL     1     -17.384 -17.606  -8.480  0.00  0.00    +0.000 A 
ATOM     27  C   UNL     1     -17.093 -17.858  -9.818  0.00  0.00    +0.000 A 
ATOM     28  C   UNL     1     -16.632 -16.821 -10.624  0.00  0.00    +0.000 A 
ATOM     29  F   UNL     1     -16.353 -17.064 -11.912  0.00  0.00    +0.000 F 
ATOM     30  C   UNL     1     -16.455 -15.537 -10.117  0.00  0.00    +0.000 A 
ATOM     31  C   UNL     1     -16.745 -15.283  -8.780  0.00  0.00    +0.000 A 
ENDBRANCH  22  25
ENDBRANCH  21  22
ENDBRANCH  17  21
ENDBRANCH   2  17
TORSDOF 8
ENDMDL
MODEL 8
REMARK VINA RESULT:      -5.3      4.580      6.035
REMARK  Name = Bicalutamide.pdbqt.pdb
REMARK  8 active torsions:
REMARK  status: ('A' for Active; 'I' for Inactive)
REMARK    1  A    between atoms: C_2  and  N_13
REMARK    2  A    between atoms: C_5  and  C_9
REMARK    3  A    between atoms: C_6  and  C_8
REMARK    4  A    between atoms: C_14  and  C_17
REMARK    5  A    between atoms: C_17  and  O_19
REMARK    6  A    between atoms: C_17  and  C_21
REMARK    7  A    between atoms: C_21  and  S_22
REMARK    8  A    between atoms: S_22  and  C_25
REMARK                            x       y       z     vdW  Elec       q    Type
REMARK                         _______ _______ _______ _____ _____    ______ ____
ROOT
ATOM      1  N   UNL     1      -1.408 -34.801  -9.935  0.00  0.00    +0.000 N 
ATOM      2  C   UNL     1      -2.392 -35.035 -10.891  0.00  0.00    +0.000 C 
ATOM      3  O   UNL     1      -2.171 -35.334 -12.069  0.00  0.00    +0.000 OA
ATOM      4  H   UNL     1      -1.729 -34.663  -8.976  0.00  0.00    +0.000 HD
ENDROOT
BRANCH   1   5
ATOM      5  C   UNL     1      -0.021 -34.822 -10.156  0.00  0.00    +0.000 A 
ATOM      6  C   UNL     1       0.629 -36.054 -10.089  0.00  0.00    +0.000 A 
ATOM      7  C   UNL     1       0.720 -33.675 -10.423  0.00  0.00    +0.000 A 
ATOM      8  C   UNL     1       2.011 -36.158 -10.289  0.00  0.00    +0.000 A 
ATOM      9  C   UNL     1       2.746 -34.994 -10.559  0.00  0.00    +0.000 A 
ATOM     10  C   UNL     1       2.096 -33.760 -10.623  0.00  0.00    +0.000 A 
BRANCH   8  11
ATOM     11  C   UNL     1       2.660 -37.509 -10.206  0.00  0.00    +0.000 C 
ATOM     12  F   UNL     1       3.815 -37.507  -9.485  0.00  0.00    +0.000 F 
ATOM     13  F   UNL     1       1.857 -38.433  -9.617  0.00  0.00    +0.000 F 
ATOM     14  F   UNL     1       2.988 -38.003 -11.429  0.00  0.00    +0.000 F 
ENDBRANCH   8  11
BRANCH   9  16
ATOM     15  N   UNL     1       5.308 -35.023 -10.941  0.00  0.00    +0.000 NA
ATOM     16  C   UNL     1       4.161 -35.017 -10.774  0.00  0.00    +0.000 C 
ENDBRANCH   9  16
ENDBRANCH   1   5
BRANCH   2  17
ATOM     17  C   UNL     1      -3.881 -34.850 -10.387  0.00  0.00    +0.000 C 
ATOM     18  C   UNL     1      -4.656 -36.198 -10.404  0.00  0.00    +0.000 C 
BRANCH  17  19
ATOM     19  O   UNL     1      -4.580 -33.954 -11.235  0.00  0.00    +0.000 OA
ATOM     20  H   UNL     1      -4.595 -34.398 -12.105  0.00  0.00    +0.000 HD
ENDBRANCH  17  19
BRANCH  17  21
ATOM     21  C   UNL     1      -3.837 -34.300  -9.067  0.00  0.00    +0.000 C 
BRANCH  21  22
ATOM     22  S   UNL     1      -3.748 -33.439  -7.575  0.00  0.00    +0.000 S 
ATOM     23  O   UNL     1      -5.147 -33.117  -7.448  0.00  0.00    +0.000 OA
ATOM     24  O   UNL     1      -2.707 -32.523  -7.972  0.00  0.00    +0.000 OA
BRANCH  22  25
ATOM     25  C   UNL     1      -3.217 -34.515  -6.326  0.00  0.00    +0.000 A 
ATOM     26  C   UNL     1      -2.960 -33.983  -5.067  0.00  0.00    +0.000 A 
ATOM     27  C   UNL     1      -2.510 -34.824  -4.053  0.00  0.00    +0.000 A 
ATOM     28  C   UNL     1      -2.323 -36.177  -4.320  0.00  0.00    +0.000 A 
ATOM     29  F   UNL     1      -1.891 -36.987  -3.344  0.00  0.00    +0.000 F 
ATOM     30  C   UNL     1      -2.576 -36.705  -5.584  0.00  0.00    +0.000 A 
ATOM     31  C   UNL     1      -3.025 -35.866  -6.598  0.00  0.00    +0.000 A 
ENDBRANCH  22  25
ENDBRANCH  21  22
ENDBRANCH  17  21
ENDBRANCH   2  17
TORSDOF 8
ENDMDL
MODEL 9
REMARK VINA RESULT:      -5.3      6.844     11.644
REMARK  Name = Bicalutamide.pdbqt.pdb
REMARK  8 active torsions:
REMARK  status: ('A' for Active; 'I' for Inactive)
REMARK    1  A    between atoms: C_2  and  N_13
REMARK    2  A    between atoms: C_5  and  C_9
REMARK    3  A    between atoms: C_6  and  C_8
REMARK    4  A    between atoms: C_14  and  C_17
REMARK    5  A    between atoms: C_17  and  O_19
REMARK    6  A    between atoms: C_17  and  C_21
REMARK    7  A    between atoms: C_21  and  S_22
REMARK    8  A    between atoms: S_22  and  C_25
REMARK                            x       y       z     vdW  Elec       q    Type
REMARK                         _______ _______ _______ _____ _____    ______ ____
ROOT
ATOM      1  N   UNL     1       0.082 -31.880 -10.801  0.00  0.00    +0.000 N 
ATOM      2  C   UNL     1       1.376 -32.391 -10.731  0.00  0.00    +0.000 C 
ATOM      3  O   UNL     1       1.653 -33.568 -10.477  0.00  0.00    +0.000 OA
ATOM      4  H   UNL     1      -0.009 -30.915 -11.119  0.00  0.00    +0.000 HD
ENDROOT
BRANCH   1   5
ATOM      5  C   UNL     1      -1.102 -32.595 -10.556  0.00  0.00    +0.000 A 
ATOM      6  C   UNL     1      -1.882 -32.205  -9.468  0.00  0.00    +0.000 A 
ATOM      7  C   UNL     1      -1.513 -33.669 -11.338  0.00  0.00    +0.000 A 
ATOM      8  C   UNL     1      -3.071 -32.872  -9.151  0.00  0.00    +0.000 A 
ATOM      9  C   UNL     1      -3.476 -33.953  -9.949  0.00  0.00    +0.000 A 
ATOM     10  C   UNL     1      -2.694 -34.345 -11.037  0.00  0.00    +0.000 A 
BRANCH   8  11
ATOM     11  C   UNL     1      -3.874 -32.411  -7.969  0.00  0.00    +0.000 C 
ATOM     12  F   UNL     1      -5.216 -32.416  -8.196  0.00  0.00    +0.000 F 
ATOM     13  F   UNL     1      -3.680 -33.195  -6.876  0.00  0.00    +0.000 F 
ATOM     14  F   UNL     1      -3.565 -31.142  -7.595  0.00  0.00    +0.000 F 
ENDBRANCH   8  11
BRANCH   9  16
ATOM     15  N   UNL     1      -5.647 -35.282  -9.469  0.00  0.00    +0.000 NA
ATOM     16  C   UNL     1      -4.678 -34.685  -9.691  0.00  0.00    +0.000 C 
ENDBRANCH   9  16
ENDBRANCH   1   5
BRANCH   2  17
ATOM     17  C   UNL     1       2.532 -31.335 -10.960  0.00  0.00    +0.000 C 
ATOM     18  C   UNL     1       3.868 -32.033 -11.340  0.00  0.00    +0.000 C 
BRANCH  17  19
ATOM     19  O   UNL     1       2.767 -30.598  -9.772  0.00  0.00    +0.000 OA
ATOM     20  H   UNL     1       3.739 -30.579  -9.681  0.00  0.00    +0.000 HD
ENDBRANCH  17  19
BRANCH  17  21
ATOM     21  C   UNL     1       2.112 -30.434 -11.989  0.00  0.00    +0.000 C 
BRANCH  21  22
ATOM     22  S   UNL     1       1.819 -29.351 -13.299  0.00  0.00    +0.000 S 
ATOM     23  O   UNL     1       0.555 -28.828 -12.845  0.00  0.00    +0.000 OA
ATOM     24  O   UNL     1       1.999 -30.316 -14.357  0.00  0.00    +0.000 OA
BRANCH  22  25
ATOM     25  C   UNL     1       3.051 -28.134 -13.320  0.00  0.00    +0.000 A 
ATOM     26  C   UNL     1       3.883 -28.025 -12.211  0.00  0.00    +0.000 A 
ATOM     27  C   UNL     1       4.866 -27.040 -12.194  0.00  0.00    +0.000 A 
ATOM     28  C   UNL     1       4.993 -26.182 -13.283  0.00  0.00    +0.000 A 
ATOM     29  F   UNL     1       5.940 -25.233 -13.267  0.00  0.00    +0.000 F 
ATOM     30  C   UNL     1       4.153 -26.290 -14.388  0.00  0.00    +0.000 A 
ATOM     31  C   UNL     1       3.170 -27.274 -14.407  0.00  0.00    +0.000 A 
ENDBRANCH  22  25
ENDBRANCH  21  22
ENDBRANCH  17  21
ENDBRANCH   2  17
TORSDOF 8
ENDMDL
