MODEL 1
REMARK VINA RESULT:      -5.0      0.000      0.000
REMARK  Name = Bisphenol_A.pdbqt.pdb
REMARK  4 active torsions:
REMARK  status: ('A' for Active; 'I' for Inactive)
REMARK    1  A    between atoms: C_1  and  C_4
REMARK    2  A    between atoms: C_1  and  C_12
REMARK    3  A    between atoms: C_7  and  O_10
REMARK    4  A    between atoms: C_15  and  O_18
REMARK                            x       y       z     vdW  Elec       q    Type
REMARK                         _______ _______ _______ _____ _____    ______ ____
ROOT
ATOM      1  C   UNL     1      -3.535 -34.686  -8.342  0.00  0.00    +0.000 C 
ATOM      2  C   UNL     1      -3.953 -36.134  -8.782  0.00  0.00    +0.000 C 
ATOM      3  C   UNL     1      -4.714 -33.711  -8.695  0.00  0.00    +0.000 C 
ENDROOT
BRANCH   1   4
ATOM      4  C   UNL     1      -3.275 -34.740  -6.829  0.00  0.00    +0.000 A 
ATOM      5  C   UNL     1      -2.881 -35.948  -6.227  0.00  0.00    +0.000 A 
ATOM      6  C   UNL     1      -2.654 -36.037  -4.855  0.00  0.00    +0.000 A 
ATOM      7  C   UNL     1      -2.825 -34.907  -4.064  0.00  0.00    +0.000 A 
ATOM      8  C   UNL     1      -3.221 -33.699  -4.624  0.00  0.00    +0.000 A 
ATOM      9  C   UNL     1      -3.447 -33.624  -5.997  0.00  0.00    +0.000 A 
BRANCH   7  10
ATOM     10  O   UNL     1      -2.607 -34.957  -2.719  0.00  0.00    +0.000 OA
ATOM     11  H   UNL     1      -3.191 -34.311  -2.286  0.00  0.00    +0.000 HD
ENDBRANCH   7  10
ENDBRANCH   1   4
BRANCH   1  12
ATOM     12  C   UNL     1      -2.302 -34.189  -9.110  0.00  0.00    +0.000 A 
ATOM     13  C   UNL     1      -2.211 -32.839  -9.495  0.00  0.00    +0.000 A 
ATOM     14  C   UNL     1      -1.115 -32.359 -10.207  0.00  0.00    +0.000 A 
ATOM     15  C   UNL     1      -0.091 -33.234 -10.550  0.00  0.00    +0.000 A 
ATOM     16  C   UNL     1      -0.151 -34.575 -10.192  0.00  0.00    +0.000 A 
ATOM     17  C   UNL     1      -1.254 -35.044  -9.482  0.00  0.00    +0.000 A 
BRANCH  15  18
ATOM     18  O   UNL     1       0.999 -32.796 -11.242  0.00  0.00    +0.000 OA
ATOM     19  H   UNL     1       1.257 -33.484 -11.881  0.00  0.00    +0.000 HD
ENDBRANCH  15  18
ENDBRANCH   1  12
TORSDOF 4
ENDMDL
MODEL 2
REMARK VINA RESULT:      -4.9      0.512      5.493
REMARK  Name = Bisphenol_A.pdbqt.pdb
REMARK  4 active torsions:
REMARK  status: ('A' for Active; 'I' for Inactive)
REMARK    1  A    between atoms: C_1  and  C_4
REMARK    2  A    between atoms: C_1  and  C_12
REMARK    3  A    between atoms: C_7  and  O_10
REMARK    4  A    between atoms: C_15  and  O_18
REMARK                            x       y       z     vdW  Elec       q    Type
REMARK                         _______ _______ _______ _____ _____    ______ ____
ROOT
ATOM      1  C   UNL     1      -3.972 -34.517  -7.961  0.00  0.00    +0.000 C 
ATOM      2  C   UNL     1      -5.096 -33.435  -8.135  0.00  0.00    +0.000 C 
ATOM      3  C   UNL     1      -4.538 -35.893  -8.461  0.00  0.00    +0.000 C 
ENDROOT
BRANCH   1   4
ATOM      4  C   UNL     1      -2.775 -34.054  -8.804  0.00  0.00    +0.000 A 
ATOM      5  C   UNL     1      -1.806 -34.985  -9.219  0.00  0.00    +0.000 A 
ATOM      6  C   UNL     1      -0.699 -34.597  -9.970  0.00  0.00    +0.000 A 
ATOM      7  C   UNL     1      -0.545 -33.259 -10.311  0.00  0.00    +0.000 A 
ATOM      8  C   UNL     1      -1.478 -32.310  -9.912  0.00  0.00    +0.000 A 
ATOM      9  C   UNL     1      -2.580 -32.711  -9.159  0.00  0.00    +0.000 A 
BRANCH   7  10
ATOM     10  O   UNL     1       0.525 -32.845 -11.049  0.00  0.00    +0.000 OA
ATOM     11  H   UNL     1       1.059 -32.238 -10.507  0.00  0.00    +0.000 HD
ENDBRANCH   7  10
ENDBRANCH   1   4
BRANCH   1  12
ATOM     12  C   UNL     1      -3.585 -34.705  -6.487  0.00  0.00    +0.000 A 
ATOM     13  C   UNL     1      -3.532 -33.593  -5.626  0.00  0.00    +0.000 A 
ATOM     14  C   UNL     1      -3.168 -33.726  -4.289  0.00  0.00    +0.000 A 
ATOM     15  C   UNL     1      -2.845 -34.984  -3.794  0.00  0.00    +0.000 A 
ATOM     16  C   UNL     1      -2.880 -36.103  -4.617  0.00  0.00    +0.000 A 
ATOM     17  C   UNL     1      -3.243 -35.957  -5.954  0.00  0.00    +0.000 A 
BRANCH  15  18
ATOM     18  O   UNL     1      -2.490 -35.151  -2.488  0.00  0.00    +0.000 OA
ATOM     19  H   UNL     1      -2.206 -36.073  -2.359  0.00  0.00    +0.000 HD
ENDBRANCH  15  18
ENDBRANCH   1  12
TORSDOF 4
ENDMDL
MODEL 3
REMARK VINA RESULT:      -4.8     19.744     21.535
REMARK  Name = Bisphenol_A.pdbqt.pdb
REMARK  4 active torsions:
REMARK  status: ('A' for Active; 'I' for Inactive)
REMARK    1  A    between atoms: C_1  and  C_4
REMARK    2  A    between atoms: C_1  and  C_12
REMARK    3  A    between atoms: C_7  and  O_10
REMARK    4  A    between atoms: C_15  and  O_18
REMARK                            x       y       z     vdW  Elec       q    Type
REMARK                         _______ _______ _______ _____ _____    ______ ____
ROOT
ATOM      1  C   UNL     1     -12.403 -16.091   1.074  0.00  0.00    +0.000 C 
ATOM      2  C   UNL     1     -13.550 -15.858   2.120  0.00  0.00    +0.000 C 
ATOM      3  C   UNL     1     -12.086 -14.716   0.385  0.00  0.00    +0.000 C 
ENDROOT
BRANCH   1   4
ATOM      4  C   UNL     1     -11.193 -16.630   1.853  0.00  0.00    +0.000 A 
ATOM      5  C   UNL     1     -11.391 -17.368   3.034  0.00  0.00    +0.000 A 
ATOM      6  C   UNL     1     -10.316 -17.856   3.775  0.00  0.00    +0.000 A 
ATOM      7  C   UNL     1      -9.021 -17.602   3.341  0.00  0.00    +0.000 A 
ATOM      8  C   UNL     1      -8.789 -16.869   2.183  0.00  0.00    +0.000 A 
ATOM      9  C   UNL     1      -9.872 -16.385   1.452  0.00  0.00    +0.000 A 
BRANCH   7  10
ATOM     10  O   UNL     1      -7.947 -18.068   4.039  0.00  0.00    +0.000 OA
ATOM     11  H   UNL     1      -7.895 -19.032   3.922  0.00  0.00    +0.000 HD
ENDBRANCH   7  10
ENDBRANCH   1   4
BRANCH   1  12
ATOM     12  C   UNL     1     -12.833 -17.057  -0.039  0.00  0.00    +0.000 A 
ATOM     13  C   UNL     1     -13.781 -16.650  -0.996  0.00  0.00    +0.000 A 
ATOM     14  C   UNL     1     -14.206 -17.506  -2.008  0.00  0.00    +0.000 A 
ATOM     15  C   UNL     1     -13.686 -18.794  -2.072  0.00  0.00    +0.000 A 
ATOM     16  C   UNL     1     -12.754 -19.232  -1.140  0.00  0.00    +0.000 A 
ATOM     17  C   UNL     1     -12.338 -18.367  -0.130  0.00  0.00    +0.000 A 
BRANCH  15  18
ATOM     18  O   UNL     1     -14.076 -19.656  -3.053  0.00  0.00    +0.000 OA
ATOM     19  H   UNL     1     -13.333 -20.251  -3.256  0.00  0.00    +0.000 HD
ENDBRANCH  15  18
ENDBRANCH   1  12
TORSDOF 4
ENDMDL
MODEL 4
REMARK VINA RESULT:      -4.7      3.584      8.009
REMARK  Name = Bisphenol_A.pdbqt.pdb
REMARK  4 active torsions:
REMARK  status: ('A' for Active; 'I' for Inactive)
REMARK    1  A    between atoms: C_1  and  C_4
REMARK    2  A    between atoms: C_1  and  C_12
REMARK    3  A    between atoms: C_7  and  O_10
REMARK    4  A    between atoms: C_15  and  O_18
REMARK                            x       y       z     vdW  Elec       q    Type
REMARK                         _______ _______ _______ _____ _____    ______ ____
ROOT
ATOM      1  C   UNL     1      -2.354 -37.806  -3.019  0.00  0.00    +0.000 C 
ATOM      2  C   UNL     1      -3.393 -38.883  -3.493  0.00  0.00    +0.000 C 
ATOM      3  C   UNL     1      -0.914 -38.407  -3.193  0.00  0.00    +0.000 C 
ENDROOT
BRANCH   1   4
ATOM      4  C   UNL     1      -2.564 -36.567  -3.903  0.00  0.00    +0.000 A 
ATOM      5  C   UNL     1      -2.623 -36.705  -5.302  0.00  0.00    +0.000 A 
ATOM      6  C   UNL     1      -2.794 -35.601  -6.134  0.00  0.00    +0.000 A 
ATOM      7  C   UNL     1      -2.902 -34.335  -5.571  0.00  0.00    +0.000 A 
ATOM      8  C   UNL     1      -2.840 -34.161  -4.194  0.00  0.00    +0.000 A 
ATOM      9  C   UNL     1      -2.666 -35.273  -3.372  0.00  0.00    +0.000 A 
BRANCH   7  10
ATOM     10  O   UNL     1      -3.075 -33.234  -6.356  0.00  0.00    +0.000 OA
ATOM     11  H   UNL     1      -2.591 -32.490  -5.956  0.00  0.00    +0.000 HD
ENDBRANCH   7  10
ENDBRANCH   1   4
BRANCH   1  12
ATOM     12  C   UNL     1      -2.519 -37.471  -1.530  0.00  0.00    +0.000 A 
ATOM     13  C   UNL     1      -1.386 -37.370  -0.702  0.00  0.00    +0.000 A 
ATOM     14  C   UNL     1      -1.500 -37.085   0.656  0.00  0.00    +0.000 A 
ATOM     15  C   UNL     1      -2.762 -36.901   1.207  0.00  0.00    +0.000 A 
ATOM     16  C   UNL     1      -3.904 -37.000   0.422  0.00  0.00    +0.000 A 
ATOM     17  C   UNL     1      -3.777 -37.289  -0.936  0.00  0.00    +0.000 A 
BRANCH  15  18
ATOM     18  O   UNL     1      -2.911 -36.615   2.532  0.00  0.00    +0.000 OA
ATOM     19  H   UNL     1      -3.851 -36.705   2.765  0.00  0.00    +0.000 HD
ENDBRANCH  15  18
ENDBRANCH   1  12
TORSDOF 4
ENDMDL
MODEL 5
REMARK VINA RESULT:      -4.6      4.381      7.736
REMARK  Name = Bisphenol_A.pdbqt.pdb
REMARK  4 active torsions:
REMARK  status: ('A' for Active; 'I' for Inactive)
REMARK    1  A    between atoms: C_1  and  C_4
REMARK    2  A    between atoms: C_1  and  C_12
REMARK    3  A    between atoms: C_7  and  O_10
REMARK    4  A    between atoms: C_15  and  O_18
REMARK                            x       y       z     vdW  Elec       q    Type
REMARK                         _______ _______ _______ _____ _____    ______ ____
ROOT
ATOM      1  C   UNL     1      -6.137 -35.200  -3.856  0.00  0.00    +0.000 C 
ATOM      2  C   UNL     1      -6.870 -36.374  -4.597  0.00  0.00    +0.000 C 
ATOM      3  C   UNL     1      -5.251 -35.821  -2.718  0.00  0.00    +0.000 C 
ENDROOT
BRANCH   1   4
ATOM      4  C   UNL     1      -5.287 -34.472  -4.907  0.00  0.00    +0.000 A 
ATOM      5  C   UNL     1      -3.885 -34.593  -4.882  0.00  0.00    +0.000 A 
ATOM      6  C   UNL     1      -3.082 -33.932  -5.810  0.00  0.00    +0.000 A 
ATOM      7  C   UNL     1      -3.678 -33.132  -6.776  0.00  0.00    +0.000 A 
ATOM      8  C   UNL     1      -5.059 -32.983  -6.826  0.00  0.00    +0.000 A 
ATOM      9  C   UNL     1      -5.851 -33.647  -5.891  0.00  0.00    +0.000 A 
BRANCH   7  10
ATOM     10  O   UNL     1      -2.923 -32.474  -7.701  0.00  0.00    +0.000 OA
ATOM     11  H   UNL     1      -2.929 -32.987  -8.528  0.00  0.00    +0.000 HD
ENDBRANCH   7  10
ENDBRANCH   1   4
BRANCH   1  12
ATOM     12  C   UNL     1      -7.131 -34.248  -3.175  0.00  0.00    +0.000 A 
ATOM     13  C   UNL     1      -8.511 -34.387  -3.408  0.00  0.00    +0.000 A 
ATOM     14  C   UNL     1      -9.438 -33.530  -2.821  0.00  0.00    +0.000 A 
ATOM     15  C   UNL     1      -8.989 -32.511  -1.990  0.00  0.00    +0.000 A 
ATOM     16  C   UNL     1      -7.632 -32.339  -1.742  0.00  0.00    +0.000 A 
ATOM     17  C   UNL     1      -6.715 -33.202  -2.338  0.00  0.00    +0.000 A 
BRANCH  15  18
ATOM     18  O   UNL     1      -9.869 -31.657  -1.394  0.00  0.00    +0.000 OA
ATOM     19  H   UNL     1      -9.440 -31.265  -0.613  0.00  0.00    +0.000 HD
ENDBRANCH  15  18
ENDBRANCH   1  12
TORSDOF 4
ENDMDL
MODEL 6
REMARK VINA RESULT:      -4.6      4.479      6.009
REMARK  Name = Bisphenol_A.pdbqt.pdb
REMARK  4 active torsions:
REMARK  status: ('A' for Active; 'I' for Inactive)
REMARK    1  A    between atoms: C_1  and  C_4
REMARK    2  A    between atoms: C_1  and  C_12
REMARK    3  A    between atoms: C_7  and  O_10
REMARK    4  A    between atoms: C_15  and  O_18
REMARK                            x       y       z     vdW  Elec       q    Type
REMARK                         _______ _______ _______ _____ _____    ______ ____
ROOT
ATOM      1  C   UNL     1      -6.286 -35.087  -3.791  0.00  0.00    +0.000 C 
ATOM      2  C   UNL     1      -5.461 -35.767  -2.642  0.00  0.00    +0.000 C 
ATOM      3  C   UNL     1      -7.042 -36.214  -4.580  0.00  0.00    +0.000 C 
ENDROOT
BRANCH   1   4
ATOM      4  C   UNL     1      -7.263 -34.110  -3.118  0.00  0.00    +0.000 A 
ATOM      5  C   UNL     1      -6.772 -33.087  -2.287  0.00  0.00    +0.000 A 
ATOM      6  C   UNL     1      -7.630 -32.196  -1.647  0.00  0.00    +0.000 A 
ATOM      7  C   UNL     1      -9.002 -32.323  -1.830  0.00  0.00    +0.000 A 
ATOM      8  C   UNL     1      -9.522 -33.327  -2.638  0.00  0.00    +0.000 A 
ATOM      9  C   UNL     1      -8.653 -34.214  -3.270  0.00  0.00    +0.000 A 
BRANCH   7  10
ATOM     10  O   UNL     1      -9.870 -31.465  -1.222  0.00  0.00    +0.000 OA
ATOM     11  H   UNL     1     -10.235 -30.866  -1.896  0.00  0.00    +0.000 HD
ENDBRANCH   7  10
ENDBRANCH   1   4
BRANCH   1  12
ATOM     12  C   UNL     1      -5.377 -34.371  -4.800  0.00  0.00    +0.000 A 
ATOM     13  C   UNL     1      -5.943 -33.667  -5.879  0.00  0.00    +0.000 A 
ATOM     14  C   UNL     1      -5.147 -33.021  -6.822  0.00  0.00    +0.000 A 
ATOM     15  C   UNL     1      -3.764 -33.077  -6.698  0.00  0.00    +0.000 A 
ATOM     16  C   UNL     1      -3.172 -33.769  -5.648  0.00  0.00    +0.000 A 
ATOM     17  C   UNL     1      -3.978 -34.414  -4.713  0.00  0.00    +0.000 A 
BRANCH  15  18
ATOM     18  O   UNL     1      -2.956 -32.452  -7.600  0.00  0.00    +0.000 OA
ATOM     19  H   UNL     1      -3.215 -32.733  -8.495  0.00  0.00    +0.000 HD
ENDBRANCH  15  18
ENDBRANCH   1  12
TORSDOF 4
ENDMDL
MODEL 7
REMARK VINA RESULT:      -4.5     15.874     18.542
REMARK  Name = Bisphenol_A.pdbqt.pdb
REMARK  4 active torsions:
REMARK  status: ('A' for Active; 'I' for Inactive)
REMARK    1  A    between atoms: C_1  and  C_4
REMARK    2  A    between atoms: C_1  and  C_12
REMARK    3  A    between atoms: C_7  and  O_10
REMARK    4  A    between atoms: C_15  and  O_18
REMARK                            x       y       z     vdW  Elec       q    Type
REMARK                         _______ _______ _______ _____ _____    ______ ____
ROOT
ATOM      1  C   UNL     1      -0.788 -17.893 -15.378  0.00  0.00    +0.000 C 
ATOM      2  C   UNL     1       0.235 -17.319 -16.421  0.00  0.00    +0.000 C 
ATOM      3  C   UNL     1      -1.499 -19.135 -16.024  0.00  0.00    +0.000 C 
ENDROOT
BRANCH   1   4
ATOM      4  C   UNL     1       0.020 -18.284 -14.132  0.00  0.00    +0.000 A 
ATOM      5  C   UNL     1       0.396 -19.625 -13.932  0.00  0.00    +0.000 A 
ATOM      6  C   UNL     1       1.113 -20.018 -12.804  0.00  0.00    +0.000 A 
ATOM      7  C   UNL     1       1.460 -19.066 -11.853  0.00  0.00    +0.000 A 
ATOM      8  C   UNL     1       1.098 -17.734 -12.014  0.00  0.00    +0.000 A 
ATOM      9  C   UNL     1       0.378 -17.354 -13.145  0.00  0.00    +0.000 A 
BRANCH   7  10
ATOM     10  O   UNL     1       2.165 -19.415 -10.740  0.00  0.00    +0.000 OA
ATOM     11  H   UNL     1       2.417 -18.605 -10.265  0.00  0.00    +0.000 HD
ENDBRANCH   7  10
ENDBRANCH   1   4
BRANCH   1  12
ATOM     12  C   UNL     1      -1.889 -16.877 -15.041  0.00  0.00    +0.000 A 
ATOM     13  C   UNL     1      -1.761 -15.538 -15.454  0.00  0.00    +0.000 A 
ATOM     14  C   UNL     1      -2.732 -14.588 -15.150  0.00  0.00    +0.000 A 
ATOM     15  C   UNL     1      -3.851 -14.969 -14.418  0.00  0.00    +0.000 A 
ATOM     16  C   UNL     1      -4.007 -16.281 -13.989  0.00  0.00    +0.000 A 
ATOM     17  C   UNL     1      -3.027 -17.222 -14.296  0.00  0.00    +0.000 A 
BRANCH  15  18
ATOM     18  O   UNL     1      -4.824 -14.065 -14.108  0.00  0.00    +0.000 OA
ATOM     19  H   UNL     1      -5.649 -14.548 -13.928  0.00  0.00    +0.000 HD
ENDBRANCH  15  18
ENDBRANCH   1  12
TORSDOF 4
ENDMDL
MODEL 8
REMARK VINA RESULT:      -4.5     21.306     23.575
REMARK  Name = Bisphenol_A.pdbqt.pdb
REMARK  4 active torsions:
REMARK  status: ('A' for Active; 'I' for Inactive)
REMARK    1  A    between atoms: C_1  and  C_4
REMARK    2  A    between atoms: C_1  and  C_12
REMARK    3  A    between atoms: C_7  and  O_10
REMARK    4  A    between atoms: C_15  and  O_18
REMARK                            x       y       z     vdW  Elec       q    Type
REMARK                         _______ _______ _______ _____ _____    ______ ____
ROOT
ATOM      1  C   UNL     1     -12.675 -16.142   0.933  0.00  0.00    +0.000 C 
ATOM      2  C   UNL     1     -11.631 -16.921   1.808  0.00  0.00    +0.000 C 
ATOM      3  C   UNL     1     -11.968 -14.866   0.352  0.00  0.00    +0.000 C 
ENDROOT
BRANCH   1   4
ATOM      4  C   UNL     1     -13.124 -17.100  -0.181  0.00  0.00    +0.000 A 
ATOM      5  C   UNL     1     -12.501 -18.353  -0.323  0.00  0.00    +0.000 A 
ATOM      6  C   UNL     1     -12.871 -19.239  -1.333  0.00  0.00    +0.000 A 
ATOM      7  C   UNL     1     -13.873 -18.873  -2.223  0.00  0.00    +0.000 A 
ATOM      8  C   UNL     1     -14.504 -17.640  -2.118  0.00  0.00    +0.000 A 
ATOM      9  C   UNL     1     -14.123 -16.762  -1.105  0.00  0.00    +0.000 A 
BRANCH   7  10
ATOM     10  O   UNL     1     -14.262 -19.717  -3.220  0.00  0.00    +0.000 OA
ATOM     11  H   UNL     1     -14.439 -19.192  -4.020  0.00  0.00    +0.000 HD
ENDBRANCH   7  10
ENDBRANCH   1   4
BRANCH   1  12
ATOM     12  C   UNL     1     -13.865 -15.649   1.767  0.00  0.00    +0.000 A 
ATOM     13  C   UNL     1     -14.540 -16.538   2.624  0.00  0.00    +0.000 A 
ATOM     14  C   UNL     1     -15.634 -16.129   3.382  0.00  0.00    +0.000 A 
ATOM     15  C   UNL     1     -16.072 -14.813   3.286  0.00  0.00    +0.000 A 
ATOM     16  C   UNL     1     -15.434 -13.909   2.446  0.00  0.00    +0.000 A 
ATOM     17  C   UNL     1     -14.342 -14.332   1.690  0.00  0.00    +0.000 A 
BRANCH  15  18
ATOM     18  O   UNL     1     -17.137 -14.377   4.019  0.00  0.00    +0.000 OA
ATOM     19  H   UNL     1     -17.917 -14.906   3.776  0.00  0.00    +0.000 HD
ENDBRANCH  15  18
ENDBRANCH   1  12
TORSDOF 4
ENDMDL
MODEL 9
REMARK VINA RESULT:      -4.5      2.748      5.885
REMARK  Name = Bisphenol_A.pdbqt.pdb
REMARK  4 active torsions:
REMARK  status: ('A' for Active; 'I' for Inactive)
REMARK    1  A    between atoms: C_1  and  C_4
REMARK    2  A    between atoms: C_1  and  C_12
REMARK    3  A    between atoms: C_7  and  O_10
REMARK    4  A    between atoms: C_15  and  O_18
REMARK                            x       y       z     vdW  Elec       q    Type
REMARK                         _______ _______ _______ _____ _____    ______ ____
ROOT
ATOM      1  C   UNL     1      -3.938 -36.660  -6.357  0.00  0.00    +0.000 C 
ATOM      2  C   UNL     1      -5.462 -37.024  -6.256  0.00  0.00    +0.000 C 
ATOM      3  C   UNL     1      -3.305 -37.531  -7.500  0.00  0.00    +0.000 C 
ENDROOT
BRANCH   1   4
ATOM      4  C   UNL     1      -3.859 -35.160  -6.675  0.00  0.00    +0.000 A 
ATOM      5  C   UNL     1      -4.802 -34.274  -6.123  0.00  0.00    +0.000 A 
ATOM      6  C   UNL     1      -4.771 -32.910  -6.404  0.00  0.00    +0.000 A 
ATOM      7  C   UNL     1      -3.790 -32.415  -7.254  0.00  0.00    +0.000 A 
ATOM      8  C   UNL     1      -2.847 -33.261  -7.824  0.00  0.00    +0.000 A 
ATOM      9  C   UNL     1      -2.891 -34.624  -7.537  0.00  0.00    +0.000 A 
BRANCH   7  10
ATOM     10  O   UNL     1      -3.727 -31.084  -7.548  0.00  0.00    +0.000 OA
ATOM     11  H   UNL     1      -4.510 -30.846  -8.074  0.00  0.00    +0.000 HD
ENDBRANCH   7  10
ENDBRANCH   1   4
BRANCH   1  12
ATOM     12  C   UNL     1      -3.183 -37.005  -5.066  0.00  0.00    +0.000 A 
ATOM     13  C   UNL     1      -1.905 -37.591  -5.134  0.00  0.00    +0.000 A 
ATOM     14  C   UNL     1      -1.200 -37.931  -3.982  0.00  0.00    +0.000 A 
ATOM     15  C   UNL     1      -1.772 -37.691  -2.739  0.00  0.00    +0.000 A 
ATOM     16  C   UNL     1      -3.034 -37.120  -2.634  0.00  0.00    +0.000 A 
ATOM     17  C   UNL     1      -3.732 -36.786  -3.794  0.00  0.00    +0.000 A 
BRANCH  15  18
ATOM     18  O   UNL     1      -1.107 -38.007  -1.591  0.00  0.00    +0.000 OA
ATOM     19  H   UNL     1      -1.437 -38.864  -1.268  0.00  0.00    +0.000 HD
ENDBRANCH  15  18
ENDBRANCH   1  12
TORSDOF 4
ENDMDL
