MODEL 1
REMARK VINA RESULT:      -2.7      0.000      0.000
REMARK  Name = CadmiumAcetate.pdbqt.pdb
REMARK  1 active torsions:
REMARK  status: ('A' for Active; 'I' for Inactive)
REMARK    1  A    between atoms: C_3  and  O_4
REMARK                            x       y       z     vdW  Elec       q    Type
REMARK                         _______ _______ _______ _____ _____    ______ ____
ROOT
ATOM      1  O   UNL     1      -4.732 -32.336  -6.649  0.00  0.00    +0.000 OA
ATOM      2  C   UNL     1      -4.513 -32.658  -8.915  0.00  0.00    +0.000 C 
ATOM      3  C   UNL     1      -4.239 -31.911  -7.673  0.00  0.00    +0.000 C 
ENDROOT
BRANCH   3   4
ATOM      4  O   UNL     1      -3.468 -30.832  -7.795  0.00  0.00    +0.000 OA
ATOM      5  H   UNL     1      -3.789 -30.433  -8.625  0.00  0.00    +0.000 HD
ENDBRANCH   3   4
TORSDOF 1
ENDMDL
MODEL 2
REMARK VINA RESULT:      -2.3     27.694     27.964
REMARK  Name = CadmiumAcetate.pdbqt.pdb
REMARK  1 active torsions:
REMARK  status: ('A' for Active; 'I' for Inactive)
REMARK    1  A    between atoms: C_3  and  O_4
REMARK                            x       y       z     vdW  Elec       q    Type
REMARK                         _______ _______ _______ _____ _____    ______ ____
ROOT
ATOM      1  O   UNL     1     -15.256  -5.888  -4.909  0.00  0.00    +0.000 OA
ATOM      2  C   UNL     1     -12.969  -5.851  -4.674  0.00  0.00    +0.000 C 
ATOM      3  C   UNL     1     -14.326  -6.136  -4.170  0.00  0.00    +0.000 C 
ENDROOT
BRANCH   3   4
ATOM      4  O   UNL     1     -14.401  -6.645  -2.941  0.00  0.00    +0.000 OA
ATOM      5  H   UNL     1     -15.362  -6.664  -2.777  0.00  0.00    +0.000 HD
ENDBRANCH   3   4
TORSDOF 1
ENDMDL
MODEL 3
REMARK VINA RESULT:      -2.1     17.176     17.408
REMARK  Name = CadmiumAcetate.pdbqt.pdb
REMARK  1 active torsions:
REMARK  status: ('A' for Active; 'I' for Inactive)
REMARK    1  A    between atoms: C_3  and  O_4
REMARK                            x       y       z     vdW  Elec       q    Type
REMARK                         _______ _______ _______ _____ _____    ______ ____
ROOT
ATOM      1  O   UNL     1     -15.332 -18.147  -2.166  0.00  0.00    +0.000 OA
ATOM      2  C   UNL     1     -13.122 -18.749  -1.968  0.00  0.00    +0.000 C 
ATOM      3  C   UNL     1     -14.479 -18.935  -2.517  0.00  0.00    +0.000 C 
ENDROOT
BRANCH   3   4
ATOM      4  O   UNL     1     -14.638 -19.960  -3.352  0.00  0.00    +0.000 OA
ATOM      5  H   UNL     1     -13.725 -20.278  -3.475  0.00  0.00    +0.000 HD
ENDBRANCH   3   4
TORSDOF 1
ENDMDL
MODEL 4
REMARK VINA RESULT:      -2.1     18.199     18.318
REMARK  Name = CadmiumAcetate.pdbqt.pdb
REMARK  1 active torsions:
REMARK  status: ('A' for Active; 'I' for Inactive)
REMARK    1  A    between atoms: C_3  and  O_4
REMARK                            x       y       z     vdW  Elec       q    Type
REMARK                         _______ _______ _______ _____ _____    ______ ____
ROOT
ATOM      1  O   UNL     1     -17.265 -18.063  -7.878  0.00  0.00    +0.000 OA
ATOM      2  C   UNL     1     -18.024 -19.114  -9.777  0.00  0.00    +0.000 C 
ATOM      3  C   UNL     1     -17.078 -18.978  -8.652  0.00  0.00    +0.000 C 
ENDROOT
BRANCH   3   4
ATOM      4  O   UNL     1     -16.102 -19.882  -8.594  0.00  0.00    +0.000 OA
ATOM      5  H   UNL     1     -15.931 -19.949  -7.637  0.00  0.00    +0.000 HD
ENDBRANCH   3   4
TORSDOF 1
ENDMDL
MODEL 5
REMARK VINA RESULT:      -2.0     10.391     10.803
REMARK  Name = CadmiumAcetate.pdbqt.pdb
REMARK  1 active torsions:
REMARK  status: ('A' for Active; 'I' for Inactive)
REMARK    1  A    between atoms: C_3  and  O_4
REMARK                            x       y       z     vdW  Elec       q    Type
REMARK                         _______ _______ _______ _____ _____    ______ ____
ROOT
ATOM      1  O   UNL     1     -10.392 -28.504 -17.208  0.00  0.00    +0.000 OA
ATOM      2  C   UNL     1      -8.504 -29.081 -16.030  0.00  0.00    +0.000 C 
ATOM      3  C   UNL     1      -9.925 -29.260 -16.382  0.00  0.00    +0.000 C 
ENDROOT
BRANCH   3   4
ATOM      4  O   UNL     1     -10.565 -30.245 -15.753  0.00  0.00    +0.000 OA
ATOM      5  H   UNL     1     -10.419 -31.006 -16.345  0.00  0.00    +0.000 HD
ENDBRANCH   3   4
TORSDOF 1
ENDMDL
MODEL 6
REMARK VINA RESULT:      -2.0     17.250     17.826
REMARK  Name = CadmiumAcetate.pdbqt.pdb
REMARK  1 active torsions:
REMARK  status: ('A' for Active; 'I' for Inactive)
REMARK    1  A    between atoms: C_3  and  O_4
REMARK                            x       y       z     vdW  Elec       q    Type
REMARK                         _______ _______ _______ _____ _____    ______ ____
ROOT
ATOM      1  O   UNL     1      -1.243 -13.692  -6.353  0.00  0.00    +0.000 OA
ATOM      2  C   UNL     1      -1.483 -14.572  -4.243  0.00  0.00    +0.000 C 
ATOM      3  C   UNL     1      -1.811 -14.527  -5.680  0.00  0.00    +0.000 C 
ENDROOT
BRANCH   3   4
ATOM      4  O   UNL     1      -2.707 -15.417  -6.106  0.00  0.00    +0.000 OA
ATOM      5  H   UNL     1      -2.988 -15.042  -6.961  0.00  0.00    +0.000 HD
ENDBRANCH   3   4
TORSDOF 1
ENDMDL
MODEL 7
REMARK VINA RESULT:      -2.0      9.042      9.459
REMARK  Name = CadmiumAcetate.pdbqt.pdb
REMARK  1 active torsions:
REMARK  status: ('A' for Active; 'I' for Inactive)
REMARK    1  A    between atoms: C_3  and  O_4
REMARK                            x       y       z     vdW  Elec       q    Type
REMARK                         _______ _______ _______ _____ _____    ______ ____
ROOT
ATOM      1  O   UNL     1       5.754 -32.223  -6.022  0.00  0.00    +0.000 OA
ATOM      2  C   UNL     1       4.131 -30.799  -6.812  0.00  0.00    +0.000 C 
ATOM      3  C   UNL     1       4.924 -31.392  -5.718  0.00  0.00    +0.000 C 
ENDROOT
BRANCH   3   4
ATOM      4  O   UNL     1       4.651 -30.952  -4.491  0.00  0.00    +0.000 OA
ATOM      5  H   UNL     1       4.166 -30.124  -4.664  0.00  0.00    +0.000 HD
ENDBRANCH   3   4
TORSDOF 1
ENDMDL
MODEL 8
REMARK VINA RESULT:      -2.0     13.571     14.282
REMARK  Name = CadmiumAcetate.pdbqt.pdb
REMARK  1 active torsions:
REMARK  status: ('A' for Active; 'I' for Inactive)
REMARK    1  A    between atoms: C_3  and  O_4
REMARK                            x       y       z     vdW  Elec       q    Type
REMARK                         _______ _______ _______ _____ _____    ______ ____
ROOT
ATOM      1  O   UNL     1       0.487 -18.823 -12.808  0.00  0.00    +0.000 OA
ATOM      2  C   UNL     1       2.054 -18.951 -11.131  0.00  0.00    +0.000 C 
ATOM      3  C   UNL     1       0.999 -19.542 -11.976  0.00  0.00    +0.000 C 
ENDROOT
BRANCH   3   4
ATOM      4  O   UNL     1       0.708 -20.820 -11.742  0.00  0.00    +0.000 OA
ATOM      5  H   UNL     1      -0.056 -20.975 -12.327  0.00  0.00    +0.000 HD
ENDBRANCH   3   4
TORSDOF 1
ENDMDL
MODEL 9
REMARK VINA RESULT:      -2.0     18.598     18.754
REMARK  Name = CadmiumAcetate.pdbqt.pdb
REMARK  1 active torsions:
REMARK  status: ('A' for Active; 'I' for Inactive)
REMARK    1  A    between atoms: C_3  and  O_4
REMARK                            x       y       z     vdW  Elec       q    Type
REMARK                         _______ _______ _______ _____ _____    ______ ____
ROOT
ATOM      1  O   UNL     1     -17.825 -18.567 -10.996  0.00  0.00    +0.000 OA
ATOM      2  C   UNL     1     -16.027 -17.164 -10.697  0.00  0.00    +0.000 C 
ATOM      3  C   UNL     1     -16.638 -18.411 -11.195  0.00  0.00    +0.000 C 
ENDROOT
BRANCH   3   4
ATOM      4  O   UNL     1     -15.820 -19.255 -11.822  0.00  0.00    +0.000 OA
ATOM      5  H   UNL     1     -15.181 -19.491 -11.124  0.00  0.00    +0.000 HD
ENDBRANCH   3   4
TORSDOF 1
ENDMDL
