MODEL 1
REMARK VINA RESULT:      -6.3      0.000      0.000
REMARK  Name = Calcitriol.pdbqt.pdb
REMARK  9 active torsions:
REMARK  status: ('A' for Active; 'I' for Inactive)
REMARK    1  A    between atoms: C_2  and  C_24
REMARK    2  A    between atoms: C_7  and  C_11
REMARK    3  A    between atoms: C_12  and  C_13
REMARK    4  A    between atoms: C_16  and  O_20
REMARK    5  A    between atoms: C_18  and  O_22
REMARK    6  A    between atoms: C_24  and  C_26
REMARK    7  A    between atoms: C_27  and  C_28
REMARK    8  A    between atoms: C_28  and  C_29
REMARK    9  A    between atoms: C_29  and  O_32
REMARK                            x       y       z     vdW  Elec       q    Type
REMARK                         _______ _______ _______ _____ _____    ______ ____
ROOT
ATOM      1  C   UNL     1     -14.777 -18.816   0.645  0.00  0.00    +0.000 C 
ATOM      2  C   UNL     1     -13.286 -19.026   0.893  0.00  0.00    +0.000 C 
ATOM      3  C   UNL     1     -14.818 -18.274  -0.886  0.00  0.00    +0.000 C 
ATOM      4  C   UNL     1     -12.563 -18.813  -0.318  0.00  0.00    +0.000 C 
ATOM      5  C   UNL     1     -13.494 -18.380  -1.417  0.00  0.00    +0.000 C 
ATOM      6  C   UNL     1     -15.392 -17.769   1.477  0.00  0.00    +0.000 C 
ATOM      7  C   UNL     1     -15.698 -17.163  -1.268  0.00  0.00    +0.000 C 
ATOM      8  C   UNL     1     -15.540 -20.171   0.659  0.00  0.00    +0.000 C 
ATOM      9  C   UNL     1     -16.213 -16.501   1.328  0.00  0.00    +0.000 C 
ATOM     10  C   UNL     1     -16.249 -16.428  -0.185  0.00  0.00    +0.000 C 
ENDROOT
BRANCH   7  11
ATOM     11  C   UNL     1     -15.875 -16.753  -2.485  0.00  0.00    +0.000 C 
ATOM     12  C   UNL     1     -16.080 -16.255  -3.920  0.00  0.00    +0.000 C 
BRANCH  12  13
ATOM     13  C   UNL     1     -16.247 -15.826  -5.134  0.00  0.00    +0.000 A 
ATOM     14  C   UNL     1     -15.540 -14.663  -5.579  0.00  0.00    +0.000 A 
ATOM     15  C   UNL     1     -17.177 -16.391  -6.164  0.00  0.00    +0.000 A 
ATOM     16  C   UNL     1     -15.539 -13.931  -6.801  0.00  0.00    +0.000 A 
ATOM     17  C   UNL     1     -16.464 -14.569  -7.676  0.00  0.00    +0.000 A 
ATOM     18  C   UNL     1     -17.284 -15.720  -7.497  0.00  0.00    +0.000 A 
ATOM     19  C   UNL     1     -17.916 -17.492  -5.933  0.00  0.00    +0.000 C 
BRANCH  16  20
ATOM     20  O   UNL     1     -14.407 -13.323  -7.262  0.00  0.00    +0.000 OA
ATOM     21  H   UNL     1     -13.743 -13.977  -7.537  0.00  0.00    +0.000 HD
ENDBRANCH  16  20
BRANCH  18  22
ATOM     22  O   UNL     1     -18.113 -16.196  -8.484  0.00  0.00    +0.000 OA
ATOM     23  H   UNL     1     -17.586 -16.578  -9.212  0.00  0.00    +0.000 HD
ENDBRANCH  18  22
ENDBRANCH  12  13
ENDBRANCH   7  11
BRANCH   2  24
ATOM     24  C   UNL     1     -12.715 -19.523   2.105  0.00  0.00    +0.000 C 
ATOM     25  C   UNL     1     -11.761 -18.721   2.953  0.00  0.00    +0.000 C 
BRANCH  24  26
ATOM     26  C   UNL     1     -12.870 -20.883   2.486  0.00  0.00    +0.000 C 
ATOM     27  C   UNL     1     -13.038 -22.356   2.881  0.00  0.00    +0.000 C 
BRANCH  27  28
ATOM     28  C   UNL     1     -13.207 -23.832   3.263  0.00  0.00    +0.000 C 
BRANCH  28  29
ATOM     29  C   UNL     1     -13.373 -25.239   3.626  0.00  0.00    +0.000 C 
ATOM     30  C   UNL     1     -14.584 -25.891   2.948  0.00  0.00    +0.000 C 
ATOM     31  C   UNL     1     -12.109 -26.075   3.394  0.00  0.00    +0.000 C 
BRANCH  29  32
ATOM     32  O   UNL     1     -13.626 -25.328   5.011  0.00  0.00    +0.000 OA
ATOM     33  H   UNL     1     -12.946 -24.712   5.320  0.00  0.00    +0.000 HD
ENDBRANCH  29  32
ENDBRANCH  28  29
ENDBRANCH  27  28
ENDBRANCH  24  26
ENDBRANCH   2  24
TORSDOF 9
ENDMDL
MODEL 2
REMARK VINA RESULT:      -6.3     16.310     20.236
REMARK  Name = Calcitriol.pdbqt.pdb
REMARK  9 active torsions:
REMARK  status: ('A' for Active; 'I' for Inactive)
REMARK    1  A    between atoms: C_2  and  C_24
REMARK    2  A    between atoms: C_7  and  C_11
REMARK    3  A    between atoms: C_12  and  C_13
REMARK    4  A    between atoms: C_16  and  O_20
REMARK    5  A    between atoms: C_18  and  O_22
REMARK    6  A    between atoms: C_24  and  C_26
REMARK    7  A    between atoms: C_27  and  C_28
REMARK    8  A    between atoms: C_28  and  C_29
REMARK    9  A    between atoms: C_29  and  O_32
REMARK                            x       y       z     vdW  Elec       q    Type
REMARK                         _______ _______ _______ _____ _____    ______ ____
ROOT
ATOM      1  C   UNL     1      -4.212 -17.508 -16.611  0.00  0.00    +0.000 C 
ATOM      2  C   UNL     1      -4.890 -18.870 -16.732  0.00  0.00    +0.000 C 
ATOM      3  C   UNL     1      -2.926 -17.825 -15.672  0.00  0.00    +0.000 C 
ATOM      4  C   UNL     1      -4.075 -19.868 -16.121  0.00  0.00    +0.000 C 
ATOM      5  C   UNL     1      -2.859 -19.242 -15.494  0.00  0.00    +0.000 C 
ATOM      6  C   UNL     1      -5.008 -16.493 -15.904  0.00  0.00    +0.000 C 
ATOM      7  C   UNL     1      -2.538 -16.909 -14.592  0.00  0.00    +0.000 C 
ATOM      8  C   UNL     1      -3.657 -17.038 -17.986  0.00  0.00    +0.000 C 
ATOM      9  C   UNL     1      -4.890 -15.534 -14.732  0.00  0.00    +0.000 C 
ATOM     10  C   UNL     1      -3.513 -15.936 -14.245  0.00  0.00    +0.000 C 
ENDROOT
BRANCH   7  11
ATOM     11  C   UNL     1      -1.462 -17.029 -13.880  0.00  0.00    +0.000 C 
ATOM     12  C   UNL     1      -0.182 -17.177 -13.049  0.00  0.00    +0.000 C 
BRANCH  12  13
ATOM     13  C   UNL     1       0.907 -17.302 -12.354  0.00  0.00    +0.000 A 
ATOM     14  C   UNL     1       1.728 -16.154 -12.109  0.00  0.00    +0.000 A 
ATOM     15  C   UNL     1       1.471 -18.571 -11.793  0.00  0.00    +0.000 A 
ATOM     16  C   UNL     1       2.972 -15.970 -11.440  0.00  0.00    +0.000 A 
ATOM     17  C   UNL     1       3.391 -17.247 -10.970  0.00  0.00    +0.000 A 
ATOM     18  C   UNL     1       2.780 -18.530 -11.069  0.00  0.00    +0.000 A 
ATOM     19  C   UNL     1       0.835 -19.751 -11.912  0.00  0.00    +0.000 C 
BRANCH  16  20
ATOM     20  O   UNL     1       3.247 -14.821 -10.758  0.00  0.00    +0.000 OA
ATOM     21  H   UNL     1       3.330 -14.988  -9.804  0.00  0.00    +0.000 HD
ENDBRANCH  16  20
BRANCH  18  22
ATOM     22  O   UNL     1       3.344 -19.660 -10.526  0.00  0.00    +0.000 OA
ATOM     23  H   UNL     1       3.963 -20.068 -11.162  0.00  0.00    +0.000 HD
ENDBRANCH  18  22
ENDBRANCH  12  13
ENDBRANCH   7  11
BRANCH   2  24
ATOM     24  C   UNL     1      -6.073 -19.137 -17.487  0.00  0.00    +0.000 C 
ATOM     25  C   UNL     1      -6.107 -20.093 -18.652  0.00  0.00    +0.000 C 
BRANCH  24  26
ATOM     26  C   UNL     1      -7.254 -18.369 -17.297  0.00  0.00    +0.000 C 
ATOM     27  C   UNL     1      -8.525 -17.538 -17.076  0.00  0.00    +0.000 C 
BRANCH  27  28
ATOM     28  C   UNL     1      -9.793 -16.708 -16.842  0.00  0.00    +0.000 C 
BRANCH  28  29
ATOM     29  C   UNL     1     -10.999 -15.912 -16.618  0.00  0.00    +0.000 C 
ATOM     30  C   UNL     1     -10.806 -14.822 -15.557  0.00  0.00    +0.000 C 
ATOM     31  C   UNL     1     -11.576 -15.314 -17.907  0.00  0.00    +0.000 C 
BRANCH  29  32
ATOM     32  O   UNL     1     -12.015 -16.750 -16.113  0.00  0.00    +0.000 OA
ATOM     33  H   UNL     1     -12.425 -16.123 -15.499  0.00  0.00    +0.000 HD
ENDBRANCH  29  32
ENDBRANCH  28  29
ENDBRANCH  27  28
ENDBRANCH  24  26
ENDBRANCH   2  24
TORSDOF 9
ENDMDL
MODEL 3
REMARK VINA RESULT:      -6.2     15.710     20.194
REMARK  Name = Calcitriol.pdbqt.pdb
REMARK  9 active torsions:
REMARK  status: ('A' for Active; 'I' for Inactive)
REMARK    1  A    between atoms: C_2  and  C_24
REMARK    2  A    between atoms: C_7  and  C_11
REMARK    3  A    between atoms: C_12  and  C_13
REMARK    4  A    between atoms: C_16  and  O_20
REMARK    5  A    between atoms: C_18  and  O_22
REMARK    6  A    between atoms: C_24  and  C_26
REMARK    7  A    between atoms: C_27  and  C_28
REMARK    8  A    between atoms: C_28  and  C_29
REMARK    9  A    between atoms: C_29  and  O_32
REMARK                            x       y       z     vdW  Elec       q    Type
REMARK                         _______ _______ _______ _____ _____    ______ ____
ROOT
ATOM      1  C   UNL     1      -4.753 -17.353 -15.999  0.00  0.00    +0.000 C 
ATOM      2  C   UNL     1      -5.559 -16.069 -15.829  0.00  0.00    +0.000 C 
ATOM      3  C   UNL     1      -3.570 -17.188 -14.900  0.00  0.00    +0.000 C 
ATOM      4  C   UNL     1      -5.059 -15.332 -14.714  0.00  0.00    +0.000 C 
ATOM      5  C   UNL     1      -3.861 -16.023 -14.123  0.00  0.00    +0.000 C 
ATOM      6  C   UNL     1      -4.094 -17.490 -17.308  0.00  0.00    +0.000 C 
ATOM      7  C   UNL     1      -2.185 -17.554 -15.223  0.00  0.00    +0.000 C 
ATOM      8  C   UNL     1      -5.588 -18.595 -15.574  0.00  0.00    +0.000 C 
ATOM      9  C   UNL     1      -2.715 -17.736 -17.893  0.00  0.00    +0.000 C 
ATOM     10  C   UNL     1      -1.919 -17.754 -16.604  0.00  0.00    +0.000 C 
ENDROOT
BRANCH   7  11
ATOM     11  C   UNL     1      -1.211 -17.563 -14.368  0.00  0.00    +0.000 C 
ATOM     12  C   UNL     1      -0.050 -17.566 -13.366  0.00  0.00    +0.000 C 
BRANCH  12  13
ATOM     13  C   UNL     1       0.936 -17.561 -12.522  0.00  0.00    +0.000 A 
ATOM     14  C   UNL     1       1.594 -16.328 -12.208  0.00  0.00    +0.000 A 
ATOM     15  C   UNL     1       1.539 -18.751 -11.842  0.00  0.00    +0.000 A 
ATOM     16  C   UNL     1       2.706 -16.000 -11.380  0.00  0.00    +0.000 A 
ATOM     17  C   UNL     1       3.180 -17.215 -10.809  0.00  0.00    +0.000 A 
ATOM     18  C   UNL     1       2.721 -18.557 -10.945  0.00  0.00    +0.000 A 
ATOM     19  C   UNL     1       1.047 -19.993 -12.004  0.00  0.00    +0.000 C 
BRANCH  16  20
ATOM     20  O   UNL     1       2.765 -14.813 -10.710  0.00  0.00    +0.000 OA
ATOM     21  H   UNL     1       2.289 -14.114 -11.189  0.00  0.00    +0.000 HD
ENDBRANCH  16  20
BRANCH  18  22
ATOM     22  O   UNL     1       3.312 -19.609 -10.287  0.00  0.00    +0.000 OA
ATOM     23  H   UNL     1       3.369 -19.421  -9.331  0.00  0.00    +0.000 HD
ENDBRANCH  18  22
ENDBRANCH  12  13
ENDBRANCH   7  11
BRANCH   2  24
ATOM     24  C   UNL     1      -6.738 -15.733 -16.562  0.00  0.00    +0.000 C 
ATOM     25  C   UNL     1      -6.946 -16.117 -18.005  0.00  0.00    +0.000 C 
BRANCH  24  26
ATOM     26  C   UNL     1      -7.711 -14.847 -16.023  0.00  0.00    +0.000 C 
ATOM     27  C   UNL     1      -8.749 -13.882 -15.437  0.00  0.00    +0.000 C 
BRANCH  27  28
ATOM     28  C   UNL     1      -9.777 -12.909 -14.846  0.00  0.00    +0.000 C 
BRANCH  28  29
ATOM     29  C   UNL     1     -10.754 -11.981 -14.278  0.00  0.00    +0.000 C 
ATOM     30  C   UNL     1     -10.636 -10.565 -14.854  0.00  0.00    +0.000 C 
ATOM     31  C   UNL     1     -12.197 -12.487 -14.381  0.00  0.00    +0.000 C 
BRANCH  29  32
ATOM     32  O   UNL     1     -10.508 -11.845 -12.896  0.00  0.00    +0.000 OA
ATOM     33  H   UNL     1      -9.960 -12.633 -12.770  0.00  0.00    +0.000 HD
ENDBRANCH  29  32
ENDBRANCH  28  29
ENDBRANCH  27  28
ENDBRANCH  24  26
ENDBRANCH   2  24
TORSDOF 9
ENDMDL
MODEL 4
REMARK VINA RESULT:      -6.1     15.661     17.978
REMARK  Name = Calcitriol.pdbqt.pdb
REMARK  9 active torsions:
REMARK  status: ('A' for Active; 'I' for Inactive)
REMARK    1  A    between atoms: C_2  and  C_24
REMARK    2  A    between atoms: C_7  and  C_11
REMARK    3  A    between atoms: C_12  and  C_13
REMARK    4  A    between atoms: C_16  and  O_20
REMARK    5  A    between atoms: C_18  and  O_22
REMARK    6  A    between atoms: C_24  and  C_26
REMARK    7  A    between atoms: C_27  and  C_28
REMARK    8  A    between atoms: C_28  and  C_29
REMARK    9  A    between atoms: C_29  and  O_32
REMARK                            x       y       z     vdW  Elec       q    Type
REMARK                         _______ _______ _______ _____ _____    ______ ____
ROOT
ATOM      1  C   UNL     1      -3.756 -17.425 -16.075  0.00  0.00    +0.000 C 
ATOM      2  C   UNL     1      -2.724 -17.306 -14.957  0.00  0.00    +0.000 C 
ATOM      3  C   UNL     1      -4.953 -16.451 -15.569  0.00  0.00    +0.000 C 
ATOM      4  C   UNL     1      -3.141 -16.312 -14.023  0.00  0.00    +0.000 C 
ATOM      5  C   UNL     1      -4.489 -15.764 -14.404  0.00  0.00    +0.000 C 
ATOM      6  C   UNL     1      -4.341 -18.767 -16.223  0.00  0.00    +0.000 C 
ATOM      7  C   UNL     1      -6.358 -16.857 -15.697  0.00  0.00    +0.000 C 
ATOM      8  C   UNL     1      -3.214 -16.816 -17.399  0.00  0.00    +0.000 C 
ATOM      9  C   UNL     1      -5.700 -19.443 -16.264  0.00  0.00    +0.000 C 
ATOM     10  C   UNL     1      -6.567 -18.231 -15.990  0.00  0.00    +0.000 C 
ENDROOT
BRANCH   7  11
ATOM     11  C   UNL     1      -7.369 -16.092 -15.428  0.00  0.00    +0.000 C 
ATOM     12  C   UNL     1      -8.559 -15.176 -15.116  0.00  0.00    +0.000 C 
BRANCH  12  13
ATOM     13  C   UNL     1      -9.564 -14.395 -14.859  0.00  0.00    +0.000 A 
ATOM     14  C   UNL     1     -10.855 -14.699 -15.399  0.00  0.00    +0.000 A 
ATOM     15  C   UNL     1      -9.529 -13.120 -14.074  0.00  0.00    +0.000 A 
ATOM     16  C   UNL     1     -12.115 -14.038 -15.343  0.00  0.00    +0.000 A 
ATOM     17  C   UNL     1     -11.934 -12.849 -14.581  0.00  0.00    +0.000 A 
ATOM     18  C   UNL     1     -10.782 -12.314 -13.936  0.00  0.00    +0.000 A 
ATOM     19  C   UNL     1      -8.407 -12.677 -13.478  0.00  0.00    +0.000 C 
BRANCH  16  20
ATOM     20  O   UNL     1     -13.284 -14.741 -15.323  0.00  0.00    +0.000 OA
ATOM     21  H   UNL     1     -13.760 -14.610 -14.486  0.00  0.00    +0.000 HD
ENDBRANCH  16  20
BRANCH  18  22
ATOM     22  O   UNL     1     -10.814 -11.141 -13.221  0.00  0.00    +0.000 OA
ATOM     23  H   UNL     1     -10.902 -11.329 -12.267  0.00  0.00    +0.000 HD
ENDBRANCH  18  22
ENDBRANCH  12  13
ENDBRANCH   7  11
BRANCH   2  24
ATOM     24  C   UNL     1      -1.456 -17.963 -14.933  0.00  0.00    +0.000 C 
ATOM     25  C   UNL     1      -1.194 -19.269 -15.639  0.00  0.00    +0.000 C 
BRANCH  24  26
ATOM     26  C   UNL     1      -0.411 -17.513 -14.080  0.00  0.00    +0.000 C 
ATOM     27  C   UNL     1       0.709 -17.036 -13.148  0.00  0.00    +0.000 C 
BRANCH  27  28
ATOM     28  C   UNL     1       1.823 -16.564 -12.205  0.00  0.00    +0.000 C 
BRANCH  28  29
ATOM     29  C   UNL     1       2.889 -16.116 -11.308  0.00  0.00    +0.000 C 
ATOM     30  C   UNL     1       3.403 -17.232 -10.391  0.00  0.00    +0.000 C 
ATOM     31  C   UNL     1       4.053 -15.442 -12.043  0.00  0.00    +0.000 C 
BRANCH  29  32
ATOM     32  O   UNL     1       2.375 -15.128 -10.443  0.00  0.00    +0.000 OA
ATOM     33  H   UNL     1       1.578 -15.595 -10.150  0.00  0.00    +0.000 HD
ENDBRANCH  29  32
ENDBRANCH  28  29
ENDBRANCH  27  28
ENDBRANCH  24  26
ENDBRANCH   2  24
TORSDOF 9
ENDMDL
MODEL 5
REMARK VINA RESULT:      -6.0     14.045     17.737
REMARK  Name = Calcitriol.pdbqt.pdb
REMARK  9 active torsions:
REMARK  status: ('A' for Active; 'I' for Inactive)
REMARK    1  A    between atoms: C_2  and  C_24
REMARK    2  A    between atoms: C_7  and  C_11
REMARK    3  A    between atoms: C_12  and  C_13
REMARK    4  A    between atoms: C_16  and  O_20
REMARK    5  A    between atoms: C_18  and  O_22
REMARK    6  A    between atoms: C_24  and  C_26
REMARK    7  A    between atoms: C_27  and  C_28
REMARK    8  A    between atoms: C_28  and  C_29
REMARK    9  A    between atoms: C_29  and  O_32
REMARK                            x       y       z     vdW  Elec       q    Type
REMARK                         _______ _______ _______ _____ _____    ______ ____
ROOT
ATOM      1  C   UNL     1      -9.476 -34.039  -0.454  0.00  0.00    +0.000 C 
ATOM      2  C   UNL     1      -9.044 -33.302  -1.718  0.00  0.00    +0.000 C 
ATOM      3  C   UNL     1      -9.724 -32.831   0.603  0.00  0.00    +0.000 C 
ATOM      4  C   UNL     1      -9.169 -31.895  -1.520  0.00  0.00    +0.000 C 
ATOM      5  C   UNL     1      -9.611 -31.599  -0.113  0.00  0.00    +0.000 C 
ATOM      6  C   UNL     1      -8.439 -34.903   0.132  0.00  0.00    +0.000 C 
ATOM      7  C   UNL     1      -9.265 -32.942   1.993  0.00  0.00    +0.000 C 
ATOM      8  C   UNL     1     -10.848 -34.741  -0.660  0.00  0.00    +0.000 C 
ATOM      9  C   UNL     1      -7.725 -35.127   1.453  0.00  0.00    +0.000 C 
ATOM     10  C   UNL     1      -8.353 -34.000   2.247  0.00  0.00    +0.000 C 
ENDROOT
BRANCH   7  11
ATOM     11  C   UNL     1      -9.528 -32.077   2.923  0.00  0.00    +0.000 C 
ATOM     12  C   UNL     1      -9.835 -31.065   4.032  0.00  0.00    +0.000 C 
BRANCH  12  13
ATOM     13  C   UNL     1     -10.088 -30.211   4.978  0.00  0.00    +0.000 A 
ATOM     14  C   UNL     1     -11.442 -29.819   5.234  0.00  0.00    +0.000 A 
ATOM     15  C   UNL     1      -9.088 -29.508   5.842  0.00  0.00    +0.000 A 
ATOM     16  C   UNL     1     -12.033 -28.895   6.143  0.00  0.00    +0.000 A 
ATOM     17  C   UNL     1     -10.976 -28.300   6.887  0.00  0.00    +0.000 A 
ATOM     18  C   UNL     1      -9.567 -28.502   6.841  0.00  0.00    +0.000 A 
ATOM     19  C   UNL     1      -7.768 -29.756   5.756  0.00  0.00    +0.000 C 
BRANCH  16  20
ATOM     20  O   UNL     1     -13.263 -29.127   6.688  0.00  0.00    +0.000 OA
ATOM     21  H   UNL     1     -13.735 -28.296   6.860  0.00  0.00    +0.000 HD
ENDBRANCH  16  20
BRANCH  18  22
ATOM     22  O   UNL     1      -8.697 -27.830   7.667  0.00  0.00    +0.000 OA
ATOM     23  H   UNL     1      -9.146 -27.579   8.497  0.00  0.00    +0.000 HD
ENDBRANCH  18  22
ENDBRANCH  12  13
ENDBRANCH   7  11
BRANCH   2  24
ATOM     24  C   UNL     1      -8.725 -33.922  -2.965  0.00  0.00    +0.000 C 
ATOM     25  C   UNL     1      -9.740 -34.660  -3.799  0.00  0.00    +0.000 C 
BRANCH  24  26
ATOM     26  C   UNL     1      -7.378 -34.039  -3.404  0.00  0.00    +0.000 C 
ATOM     27  C   UNL     1      -5.929 -34.162  -3.893  0.00  0.00    +0.000 C 
BRANCH  27  28
ATOM     28  C   UNL     1      -4.484 -34.282  -4.394  0.00  0.00    +0.000 C 
BRANCH  28  29
ATOM     29  C   UNL     1      -3.108 -34.395  -4.876  0.00  0.00    +0.000 C 
ATOM     30  C   UNL     1      -2.466 -35.745  -4.536  0.00  0.00    +0.000 C 
ATOM     31  C   UNL     1      -2.965 -34.091  -6.372  0.00  0.00    +0.000 C 
BRANCH  29  32
ATOM     32  O   UNL     1      -2.314 -33.428  -4.225  0.00  0.00    +0.000 OA
ATOM     33  H   UNL     1      -1.701 -33.235  -4.950  0.00  0.00    +0.000 HD
ENDBRANCH  29  32
ENDBRANCH  28  29
ENDBRANCH  27  28
ENDBRANCH  24  26
ENDBRANCH   2  24
TORSDOF 9
ENDMDL
MODEL 6
REMARK VINA RESULT:      -6.0      3.522     11.371
REMARK  Name = Calcitriol.pdbqt.pdb
REMARK  9 active torsions:
REMARK  status: ('A' for Active; 'I' for Inactive)
REMARK    1  A    between atoms: C_2  and  C_24
REMARK    2  A    between atoms: C_7  and  C_11
REMARK    3  A    between atoms: C_12  and  C_13
REMARK    4  A    between atoms: C_16  and  O_20
REMARK    5  A    between atoms: C_18  and  O_22
REMARK    6  A    between atoms: C_24  and  C_26
REMARK    7  A    between atoms: C_27  and  C_28
REMARK    8  A    between atoms: C_28  and  C_29
REMARK    9  A    between atoms: C_29  and  O_32
REMARK                            x       y       z     vdW  Elec       q    Type
REMARK                         _______ _______ _______ _____ _____    ______ ____
ROOT
ATOM      1  C   UNL     1     -17.455 -14.973  -6.188  0.00  0.00    +0.000 C 
ATOM      2  C   UNL     1     -16.548 -14.273  -7.196  0.00  0.00    +0.000 C 
ATOM      3  C   UNL     1     -16.452 -15.278  -4.947  0.00  0.00    +0.000 C 
ATOM      4  C   UNL     1     -15.269 -14.041  -6.610  0.00  0.00    +0.000 C 
ATOM      5  C   UNL     1     -15.210 -14.627  -5.226  0.00  0.00    +0.000 C 
ATOM      6  C   UNL     1     -17.974 -16.275  -6.637  0.00  0.00    +0.000 C 
ATOM      7  C   UNL     1     -16.489 -16.568  -4.249  0.00  0.00    +0.000 C 
ATOM      8  C   UNL     1     -18.546 -14.003  -5.652  0.00  0.00    +0.000 C 
ATOM      9  C   UNL     1     -18.033 -17.722  -6.179  0.00  0.00    +0.000 C 
ATOM     10  C   UNL     1     -17.213 -17.595  -4.912  0.00  0.00    +0.000 C 
ENDROOT
BRANCH   7  11
ATOM     11  C   UNL     1     -15.808 -16.843  -3.181  0.00  0.00    +0.000 C 
ATOM     12  C   UNL     1     -14.992 -17.174  -1.926  0.00  0.00    +0.000 C 
BRANCH  12  13
ATOM     13  C   UNL     1     -14.292 -17.453  -0.868  0.00  0.00    +0.000 A 
ATOM     14  C   UNL     1     -13.326 -16.512  -0.388  0.00  0.00    +0.000 A 
ATOM     15  C   UNL     1     -14.332 -18.725  -0.078  0.00  0.00    +0.000 A 
ATOM     16  C   UNL     1     -12.393 -16.536   0.689  0.00  0.00    +0.000 A 
ATOM     17  C   UNL     1     -12.534 -17.793   1.341  0.00  0.00    +0.000 A 
ATOM     18  C   UNL     1     -13.400 -18.893   1.081  0.00  0.00    +0.000 A 
ATOM     19  C   UNL     1     -15.187 -19.722  -0.371  0.00  0.00    +0.000 C 
BRANCH  16  20
ATOM     20  O   UNL     1     -12.067 -15.399   1.369  0.00  0.00    +0.000 OA
ATOM     21  H   UNL     1     -12.862 -14.942   1.693  0.00  0.00    +0.000 HD
ENDBRANCH  16  20
BRANCH  18  22
ATOM     22  O   UNL     1     -13.396 -20.034   1.847  0.00  0.00    +0.000 OA
ATOM     23  H   UNL     1     -13.234 -19.811   2.784  0.00  0.00    +0.000 HD
ENDBRANCH  18  22
ENDBRANCH  12  13
ENDBRANCH   7  11
BRANCH   2  24
ATOM     24  C   UNL     1     -16.963 -13.774  -8.469  0.00  0.00    +0.000 C 
ATOM     25  C   UNL     1     -17.735 -12.491  -8.636  0.00  0.00    +0.000 C 
BRANCH  24  26
ATOM     26  C   UNL     1     -16.830 -14.561  -9.645  0.00  0.00    +0.000 C 
ATOM     27  C   UNL     1     -16.676 -15.421 -10.906  0.00  0.00    +0.000 C 
BRANCH  27  28
ATOM     28  C   UNL     1     -16.513 -16.288 -12.160  0.00  0.00    +0.000 C 
BRANCH  28  29
ATOM     29  C   UNL     1     -16.361 -17.118 -13.355  0.00  0.00    +0.000 C 
ATOM     30  C   UNL     1     -17.674 -17.300 -14.125  0.00  0.00    +0.000 C 
ATOM     31  C   UNL     1     -15.249 -16.631 -14.291  0.00  0.00    +0.000 C 
BRANCH  29  32
ATOM     32  O   UNL     1     -15.972 -18.417 -12.965  0.00  0.00    +0.000 OA
ATOM     33  H   UNL     1     -16.323 -18.905 -13.725  0.00  0.00    +0.000 HD
ENDBRANCH  29  32
ENDBRANCH  28  29
ENDBRANCH  27  28
ENDBRANCH  24  26
ENDBRANCH   2  24
TORSDOF 9
ENDMDL
MODEL 7
REMARK VINA RESULT:      -5.9      7.262      9.480
REMARK  Name = Calcitriol.pdbqt.pdb
REMARK  9 active torsions:
REMARK  status: ('A' for Active; 'I' for Inactive)
REMARK    1  A    between atoms: C_2  and  C_24
REMARK    2  A    between atoms: C_7  and  C_11
REMARK    3  A    between atoms: C_12  and  C_13
REMARK    4  A    between atoms: C_16  and  O_20
REMARK    5  A    between atoms: C_18  and  O_22
REMARK    6  A    between atoms: C_24  and  C_26
REMARK    7  A    between atoms: C_27  and  C_28
REMARK    8  A    between atoms: C_28  and  C_29
REMARK    9  A    between atoms: C_29  and  O_32
REMARK                            x       y       z     vdW  Elec       q    Type
REMARK                         _______ _______ _______ _____ _____    ______ ____
ROOT
ATOM      1  C   UNL     1      -6.581 -15.233   2.385  0.00  0.00    +0.000 C 
ATOM      2  C   UNL     1      -5.647 -16.309   1.840  0.00  0.00    +0.000 C 
ATOM      3  C   UNL     1      -8.055 -15.816   2.030  0.00  0.00    +0.000 C 
ATOM      4  C   UNL     1      -6.413 -17.424   1.387  0.00  0.00    +0.000 C 
ATOM      5  C   UNL     1      -7.884 -17.143   1.525  0.00  0.00    +0.000 C 
ATOM      6  C   UNL     1      -6.471 -13.931   1.707  0.00  0.00    +0.000 C 
ATOM      7  C   UNL     1      -9.106 -14.937   1.503  0.00  0.00    +0.000 C 
ATOM      8  C   UNL     1      -6.494 -15.153   3.935  0.00  0.00    +0.000 C 
ATOM      9  C   UNL     1      -7.347 -12.913   0.998  0.00  0.00    +0.000 C 
ATOM     10  C   UNL     1      -8.661 -13.666   1.051  0.00  0.00    +0.000 C 
ENDROOT
BRANCH   7  11
ATOM     11  C   UNL     1     -10.335 -15.299   1.308  0.00  0.00    +0.000 C 
ATOM     12  C   UNL     1     -11.784 -15.739   1.070  0.00  0.00    +0.000 C 
BRANCH  12  13
ATOM     13  C   UNL     1     -13.009 -16.121   0.867  0.00  0.00    +0.000 A 
ATOM     14  C   UNL     1     -14.090 -15.259   1.239  0.00  0.00    +0.000 A 
ATOM     15  C   UNL     1     -13.456 -17.438   0.314  0.00  0.00    +0.000 A 
ATOM     16  C   UNL     1     -15.507 -15.398   1.192  0.00  0.00    +0.000 A 
ATOM     17  C   UNL     1     -15.788 -16.688   0.659  0.00  0.00    +0.000 A 
ATOM     18  C   UNL     1     -14.922 -17.727   0.212  0.00  0.00    +0.000 A 
ATOM     19  C   UNL     1     -12.583 -18.373  -0.103  0.00  0.00    +0.000 C 
BRANCH  16  20
ATOM     20  O   UNL     1     -16.317 -14.324   0.956  0.00  0.00    +0.000 OA
ATOM     21  H   UNL     1     -15.883 -13.493   1.210  0.00  0.00    +0.000 HD
ENDBRANCH  16  20
BRANCH  18  22
ATOM     22  O   UNL     1     -15.393 -18.914  -0.293  0.00  0.00    +0.000 OA
ATOM     23  H   UNL     1     -14.884 -19.663   0.073  0.00  0.00    +0.000 HD
ENDBRANCH  18  22
ENDBRANCH  12  13
ENDBRANCH   7  11
BRANCH   2  24
ATOM     24  C   UNL     1      -4.221 -16.282   1.922  0.00  0.00    +0.000 C 
ATOM     25  C   UNL     1      -3.436 -15.015   2.148  0.00  0.00    +0.000 C 
BRANCH  24  26
ATOM     26  C   UNL     1      -3.445 -17.431   1.609  0.00  0.00    +0.000 C 
ATOM     27  C   UNL     1      -2.598 -18.668   1.284  0.00  0.00    +0.000 C 
BRANCH  27  28
ATOM     28  C   UNL     1      -1.744 -19.902   0.970  0.00  0.00    +0.000 C 
BRANCH  28  29
ATOM     29  C   UNL     1      -0.929 -21.079   0.666  0.00  0.00    +0.000 C 
ATOM     30  C   UNL     1      -1.619 -22.046  -0.302  0.00  0.00    +0.000 C 
ATOM     31  C   UNL     1       0.477 -20.727   0.168  0.00  0.00    +0.000 C 
BRANCH  29  32
ATOM     32  O   UNL     1      -0.728 -21.815   1.852  0.00  0.00    +0.000 OA
ATOM     33  H   UNL     1      -1.607 -22.214   1.923  0.00  0.00    +0.000 HD
ENDBRANCH  29  32
ENDBRANCH  28  29
ENDBRANCH  27  28
ENDBRANCH  24  26
ENDBRANCH   2  24
TORSDOF 9
ENDMDL
MODEL 8
REMARK VINA RESULT:      -5.8      8.930     14.674
REMARK  Name = Calcitriol.pdbqt.pdb
REMARK  9 active torsions:
REMARK  status: ('A' for Active; 'I' for Inactive)
REMARK    1  A    between atoms: C_2  and  C_24
REMARK    2  A    between atoms: C_7  and  C_11
REMARK    3  A    between atoms: C_12  and  C_13
REMARK    4  A    between atoms: C_16  and  O_20
REMARK    5  A    between atoms: C_18  and  O_22
REMARK    6  A    between atoms: C_24  and  C_26
REMARK    7  A    between atoms: C_27  and  C_28
REMARK    8  A    between atoms: C_28  and  C_29
REMARK    9  A    between atoms: C_29  and  O_32
REMARK                            x       y       z     vdW  Elec       q    Type
REMARK                         _______ _______ _______ _____ _____    ______ ____
ROOT
ATOM      1  C   UNL     1      -8.983 -31.304   6.633  0.00  0.00    +0.000 C 
ATOM      2  C   UNL     1      -8.117 -32.069   5.637  0.00  0.00    +0.000 C 
ATOM      3  C   UNL     1      -9.899 -30.366   5.674  0.00  0.00    +0.000 C 
ATOM      4  C   UNL     1      -8.543 -31.777   4.307  0.00  0.00    +0.000 C 
ATOM      5  C   UNL     1      -9.650 -30.759   4.321  0.00  0.00    +0.000 C 
ATOM      6  C   UNL     1      -8.235 -30.395   7.518  0.00  0.00    +0.000 C 
ATOM      7  C   UNL     1     -10.157 -28.963   6.018  0.00  0.00    +0.000 C 
ATOM      8  C   UNL     1      -9.953 -32.263   7.379  0.00  0.00    +0.000 C 
ATOM      9  C   UNL     1      -8.223 -28.937   7.942  0.00  0.00    +0.000 C 
ATOM     10  C   UNL     1      -9.327 -28.427   7.038  0.00  0.00    +0.000 C 
ENDROOT
BRANCH   7  11
ATOM     11  C   UNL     1     -10.970 -28.188   5.371  0.00  0.00    +0.000 C 
ATOM     12  C   UNL     1     -11.941 -27.281   4.605  0.00  0.00    +0.000 C 
BRANCH  12  13
ATOM     13  C   UNL     1     -12.770 -26.518   3.960  0.00  0.00    +0.000 A 
ATOM     14  C   UNL     1     -12.479 -25.124   3.807  0.00  0.00    +0.000 A 
ATOM     15  C   UNL     1     -14.088 -26.922   3.374  0.00  0.00    +0.000 A 
ATOM     16  C   UNL     1     -13.185 -24.041   3.211  0.00  0.00    +0.000 A 
ATOM     17  C   UNL     1     -14.411 -24.562   2.707  0.00  0.00    +0.000 A 
ATOM     18  C   UNL     1     -14.943 -25.883   2.719  0.00  0.00    +0.000 A 
ATOM     19  C   UNL     1     -14.527 -28.193   3.409  0.00  0.00    +0.000 C 
BRANCH  16  20
ATOM     20  O   UNL     1     -12.525 -23.018   2.594  0.00  0.00    +0.000 OA
ATOM     21  H   UNL     1     -12.812 -22.155   2.937  0.00  0.00    +0.000 HD
ENDBRANCH  16  20
BRANCH  18  22
ATOM     22  O   UNL     1     -16.158 -26.194   2.156  0.00  0.00    +0.000 OA
ATOM     23  H   UNL     1     -16.321 -27.156   2.214  0.00  0.00    +0.000 HD
ENDBRANCH  18  22
ENDBRANCH  12  13
ENDBRANCH   7  11
BRANCH   2  24
ATOM     24  C   UNL     1      -7.141 -33.055   5.980  0.00  0.00    +0.000 C 
ATOM     25  C   UNL     1      -7.310 -34.520   5.671  0.00  0.00    +0.000 C 
BRANCH  24  26
ATOM     26  C   UNL     1      -6.030 -32.732   6.806  0.00  0.00    +0.000 C 
ATOM     27  C   UNL     1      -4.829 -32.369   7.688  0.00  0.00    +0.000 C 
BRANCH  27  28
ATOM     28  C   UNL     1      -3.626 -31.996   8.564  0.00  0.00    +0.000 C 
BRANCH  28  29
ATOM     29  C   UNL     1      -2.482 -31.640   9.402  0.00  0.00    +0.000 C 
ATOM     30  C   UNL     1      -2.681 -32.019  10.874  0.00  0.00    +0.000 C 
ATOM     31  C   UNL     1      -1.153 -32.195   8.877  0.00  0.00    +0.000 C 
BRANCH  29  32
ATOM     32  O   UNL     1      -2.325 -30.238   9.394  0.00  0.00    +0.000 OA
ATOM     33  H   UNL     1      -3.241 -29.994   9.194  0.00  0.00    +0.000 HD
ENDBRANCH  29  32
ENDBRANCH  28  29
ENDBRANCH  27  28
ENDBRANCH  24  26
ENDBRANCH   2  24
TORSDOF 9
ENDMDL
MODEL 9
REMARK VINA RESULT:      -5.7      9.058     14.865
REMARK  Name = Calcitriol.pdbqt.pdb
REMARK  9 active torsions:
REMARK  status: ('A' for Active; 'I' for Inactive)
REMARK    1  A    between atoms: C_2  and  C_24
REMARK    2  A    between atoms: C_7  and  C_11
REMARK    3  A    between atoms: C_12  and  C_13
REMARK    4  A    between atoms: C_16  and  O_20
REMARK    5  A    between atoms: C_18  and  O_22
REMARK    6  A    between atoms: C_24  and  C_26
REMARK    7  A    between atoms: C_27  and  C_28
REMARK    8  A    between atoms: C_28  and  C_29
REMARK    9  A    between atoms: C_29  and  O_32
REMARK                            x       y       z     vdW  Elec       q    Type
REMARK                         _______ _______ _______ _____ _____    ______ ____
ROOT
ATOM      1  C   UNL     1      -8.726 -30.869   7.397  0.00  0.00    +0.000 C 
ATOM      2  C   UNL     1      -7.597 -31.451   6.551  0.00  0.00    +0.000 C 
ATOM      3  C   UNL     1      -9.597 -30.031   6.312  0.00  0.00    +0.000 C 
ATOM      4  C   UNL     1      -7.830 -31.161   5.174  0.00  0.00    +0.000 C 
ATOM      5  C   UNL     1      -9.065 -30.317   5.016  0.00  0.00    +0.000 C 
ATOM      6  C   UNL     1      -8.287 -29.904   8.418  0.00  0.00    +0.000 C 
ATOM      7  C   UNL     1     -10.122 -28.699   6.636  0.00  0.00    +0.000 C 
ATOM      8  C   UNL     1      -9.652 -31.995   7.939  0.00  0.00    +0.000 C 
ATOM      9  C   UNL     1      -8.570 -28.482   8.869  0.00  0.00    +0.000 C 
ATOM     10  C   UNL     1      -9.568 -28.096   7.797  0.00  0.00    +0.000 C 
ENDROOT
BRANCH   7  11
ATOM     11  C   UNL     1     -10.920 -28.020   5.873  0.00  0.00    +0.000 C 
ATOM     12  C   UNL     1     -11.877 -27.221   4.980  0.00  0.00    +0.000 C 
BRANCH  12  13
ATOM     13  C   UNL     1     -12.692 -26.544   4.230  0.00  0.00    +0.000 A 
ATOM     14  C   UNL     1     -12.450 -25.152   3.997  0.00  0.00    +0.000 A 
ATOM     15  C   UNL     1     -13.949 -27.048   3.591  0.00  0.00    +0.000 A 
ATOM     16  C   UNL     1     -13.161 -24.146   3.281  0.00  0.00    +0.000 A 
ATOM     17  C   UNL     1     -14.326 -24.757   2.738  0.00  0.00    +0.000 A 
ATOM     18  C   UNL     1     -14.802 -26.098   2.810  0.00  0.00    +0.000 A 
ATOM     19  C   UNL     1     -14.336 -28.333   3.688  0.00  0.00    +0.000 C 
BRANCH  16  20
ATOM     20  O   UNL     1     -12.504 -23.138   2.637  0.00  0.00    +0.000 OA
ATOM     21  H   UNL     1     -12.545 -22.310   3.144  0.00  0.00    +0.000 HD
ENDBRANCH  16  20
BRANCH  18  22
ATOM     22  O   UNL     1     -15.962 -26.503   2.195  0.00  0.00    +0.000 OA
ATOM     23  H   UNL     1     -16.530 -25.732   2.003  0.00  0.00    +0.000 HD
ENDBRANCH  18  22
ENDBRANCH  12  13
ENDBRANCH   7  11
BRANCH   2  24
ATOM     24  C   UNL     1      -6.555 -32.298   7.038  0.00  0.00    +0.000 C 
ATOM     25  C   UNL     1      -5.657 -31.919   8.188  0.00  0.00    +0.000 C 
BRANCH  24  26
ATOM     26  C   UNL     1      -6.183 -33.480   6.341  0.00  0.00    +0.000 C 
ATOM     27  C   UNL     1      -5.791 -34.750   5.575  0.00  0.00    +0.000 C 
BRANCH  27  28
ATOM     28  C   UNL     1      -5.409 -36.018   4.801  0.00  0.00    +0.000 C 
BRANCH  28  29
ATOM     29  C   UNL     1      -5.045 -37.224   4.058  0.00  0.00    +0.000 C 
ATOM     30  C   UNL     1      -5.838 -38.459   4.503  0.00  0.00    +0.000 C 
ATOM     31  C   UNL     1      -5.129 -37.046   2.538  0.00  0.00    +0.000 C 
BRANCH  29  32
ATOM     32  O   UNL     1      -3.694 -37.533   4.320  0.00  0.00    +0.000 OA
ATOM     33  H   UNL     1      -3.659 -38.400   3.889  0.00  0.00    +0.000 HD
ENDBRANCH  29  32
ENDBRANCH  28  29
ENDBRANCH  27  28
ENDBRANCH  24  26
ENDBRANCH   2  24
TORSDOF 9
ENDMDL
