MODEL 1
REMARK VINA RESULT:      -7.9      0.000      0.000
REMARK  Name = 
REMARK  17 active torsions:
REMARK  status: ('A' for Active; 'I' for Inactive)
REMARK    1  A    between atoms: O_1  and  C_14
REMARK    2  A    between atoms: O_2  and  C_32
REMARK    3  A    between atoms: O_2  and  C_36
REMARK    4  A    between atoms: O_6  and  C_39
REMARK    5  A    between atoms: O_7  and  C_41
REMARK    6  A    between atoms: O_7  and  C_43
REMARK    7  A    between atoms: O_9  and  C_47
REMARK    8  A    between atoms: O_9  and  C_49
REMARK    9  A    between atoms: O_10  and  C_45
REMARK   10  A    between atoms: O_12  and  C_51
REMARK   11  A    between atoms: O_13  and  C_53
REMARK   12  A    between atoms: C_17  and  C_29
REMARK   13  A    between atoms: C_18  and  C_30
REMARK   14  A    between atoms: C_22  and  C_33
REMARK   15  A    between atoms: C_40  and  C_42
REMARK   16  A    between atoms: C_46  and  C_48
REMARK   17  A    between atoms: C_52  and  C_54
REMARK                            x       y       z     vdW  Elec       q    Type
REMARK                         _______ _______ _______ _____ _____    ______ ____
ROOT
ATOM      1  O   UNL     1     -10.912 -15.876   2.100  0.00  0.00    +0.000 OA
ATOM      2  C   UNL     1     -10.139 -17.020   2.454  0.00  0.00    +0.000 C 
ATOM      3  C   UNL     1     -10.909 -17.984   3.360  0.00  0.00    +0.000 C 
ATOM      4  C   UNL     1     -12.378 -17.604   3.458  0.00  0.00    +0.000 C 
ATOM      5  C   UNL     1     -12.079 -16.216   1.342  0.00  0.00    +0.000 C 
ATOM      6  C   UNL     1     -13.005 -17.188   2.111  0.00  0.00    +0.000 C 
ATOM      7  C   UNL     1     -12.796 -14.904   1.027  0.00  0.00    +0.000 C 
ENDROOT
BRANCH   4   8
ATOM      8  O   UNL     1     -13.131 -18.593   4.150  0.00  0.00    +0.000 OA
ATOM      9  H   UNL     1     -13.337 -18.216   5.032  0.00  0.00    +0.000 HD
ENDBRANCH   4   8
BRANCH   2  10
ATOM     10  O   UNL     1      -8.883 -16.662   3.032  0.00  0.00    +0.000 OA
BRANCH  10  29
ATOM     11  C   UNL     1      -2.627 -16.705  -1.594  0.00  0.00    +0.000 C 
ATOM     12  C   UNL     1      -3.841 -16.725  -0.625  0.00  0.00    +0.000 C 
ATOM     13  C   UNL     1      -3.723 -15.705   0.536  0.00  0.00    +0.000 C 
ATOM     14  C   UNL     1      -2.225 -15.285  -2.086  0.00  0.00    +0.000 C 
ATOM     15  C   UNL     1      -4.965 -15.724   1.517  0.00  0.00    +0.000 C 
ATOM     16  C   UNL     1      -5.274 -17.193   1.961  0.00  0.00    +0.000 C 
ATOM     17  C   UNL     1      -3.401 -14.305  -0.028  0.00  0.00    +0.000 C 
ATOM     18  C   UNL     1      -2.138 -14.307  -0.889  0.00  0.00    +0.000 C 
ATOM     19  C   UNL     1      -0.825 -15.567  -2.718  0.00  0.00    +0.000 C 
ATOM     20  C   UNL     1      -4.097 -18.137  -0.077  0.00  0.00    +0.000 C 
ATOM     21  C   UNL     1      -1.323 -17.271  -1.005  0.00  0.00    +0.000 C 
ATOM     22  C   UNL     1      -5.354 -18.172   0.777  0.00  0.00    +0.000 C 
ATOM     23  C   UNL     1      -0.176 -16.580  -1.753  0.00  0.00    +0.000 C 
ATOM     24  C   UNL     1      -6.231 -15.095   0.871  0.00  0.00    +0.000 C 
ATOM     25  C   UNL     1      -6.563 -17.303   2.801  0.00  0.00    +0.000 C 
ATOM     26  C   UNL     1      -3.207 -14.729  -3.137  0.00  0.00    +0.000 C 
ATOM     27  C   UNL     1      -4.589 -14.896   2.778  0.00  0.00    +0.000 C 
ATOM     28  C   UNL     1      -7.489 -15.225   1.730  0.00  0.00    +0.000 C 
ATOM     29  C   UNL     1      -7.781 -16.672   2.119  0.00  0.00    +0.000 C 
BRANCH  19  32
ATOM     30  O   UNL     1       1.760 -12.868  -2.904  0.00  0.00    +0.000 OA
ATOM     31  O   UNL     1       1.007 -11.453  -4.549  0.00  0.00    +0.000 OA
ATOM     32  C   UNL     1       0.022 -14.373  -3.069  0.00  0.00    +0.000 C 
ATOM     33  C   UNL     1       1.282 -14.087  -2.339  0.00  0.00    +0.000 C 
ATOM     34  C   UNL     1      -0.212 -13.404  -3.955  0.00  0.00    +0.000 C 
ATOM     35  C   UNL     1       0.894 -12.454  -3.865  0.00  0.00    +0.000 C 
ENDBRANCH  19  32
BRANCH  11  36
ATOM     36  O   UNL     1      -2.933 -17.532  -2.729  0.00  0.00    +0.000 OA
ATOM     37  H   UNL     1      -3.018 -16.964  -3.514  0.00  0.00    +0.000 HD
ENDBRANCH  11  36
ENDBRANCH  10  29
ENDBRANCH   2  10
BRANCH   6  38
ATOM     38  O   UNL     1     -13.592 -18.172   1.253  0.00  0.00    +0.000 OA
BRANCH  38  40
ATOM     39  O   UNL     1     -15.572 -17.599   0.076  0.00  0.00    +0.000 OA
ATOM     40  C   UNL     1     -14.188 -17.910  -0.009  0.00  0.00    +0.000 C 
ATOM     41  C   UNL     1     -13.911 -18.942  -1.099  0.00  0.00    +0.000 C 
ATOM     42  C   UNL     1     -15.065 -19.067  -2.090  0.00  0.00    +0.000 C 
ATOM     43  C   UNL     1     -16.021 -16.906  -1.104  0.00  0.00    +0.000 C 
ATOM     44  C   UNL     1     -15.813 -17.751  -2.386  0.00  0.00    +0.000 C 
ATOM     45  C   UNL     1     -17.499 -16.587  -0.889  0.00  0.00    +0.000 C 
BRANCH  42  46
ATOM     46  O   UNL     1     -14.640 -19.722  -3.284  0.00  0.00    +0.000 OA
ATOM     47  H   UNL     1     -15.430 -20.042  -3.753  0.00  0.00    +0.000 HD
ENDBRANCH  42  46
BRANCH  44  48
ATOM     48  O   UNL     1     -15.351 -16.950  -3.481  0.00  0.00    +0.000 OA
BRANCH  48  50
ATOM     49  O   UNL     1     -16.758 -17.224  -5.340  0.00  0.00    +0.000 OA
ATOM     50  C   UNL     1     -16.308 -16.329  -4.330  0.00  0.00    +0.000 C 
ATOM     51  C   UNL     1     -15.604 -15.140  -4.992  0.00  0.00    +0.000 C 
ATOM     52  C   UNL     1     -16.185 -14.814  -6.365  0.00  0.00    +0.000 C 
ATOM     53  C   UNL     1     -17.846 -16.691  -6.117  0.00  0.00    +0.000 C 
ATOM     54  C   UNL     1     -17.665 -15.198  -6.443  0.00  0.00    +0.000 C 
ATOM     55  C   UNL     1     -17.911 -17.532  -7.387  0.00  0.00    +0.000 C 
BRANCH  52  56
ATOM     56  O   UNL     1     -16.052 -13.407  -6.600  0.00  0.00    +0.000 OA
ATOM     57  H   UNL     1     -15.311 -13.283  -7.221  0.00  0.00    +0.000 HD
ENDBRANCH  52  56
BRANCH  54  58
ATOM     58  O   UNL     1     -18.384 -14.412  -5.476  0.00  0.00    +0.000 OA
ATOM     59  H   UNL     1     -19.196 -14.920  -5.272  0.00  0.00    +0.000 HD
ENDBRANCH  54  58
ENDBRANCH  48  50
ENDBRANCH  44  48
ENDBRANCH  38  40
ENDBRANCH   6  38
TORSDOF 12
ENDMDL
MODEL 2
REMARK VINA RESULT:      -7.5     19.153     22.213
REMARK  Name = 
REMARK  17 active torsions:
REMARK  status: ('A' for Active; 'I' for Inactive)
REMARK    1  A    between atoms: O_1  and  C_14
REMARK    2  A    between atoms: O_2  and  C_32
REMARK    3  A    between atoms: O_2  and  C_36
REMARK    4  A    between atoms: O_6  and  C_39
REMARK    5  A    between atoms: O_7  and  C_41
REMARK    6  A    between atoms: O_7  and  C_43
REMARK    7  A    between atoms: O_9  and  C_47
REMARK    8  A    between atoms: O_9  and  C_49
REMARK    9  A    between atoms: O_10  and  C_45
REMARK   10  A    between atoms: O_12  and  C_51
REMARK   11  A    between atoms: O_13  and  C_53
REMARK   12  A    between atoms: C_17  and  C_29
REMARK   13  A    between atoms: C_18  and  C_30
REMARK   14  A    between atoms: C_22  and  C_33
REMARK   15  A    between atoms: C_40  and  C_42
REMARK   16  A    between atoms: C_46  and  C_48
REMARK   17  A    between atoms: C_52  and  C_54
REMARK                            x       y       z     vdW  Elec       q    Type
REMARK                         _______ _______ _______ _____ _____    ______ ____
ROOT
ATOM      1  O   UNL     1      -7.664 -35.364 -14.344  0.00  0.00    +0.000 OA
ATOM      2  C   UNL     1      -6.609 -34.489 -13.953  0.00  0.00    +0.000 C 
ATOM      3  C   UNL     1      -6.122 -33.612 -15.110  0.00  0.00    +0.000 C 
ATOM      4  C   UNL     1      -7.043 -33.720 -16.316  0.00  0.00    +0.000 C 
ATOM      5  C   UNL     1      -8.836 -34.656 -14.767  0.00  0.00    +0.000 C 
ATOM      6  C   UNL     1      -8.543 -33.713 -15.959  0.00  0.00    +0.000 C 
ATOM      7  C   UNL     1      -9.876 -35.711 -15.141  0.00  0.00    +0.000 C 
ENDROOT
BRANCH   4   8
ATOM      8  O   UNL     1      -6.698 -32.778 -17.325  0.00  0.00    +0.000 OA
ATOM      9  H   UNL     1      -6.063 -33.230 -17.920  0.00  0.00    +0.000 HD
ENDBRANCH   4   8
BRANCH   2  10
ATOM     10  O   UNL     1      -5.524 -35.192 -13.349  0.00  0.00    +0.000 OA
BRANCH  10  29
ATOM     11  C   UNL     1      -4.588 -34.351  -5.670  0.00  0.00    +0.000 C 
ATOM     12  C   UNL     1      -4.720 -34.488  -7.211  0.00  0.00    +0.000 C 
ATOM     13  C   UNL     1      -3.739 -35.518  -7.827  0.00  0.00    +0.000 C 
ATOM     14  C   UNL     1      -4.589 -35.706  -4.906  0.00  0.00    +0.000 C 
ATOM     15  C   UNL     1      -3.880 -35.659  -9.398  0.00  0.00    +0.000 C 
ATOM     16  C   UNL     1      -3.855 -34.244 -10.067  0.00  0.00    +0.000 C 
ATOM     17  C   UNL     1      -3.847 -36.860  -7.073  0.00  0.00    +0.000 C 
ATOM     18  C   UNL     1      -3.605 -36.698  -5.572  0.00  0.00    +0.000 C 
ATOM     19  C   UNL     1      -4.102 -35.257  -3.490  0.00  0.00    +0.000 C 
ATOM     20  C   UNL     1      -4.578 -33.127  -7.909  0.00  0.00    +0.000 C 
ATOM     21  C   UNL     1      -3.299 -33.661  -5.191  0.00  0.00    +0.000 C 
ATOM     22  C   UNL     1      -4.824 -33.250  -9.404  0.00  0.00    +0.000 C 
ATOM     23  C   UNL     1      -3.015 -34.204  -3.786  0.00  0.00    +0.000 C 
ATOM     24  C   UNL     1      -5.181 -36.406  -9.803  0.00  0.00    +0.000 C 
ATOM     25  C   UNL     1      -4.136 -34.296 -11.582  0.00  0.00    +0.000 C 
ATOM     26  C   UNL     1      -5.992 -36.340  -4.836  0.00  0.00    +0.000 C 
ATOM     27  C   UNL     1      -2.660 -36.472  -9.915  0.00  0.00    +0.000 C 
ATOM     28  C   UNL     1      -5.429 -36.436 -11.311  0.00  0.00    +0.000 C 
ATOM     29  C   UNL     1      -5.430 -35.038 -11.928  0.00  0.00    +0.000 C 
BRANCH  19  32
ATOM     30  O   UNL     1      -3.979 -37.955  -0.899  0.00  0.00    +0.000 OA
ATOM     31  O   UNL     1      -1.744 -38.416  -0.646  0.00  0.00    +0.000 OA
ATOM     32  C   UNL     1      -3.707 -36.343  -2.525  0.00  0.00    +0.000 C 
ATOM     33  C   UNL     1      -4.728 -37.061  -1.721  0.00  0.00    +0.000 C 
ATOM     34  C   UNL     1      -2.490 -36.768  -2.187  0.00  0.00    +0.000 C 
ATOM     35  C   UNL     1      -2.656 -37.801  -1.166  0.00  0.00    +0.000 C 
ENDBRANCH  19  32
BRANCH  11  36
ATOM     36  O   UNL     1      -5.669 -33.534  -5.188  0.00  0.00    +0.000 OA
ATOM     37  H   UNL     1      -6.443 -33.674  -5.761  0.00  0.00    +0.000 HD
ENDBRANCH  11  36
ENDBRANCH  10  29
ENDBRANCH   2  10
BRANCH   6  38
ATOM     38  O   UNL     1      -9.257 -32.477 -15.860  0.00  0.00    +0.000 OA
BRANCH  38  40
ATOM     39  O   UNL     1      -8.344 -30.813 -14.436  0.00  0.00    +0.000 OA
ATOM     40  C   UNL     1      -8.664 -31.190 -15.769  0.00  0.00    +0.000 C 
ATOM     41  C   UNL     1      -9.389 -30.071 -16.510  0.00  0.00    +0.000 C 
ATOM     42  C   UNL     1      -9.222 -28.716 -15.828  0.00  0.00    +0.000 C 
ATOM     43  C   UNL     1      -7.359 -29.762 -14.417  0.00  0.00    +0.000 C 
ATOM     44  C   UNL     1      -7.853 -28.492 -15.154  0.00  0.00    +0.000 C 
ATOM     45  C   UNL     1      -7.062 -29.466 -12.948  0.00  0.00    +0.000 C 
BRANCH  42  46
ATOM     46  O   UNL     1      -9.562 -27.654 -16.718  0.00  0.00    +0.000 OA
ATOM     47  H   UNL     1      -9.116 -26.845 -16.411  0.00  0.00    +0.000 HD
ENDBRANCH  42  46
BRANCH  44  48
ATOM     48  O   UNL     1      -6.812 -27.893 -15.936  0.00  0.00    +0.000 OA
BRANCH  48  50
ATOM     49  O   UNL     1      -4.496 -28.096 -16.269  0.00  0.00    +0.000 OA
ATOM     50  C   UNL     1      -5.765 -28.718 -16.433  0.00  0.00    +0.000 C 
ATOM     51  C   UNL     1      -6.035 -28.918 -17.928  0.00  0.00    +0.000 C 
ATOM     52  C   UNL     1      -4.751 -29.145 -18.723  0.00  0.00    +0.000 C 
ATOM     53  C   UNL     1      -3.398 -28.964 -16.606  0.00  0.00    +0.000 C 
ATOM     54  C   UNL     1      -3.678 -29.813 -17.860  0.00  0.00    +0.000 C 
ATOM     55  C   UNL     1      -2.189 -28.058 -16.809  0.00  0.00    +0.000 C 
BRANCH  52  56
ATOM     56  O   UNL     1      -5.045 -29.989 -19.843  0.00  0.00    +0.000 OA
ATOM     57  H   UNL     1      -4.200 -30.348 -20.169  0.00  0.00    +0.000 HD
ENDBRANCH  52  56
BRANCH  54  58
ATOM     58  O   UNL     1      -4.167 -31.104 -17.456  0.00  0.00    +0.000 OA
ATOM     59  H   UNL     1      -3.482 -31.473 -16.860  0.00  0.00    +0.000 HD
ENDBRANCH  54  58
ENDBRANCH  48  50
ENDBRANCH  44  48
ENDBRANCH  38  40
ENDBRANCH   6  38
TORSDOF 12
ENDMDL
MODEL 3
REMARK VINA RESULT:      -7.5     14.761     20.732
REMARK  Name = 
REMARK  17 active torsions:
REMARK  status: ('A' for Active; 'I' for Inactive)
REMARK    1  A    between atoms: O_1  and  C_14
REMARK    2  A    between atoms: O_2  and  C_32
REMARK    3  A    between atoms: O_2  and  C_36
REMARK    4  A    between atoms: O_6  and  C_39
REMARK    5  A    between atoms: O_7  and  C_41
REMARK    6  A    between atoms: O_7  and  C_43
REMARK    7  A    between atoms: O_9  and  C_47
REMARK    8  A    between atoms: O_9  and  C_49
REMARK    9  A    between atoms: O_10  and  C_45
REMARK   10  A    between atoms: O_12  and  C_51
REMARK   11  A    between atoms: O_13  and  C_53
REMARK   12  A    between atoms: C_17  and  C_29
REMARK   13  A    between atoms: C_18  and  C_30
REMARK   14  A    between atoms: C_22  and  C_33
REMARK   15  A    between atoms: C_40  and  C_42
REMARK   16  A    between atoms: C_46  and  C_48
REMARK   17  A    between atoms: C_52  and  C_54
REMARK                            x       y       z     vdW  Elec       q    Type
REMARK                         _______ _______ _______ _____ _____    ______ ____
ROOT
ATOM      1  O   UNL     1       5.573 -21.273 -11.928  0.00  0.00    +0.000 OA
ATOM      2  C   UNL     1       4.171 -21.020 -11.932  0.00  0.00    +0.000 C 
ATOM      3  C   UNL     1       3.406 -21.993 -12.832  0.00  0.00    +0.000 C 
ATOM      4  C   UNL     1       4.297 -23.132 -13.305  0.00  0.00    +0.000 C 
ATOM      5  C   UNL     1       5.896 -22.567 -11.404  0.00  0.00    +0.000 C 
ATOM      6  C   UNL     1       5.216 -23.702 -12.206  0.00  0.00    +0.000 C 
ATOM      7  C   UNL     1       7.418 -22.693 -11.451  0.00  0.00    +0.000 C 
ENDROOT
BRANCH   4   8
ATOM      8  O   UNL     1       3.551 -24.130 -13.992  0.00  0.00    +0.000 OA
ATOM      9  H   UNL     1       3.352 -24.828 -13.332  0.00  0.00    +0.000 HD
ENDBRANCH   4   8
BRANCH   2  10
ATOM     10  O   UNL     1       3.871 -19.665 -12.266  0.00  0.00    +0.000 OA
BRANCH  10  29
ATOM     11  C   UNL     1      -2.572 -18.296 -16.410  0.00  0.00    +0.000 C 
ATOM     12  C   UNL     1      -1.257 -18.523 -15.615  0.00  0.00    +0.000 C 
ATOM     13  C   UNL     1      -0.956 -17.405 -14.585  0.00  0.00    +0.000 C 
ATOM     14  C   UNL     1      -3.803 -17.956 -15.524  0.00  0.00    +0.000 C 
ATOM     15  C   UNL     1       0.382 -17.642 -13.773  0.00  0.00    +0.000 C 
ATOM     16  C   UNL     1       1.556 -17.963 -14.757  0.00  0.00    +0.000 C 
ATOM     17  C   UNL     1      -2.191 -17.173 -13.689  0.00  0.00    +0.000 C 
ATOM     18  C   UNL     1      -3.442 -16.847 -14.506  0.00  0.00    +0.000 C 
ATOM     19  C   UNL     1      -4.823 -17.458 -16.598  0.00  0.00    +0.000 C 
ATOM     20  C   UNL     1      -0.060 -18.721 -16.558  0.00  0.00    +0.000 C 
ATOM     21  C   UNL     1      -2.521 -17.141 -17.426  0.00  0.00    +0.000 C 
ATOM     22  C   UNL     1       1.201 -19.058 -15.777  0.00  0.00    +0.000 C 
ATOM     23  C   UNL     1      -3.961 -16.638 -17.579  0.00  0.00    +0.000 C 
ATOM     24  C   UNL     1       0.240 -18.791 -12.735  0.00  0.00    +0.000 C 
ATOM     25  C   UNL     1       2.858 -18.350 -14.026  0.00  0.00    +0.000 C 
ATOM     26  C   UNL     1      -4.345 -19.189 -14.773  0.00  0.00    +0.000 C 
ATOM     27  C   UNL     1       0.718 -16.328 -13.013  0.00  0.00    +0.000 C 
ATOM     28  C   UNL     1       1.549 -19.150 -12.033  0.00  0.00    +0.000 C 
ATOM     29  C   UNL     1       2.666 -19.488 -13.019  0.00  0.00    +0.000 C 
BRANCH  19  32
ATOM     30  O   UNL     1      -8.270 -16.546 -15.460  0.00  0.00    +0.000 OA
ATOM     31  O   UNL     1      -8.194 -14.274 -15.137  0.00  0.00    +0.000 OA
ATOM     32  C   UNL     1      -6.065 -16.771 -16.097  0.00  0.00    +0.000 C 
ATOM     33  C   UNL     1      -7.320 -17.530 -15.867  0.00  0.00    +0.000 C 
ATOM     34  C   UNL     1      -6.276 -15.475 -15.863  0.00  0.00    +0.000 C 
ATOM     35  C   UNL     1      -7.669 -15.328 -15.445  0.00  0.00    +0.000 C 
ENDBRANCH  19  32
BRANCH  11  36
ATOM     36  O   UNL     1      -2.852 -19.479 -17.179  0.00  0.00    +0.000 OA
ATOM     37  H   UNL     1      -3.577 -19.282 -17.797  0.00  0.00    +0.000 HD
ENDBRANCH  11  36
ENDBRANCH  10  29
ENDBRANCH   2  10
BRANCH   6  38
ATOM     38  O   UNL     1       4.761 -24.764 -11.362  0.00  0.00    +0.000 OA
BRANCH  38  40
ATOM     39  O   UNL     1       5.452 -26.841 -10.444  0.00  0.00    +0.000 OA
ATOM     40  C   UNL     1       4.980 -26.148 -11.592  0.00  0.00    +0.000 C 
ATOM     41  C   UNL     1       5.802 -26.492 -12.831  0.00  0.00    +0.000 C 
ATOM     42  C   UNL     1       6.618 -27.769 -12.653  0.00  0.00    +0.000 C 
ATOM     43  C   UNL     1       5.223 -28.258 -10.562  0.00  0.00    +0.000 C 
ATOM     44  C   UNL     1       5.942 -28.859 -11.796  0.00  0.00    +0.000 C 
ATOM     45  C   UNL     1       5.726 -28.893  -9.268  0.00  0.00    +0.000 C 
BRANCH  42  46
ATOM     46  O   UNL     1       7.054 -28.273 -13.914  0.00  0.00    +0.000 OA
ATOM     47  H   UNL     1       6.449 -28.986 -14.184  0.00  0.00    +0.000 HD
ENDBRANCH  42  46
BRANCH  44  48
ATOM     48  O   UNL     1       5.127 -29.828 -12.467  0.00  0.00    +0.000 OA
BRANCH  48  50
ATOM     49  O   UNL     1       3.047 -30.904 -12.294  0.00  0.00    +0.000 OA
ATOM     50  C   UNL     1       3.714 -29.659 -12.461  0.00  0.00    +0.000 C 
ATOM     51  C   UNL     1       3.337 -29.068 -13.824  0.00  0.00    +0.000 C 
ATOM     52  C   UNL     1       1.925 -29.459 -14.254  0.00  0.00    +0.000 C 
ATOM     53  C   UNL     1       1.625 -30.758 -12.117  0.00  0.00    +0.000 C 
ATOM     54  C   UNL     1       1.021 -29.684 -13.040  0.00  0.00    +0.000 C 
ATOM     55  C   UNL     1       1.021 -32.130 -12.394  0.00  0.00    +0.000 C 
BRANCH  52  56
ATOM     56  O   UNL     1       1.379 -28.405 -15.057  0.00  0.00    +0.000 OA
ATOM     57  H   UNL     1       0.557 -28.739 -15.458  0.00  0.00    +0.000 HD
ENDBRANCH  52  56
BRANCH  54  58
ATOM     58  O   UNL     1       0.922 -28.443 -12.318  0.00  0.00    +0.000 OA
ATOM     59  H   UNL     1       1.786 -28.326 -11.871  0.00  0.00    +0.000 HD
ENDBRANCH  54  58
ENDBRANCH  48  50
ENDBRANCH  44  48
ENDBRANCH  38  40
ENDBRANCH   6  38
TORSDOF 12
ENDMDL
MODEL 4
REMARK VINA RESULT:      -7.5     19.496     21.735
REMARK  Name = 
REMARK  17 active torsions:
REMARK  status: ('A' for Active; 'I' for Inactive)
REMARK    1  A    between atoms: O_1  and  C_14
REMARK    2  A    between atoms: O_2  and  C_32
REMARK    3  A    between atoms: O_2  and  C_36
REMARK    4  A    between atoms: O_6  and  C_39
REMARK    5  A    between atoms: O_7  and  C_41
REMARK    6  A    between atoms: O_7  and  C_43
REMARK    7  A    between atoms: O_9  and  C_47
REMARK    8  A    between atoms: O_9  and  C_49
REMARK    9  A    between atoms: O_10  and  C_45
REMARK   10  A    between atoms: O_12  and  C_51
REMARK   11  A    between atoms: O_13  and  C_53
REMARK   12  A    between atoms: C_17  and  C_29
REMARK   13  A    between atoms: C_18  and  C_30
REMARK   14  A    between atoms: C_22  and  C_33
REMARK   15  A    between atoms: C_40  and  C_42
REMARK   16  A    between atoms: C_46  and  C_48
REMARK   17  A    between atoms: C_52  and  C_54
REMARK                            x       y       z     vdW  Elec       q    Type
REMARK                         _______ _______ _______ _____ _____    ______ ____
ROOT
ATOM      1  O   UNL     1      -3.359 -37.028   1.053  0.00  0.00    +0.000 OA
ATOM      2  C   UNL     1      -3.462 -37.329  -0.336  0.00  0.00    +0.000 C 
ATOM      3  C   UNL     1      -4.014 -38.734  -0.588  0.00  0.00    +0.000 C 
ATOM      4  C   UNL     1      -4.539 -39.364   0.693  0.00  0.00    +0.000 C 
ATOM      5  C   UNL     1      -4.632 -37.030   1.710  0.00  0.00    +0.000 C 
ATOM      6  C   UNL     1      -5.349 -38.394   1.577  0.00  0.00    +0.000 C 
ATOM      7  C   UNL     1      -4.371 -36.684   3.176  0.00  0.00    +0.000 C 
ENDROOT
BRANCH   4   8
ATOM      8  O   UNL     1      -5.212 -40.591   0.437  0.00  0.00    +0.000 OA
ATOM      9  H   UNL     1      -4.514 -41.255   0.254  0.00  0.00    +0.000 HD
ENDBRANCH   4   8
BRANCH   2  10
ATOM     10  O   UNL     1      -2.225 -37.131  -1.022  0.00  0.00    +0.000 OA
BRANCH  10  29
ATOM     11  C   UNL     1      -3.315 -34.005  -8.063  0.00  0.00    +0.000 C 
ATOM     12  C   UNL     1      -3.158 -34.615  -6.644  0.00  0.00    +0.000 C 
ATOM     13  C   UNL     1      -3.892 -35.968  -6.467  0.00  0.00    +0.000 C 
ATOM     14  C   UNL     1      -3.020 -35.000  -9.222  0.00  0.00    +0.000 C 
ATOM     15  C   UNL     1      -3.725 -36.589  -5.020  0.00  0.00    +0.000 C 
ATOM     16  C   UNL     1      -4.058 -35.513  -3.933  0.00  0.00    +0.000 C 
ATOM     17  C   UNL     1      -3.494 -36.932  -7.604  0.00  0.00    +0.000 C 
ATOM     18  C   UNL     1      -3.765 -36.336  -8.985  0.00  0.00    +0.000 C 
ATOM     19  C   UNL     1      -3.591 -34.218 -10.448  0.00  0.00    +0.000 C 
ATOM     20  C   UNL     1      -3.593 -33.621  -5.556  0.00  0.00    +0.000 C 
ATOM     21  C   UNL     1      -4.724 -33.476  -8.386  0.00  0.00    +0.000 C 
ATOM     22  C   UNL     1      -3.327 -34.179  -4.167  0.00  0.00    +0.000 C 
ATOM     23  C   UNL     1      -4.882 -33.569  -9.908  0.00  0.00    +0.000 C 
ATOM     24  C   UNL     1      -2.292 -37.145  -4.784  0.00  0.00    +0.000 C 
ATOM     25  C   UNL     1      -3.773 -36.005  -2.500  0.00  0.00    +0.000 C 
ATOM     26  C   UNL     1      -1.512 -35.273  -9.391  0.00  0.00    +0.000 C 
ATOM     27  C   UNL     1      -4.739 -37.760  -4.883  0.00  0.00    +0.000 C 
ATOM     28  C   UNL     1      -2.045 -37.621  -3.353  0.00  0.00    +0.000 C 
ATOM     29  C   UNL     1      -2.349 -36.538  -2.319  0.00  0.00    +0.000 C 
BRANCH  19  32
ATOM     30  O   UNL     1      -4.808 -36.135 -13.423  0.00  0.00    +0.000 OA
ATOM     31  O   UNL     1      -2.902 -36.692 -14.575  0.00  0.00    +0.000 OA
ATOM     32  C   UNL     1      -3.740 -34.979 -11.738  0.00  0.00    +0.000 C 
ATOM     33  C   UNL     1      -5.075 -35.404 -12.227  0.00  0.00    +0.000 C 
ATOM     34  C   UNL     1      -2.795 -35.436 -12.561  0.00  0.00    +0.000 C 
ATOM     35  C   UNL     1      -3.468 -36.158 -13.639  0.00  0.00    +0.000 C 
ENDBRANCH  19  32
BRANCH  11  36
ATOM     36  O   UNL     1      -2.437 -32.872  -8.175  0.00  0.00    +0.000 OA
ATOM     37  H   UNL     1      -2.613 -32.270  -7.432  0.00  0.00    +0.000 HD
ENDBRANCH  11  36
ENDBRANCH  10  29
ENDBRANCH   2  10
BRANCH   6  38
ATOM     38  O   UNL     1      -6.760 -38.249   1.387  0.00  0.00    +0.000 OA
BRANCH  38  40
ATOM     39  O   UNL     1      -7.177 -38.507  -0.935  0.00  0.00    +0.000 OA
ATOM     40  C   UNL     1      -7.382 -37.715   0.227  0.00  0.00    +0.000 C 
ATOM     41  C   UNL     1      -7.115 -36.238  -0.047  0.00  0.00    +0.000 C 
ATOM     42  C   UNL     1      -7.119 -35.912  -1.538  0.00  0.00    +0.000 C 
ATOM     43  C   UNL     1      -8.165 -38.214  -1.943  0.00  0.00    +0.000 C 
ATOM     44  C   UNL     1      -8.122 -36.727  -2.379  0.00  0.00    +0.000 C 
ATOM     45  C   UNL     1      -7.878 -39.142  -3.121  0.00  0.00    +0.000 C 
BRANCH  42  46
ATOM     46  O   UNL     1      -7.259 -34.508  -1.750  0.00  0.00    +0.000 OA
ATOM     47  H   UNL     1      -6.645 -34.046  -1.154  0.00  0.00    +0.000 HD
ENDBRANCH  42  46
BRANCH  44  48
ATOM     48  O   UNL     1      -9.437 -36.189  -2.561  0.00  0.00    +0.000 OA
BRANCH  48  50
ATOM     49  O   UNL     1     -10.588 -37.264  -4.303  0.00  0.00    +0.000 OA
ATOM     50  C   UNL     1      -9.952 -36.064  -3.881  0.00  0.00    +0.000 C 
ATOM     51  C   UNL     1      -8.753 -35.784  -4.795  0.00  0.00    +0.000 C 
ATOM     52  C   UNL     1      -8.976 -36.298  -6.215  0.00  0.00    +0.000 C 
ATOM     53  C   UNL     1     -11.265 -37.126  -5.566  0.00  0.00    +0.000 C 
ATOM     54  C   UNL     1     -10.463 -36.288  -6.579  0.00  0.00    +0.000 C 
ATOM     55  C   UNL     1     -11.497 -38.542  -6.079  0.00  0.00    +0.000 C 
BRANCH  52  56
ATOM     56  O   UNL     1      -8.264 -35.453  -7.128  0.00  0.00    +0.000 OA
ATOM     57  H   UNL     1      -7.447 -35.920  -7.382  0.00  0.00    +0.000 HD
ENDBRANCH  52  56
BRANCH  54  58
ATOM     58  O   UNL     1     -10.926 -34.927  -6.537  0.00  0.00    +0.000 OA
ATOM     59  H   UNL     1     -10.297 -34.449  -5.957  0.00  0.00    +0.000 HD
ENDBRANCH  54  58
ENDBRANCH  48  50
ENDBRANCH  44  48
ENDBRANCH  38  40
ENDBRANCH   6  38
TORSDOF 12
ENDMDL
MODEL 5
REMARK VINA RESULT:      -7.2     18.792     22.060
REMARK  Name = 
REMARK  17 active torsions:
REMARK  status: ('A' for Active; 'I' for Inactive)
REMARK    1  A    between atoms: O_1  and  C_14
REMARK    2  A    between atoms: O_2  and  C_32
REMARK    3  A    between atoms: O_2  and  C_36
REMARK    4  A    between atoms: O_6  and  C_39
REMARK    5  A    between atoms: O_7  and  C_41
REMARK    6  A    between atoms: O_7  and  C_43
REMARK    7  A    between atoms: O_9  and  C_47
REMARK    8  A    between atoms: O_9  and  C_49
REMARK    9  A    between atoms: O_10  and  C_45
REMARK   10  A    between atoms: O_12  and  C_51
REMARK   11  A    between atoms: O_13  and  C_53
REMARK   12  A    between atoms: C_17  and  C_29
REMARK   13  A    between atoms: C_18  and  C_30
REMARK   14  A    between atoms: C_22  and  C_33
REMARK   15  A    between atoms: C_40  and  C_42
REMARK   16  A    between atoms: C_46  and  C_48
REMARK   17  A    between atoms: C_52  and  C_54
REMARK                            x       y       z     vdW  Elec       q    Type
REMARK                         _______ _______ _______ _____ _____    ______ ____
ROOT
ATOM      1  O   UNL     1       8.843 -24.064  -7.543  0.00  0.00    +0.000 OA
ATOM      2  C   UNL     1       7.739 -24.614  -6.829  0.00  0.00    +0.000 C 
ATOM      3  C   UNL     1       6.400 -24.031  -7.288  0.00  0.00    +0.000 C 
ATOM      4  C   UNL     1       6.560 -23.196  -8.550  0.00  0.00    +0.000 C 
ATOM      5  C   UNL     1       8.792 -24.359  -8.944  0.00  0.00    +0.000 C 
ATOM      6  C   UNL     1       7.496 -23.827  -9.600  0.00  0.00    +0.000 C 
ATOM      7  C   UNL     1      10.031 -23.723  -9.573  0.00  0.00    +0.000 C 
ENDROOT
BRANCH   4   8
ATOM      8  O   UNL     1       5.300 -22.801  -9.080  0.00  0.00    +0.000 OA
ATOM      9  H   UNL     1       5.194 -23.284  -9.927  0.00  0.00    +0.000 HD
ENDBRANCH   4   8
BRANCH   2  10
ATOM     10  O   UNL     1       7.897 -24.488  -5.415  0.00  0.00    +0.000 OA
BRANCH  10  29
ATOM     11  C   UNL     1       4.719 -30.079  -1.035  0.00  0.00    +0.000 C 
ATOM     12  C   UNL     1       5.303 -28.926  -1.896  0.00  0.00    +0.000 C 
ATOM     13  C   UNL     1       5.848 -27.742  -1.057  0.00  0.00    +0.000 C 
ATOM     14  C   UNL     1       5.647 -30.545   0.122  0.00  0.00    +0.000 C 
ATOM     15  C   UNL     1       6.448 -26.571  -1.939  0.00  0.00    +0.000 C 
ATOM     16  C   UNL     1       5.433 -26.170  -3.059  0.00  0.00    +0.000 C 
ATOM     17  C   UNL     1       6.821 -28.267   0.019  0.00  0.00    +0.000 C 
ATOM     18  C   UNL     1       6.173 -29.324   0.914  0.00  0.00    +0.000 C 
ATOM     19  C   UNL     1       4.665 -31.416   0.968  0.00  0.00    +0.000 C 
ATOM     20  C   UNL     1       4.283 -28.427  -2.931  0.00  0.00    +0.000 C 
ATOM     21  C   UNL     1       3.392 -29.748  -0.330  0.00  0.00    +0.000 C 
ATOM     22  C   UNL     1       4.899 -27.381  -3.846  0.00  0.00    +0.000 C 
ATOM     23  C   UNL     1       3.337 -30.633   0.922  0.00  0.00    +0.000 C 
ATOM     24  C   UNL     1       7.809 -26.961  -2.580  0.00  0.00    +0.000 C 
ATOM     25  C   UNL     1       6.012 -25.137  -4.047  0.00  0.00    +0.000 C 
ATOM     26  C   UNL     1       6.838 -31.385  -0.383  0.00  0.00    +0.000 C 
ATOM     27  C   UNL     1       6.671 -25.343  -1.011  0.00  0.00    +0.000 C 
ATOM     28  C   UNL     1       8.352 -25.916  -3.554  0.00  0.00    +0.000 C 
ATOM     29  C   UNL     1       7.349 -25.570  -4.654  0.00  0.00    +0.000 C 
BRANCH  19  32
ATOM     30  O   UNL     1       6.144 -33.134   3.946  0.00  0.00    +0.000 OA
ATOM     31  O   UNL     1       5.437 -31.892   5.744  0.00  0.00    +0.000 OA
ATOM     32  C   UNL     1       5.124 -31.831   2.341  0.00  0.00    +0.000 C 
ATOM     33  C   UNL     1       5.967 -33.037   2.534  0.00  0.00    +0.000 C 
ATOM     34  C   UNL     1       4.829 -31.296   3.526  0.00  0.00    +0.000 C 
ATOM     35  C   UNL     1       5.485 -32.110   4.548  0.00  0.00    +0.000 C 
ENDBRANCH  19  32
BRANCH  11  36
ATOM     36  O   UNL     1       4.435 -31.195  -1.896  0.00  0.00    +0.000 OA
ATOM     37  H   UNL     1       3.513 -31.470  -1.753  0.00  0.00    +0.000 HD
ENDBRANCH  11  36
ENDBRANCH  10  29
ENDBRANCH   2  10
BRANCH   6  38
ATOM     38  O   UNL     1       6.977 -24.727 -10.584  0.00  0.00    +0.000 OA
BRANCH  38  40
ATOM     39  O   UNL     1       7.318 -27.074 -10.678  0.00  0.00    +0.000 OA
ATOM     40  C   UNL     1       6.441 -26.015 -10.317  0.00  0.00    +0.000 C 
ATOM     41  C   UNL     1       5.024 -26.262 -10.826  0.00  0.00    +0.000 C 
ATOM     42  C   UNL     1       4.787 -27.721 -11.205  0.00  0.00    +0.000 C 
ATOM     43  C   UNL     1       6.969 -28.293  -9.993  0.00  0.00    +0.000 C 
ATOM     44  C   UNL     1       5.526 -28.749 -10.325  0.00  0.00    +0.000 C 
ATOM     45  C   UNL     1       7.991 -29.343 -10.420  0.00  0.00    +0.000 C 
BRANCH  42  46
ATOM     46  O   UNL     1       3.391 -28.001 -11.298  0.00  0.00    +0.000 OA
ATOM     47  H   UNL     1       3.009 -27.948 -10.404  0.00  0.00    +0.000 HD
ENDBRANCH  42  46
BRANCH  44  48
ATOM     48  O   UNL     1       4.848 -29.249  -9.166  0.00  0.00    +0.000 OA
BRANCH  48  50
ATOM     49  O   UNL     1       5.751 -31.392  -8.835  0.00  0.00    +0.000 OA
ATOM     50  C   UNL     1       5.554 -30.101  -8.271  0.00  0.00    +0.000 C 
ATOM     51  C   UNL     1       4.688 -30.231  -7.013  0.00  0.00    +0.000 C 
ATOM     52  C   UNL     1       4.904 -31.562  -6.297  0.00  0.00    +0.000 C 
ATOM     53  C   UNL     1       6.603 -32.230  -8.032  0.00  0.00    +0.000 C 
ATOM     54  C   UNL     1       6.322 -32.088  -6.525  0.00  0.00    +0.000 C 
ATOM     55  C   UNL     1       6.362 -33.658  -8.509  0.00  0.00    +0.000 C 
BRANCH  52  56
ATOM     56  O   UNL     1       4.694 -31.370  -4.893  0.00  0.00    +0.000 OA
ATOM     57  H   UNL     1       5.209 -30.588  -4.624  0.00  0.00    +0.000 HD
ENDBRANCH  52  56
BRANCH  54  58
ATOM     58  O   UNL     1       7.248 -31.143  -5.960  0.00  0.00    +0.000 OA
ATOM     59  H   UNL     1       6.906 -30.939  -5.065  0.00  0.00    +0.000 HD
ENDBRANCH  54  58
ENDBRANCH  48  50
ENDBRANCH  44  48
ENDBRANCH  38  40
ENDBRANCH   6  38
TORSDOF 12
ENDMDL
MODEL 6
REMARK VINA RESULT:      -7.1     19.001     21.751
REMARK  Name = 
REMARK  17 active torsions:
REMARK  status: ('A' for Active; 'I' for Inactive)
REMARK    1  A    between atoms: O_1  and  C_14
REMARK    2  A    between atoms: O_2  and  C_32
REMARK    3  A    between atoms: O_2  and  C_36
REMARK    4  A    between atoms: O_6  and  C_39
REMARK    5  A    between atoms: O_7  and  C_41
REMARK    6  A    between atoms: O_7  and  C_43
REMARK    7  A    between atoms: O_9  and  C_47
REMARK    8  A    between atoms: O_9  and  C_49
REMARK    9  A    between atoms: O_10  and  C_45
REMARK   10  A    between atoms: O_12  and  C_51
REMARK   11  A    between atoms: O_13  and  C_53
REMARK   12  A    between atoms: C_17  and  C_29
REMARK   13  A    between atoms: C_18  and  C_30
REMARK   14  A    between atoms: C_22  and  C_33
REMARK   15  A    between atoms: C_40  and  C_42
REMARK   16  A    between atoms: C_46  and  C_48
REMARK   17  A    between atoms: C_52  and  C_54
REMARK                            x       y       z     vdW  Elec       q    Type
REMARK                         _______ _______ _______ _____ _____    ______ ____
ROOT
ATOM      1  O   UNL     1      -2.225 -38.203   0.546  0.00  0.00    +0.000 OA
ATOM      2  C   UNL     1      -2.466 -38.619  -0.796  0.00  0.00    +0.000 C 
ATOM      3  C   UNL     1      -2.910 -40.082  -0.879  0.00  0.00    +0.000 C 
ATOM      4  C   UNL     1      -3.215 -40.651   0.498  0.00  0.00    +0.000 C 
ATOM      5  C   UNL     1      -3.404 -38.261   1.359  0.00  0.00    +0.000 C 
ATOM      6  C   UNL     1      -4.000 -39.688   1.411  0.00  0.00    +0.000 C 
ATOM      7  C   UNL     1      -3.000 -37.780   2.752  0.00  0.00    +0.000 C 
ENDROOT
BRANCH   4   8
ATOM      8  O   UNL     1      -3.796 -41.948   0.413  0.00  0.00    +0.000 OA
ATOM      9  H   UNL     1      -4.729 -41.851   0.699  0.00  0.00    +0.000 HD
ENDBRANCH   4   8
BRANCH   2  10
ATOM     10  O   UNL     1      -1.346 -38.372  -1.645  0.00  0.00    +0.000 OA
BRANCH  10  29
ATOM     11  C   UNL     1      -3.339 -34.089  -7.828  0.00  0.00    +0.000 C 
ATOM     12  C   UNL     1      -2.991 -34.920  -6.562  0.00  0.00    +0.000 C 
ATOM     13  C   UNL     1      -3.956 -36.108  -6.318  0.00  0.00    +0.000 C 
ATOM     14  C   UNL     1      -3.572 -34.941  -9.107  0.00  0.00    +0.000 C 
ATOM     15  C   UNL     1      -3.595 -36.956  -5.031  0.00  0.00    +0.000 C 
ATOM     16  C   UNL     1      -3.396 -36.007  -3.802  0.00  0.00    +0.000 C 
ATOM     17  C   UNL     1      -4.080 -36.955  -7.602  0.00  0.00    +0.000 C 
ATOM     18  C   UNL     1      -4.528 -36.119  -8.801  0.00  0.00    +0.000 C 
ATOM     19  C   UNL     1      -4.222 -33.888 -10.061  0.00  0.00    +0.000 C 
ATOM     20  C   UNL     1      -2.908 -34.030  -5.313  0.00  0.00    +0.000 C 
ATOM     21  C   UNL     1      -4.620 -33.244  -7.712  0.00  0.00    +0.000 C 
ATOM     22  C   UNL     1      -2.453 -34.828  -4.102  0.00  0.00    +0.000 C 
ATOM     23  C   UNL     1      -5.157 -33.078  -9.139  0.00  0.00    +0.000 C 
ATOM     24  C   UNL     1      -2.318 -37.818  -5.238  0.00  0.00    +0.000 C 
ATOM     25  C   UNL     1      -2.898 -36.752  -2.547  0.00  0.00    +0.000 C 
ATOM     26  C   UNL     1      -2.255 -35.485  -9.697  0.00  0.00    +0.000 C 
ATOM     27  C   UNL     1      -4.791 -37.905  -4.734  0.00  0.00    +0.000 C 
ATOM     28  C   UNL     1      -1.852 -38.540  -3.974  0.00  0.00    +0.000 C 
ATOM     29  C   UNL     1      -1.637 -37.582  -2.803  0.00  0.00    +0.000 C 
BRANCH  19  32
ATOM     30  O   UNL     1      -4.947 -35.265 -13.464  0.00  0.00    +0.000 OA
ATOM     31  O   UNL     1      -7.231 -35.141 -13.668  0.00  0.00    +0.000 OA
ATOM     32  C   UNL     1      -4.850 -34.405 -11.327  0.00  0.00    +0.000 C 
ATOM     33  C   UNL     1      -4.016 -34.933 -12.435  0.00  0.00    +0.000 C 
ATOM     34  C   UNL     1      -6.134 -34.415 -11.689  0.00  0.00    +0.000 C 
ATOM     35  C   UNL     1      -6.203 -34.972 -13.038  0.00  0.00    +0.000 C 
ENDBRANCH  19  32
BRANCH  11  36
ATOM     36  O   UNL     1      -2.275 -33.152  -8.067  0.00  0.00    +0.000 OA
ATOM     37  H   UNL     1      -2.530 -32.291  -7.695  0.00  0.00    +0.000 HD
ENDBRANCH  11  36
ENDBRANCH  10  29
ENDBRANCH   2  10
BRANCH   6  38
ATOM     38  O   UNL     1      -5.431 -39.678   1.392  0.00  0.00    +0.000 OA
BRANCH  38  40
ATOM     39  O   UNL     1      -7.382 -38.599   2.206  0.00  0.00    +0.000 OA
ATOM     40  C   UNL     1      -6.245 -38.515   1.358  0.00  0.00    +0.000 C 
ATOM     41  C   UNL     1      -6.618 -38.008  -0.032  0.00  0.00    +0.000 C 
ATOM     42  C   UNL     1      -7.983 -37.325  -0.057  0.00  0.00    +0.000 C 
ATOM     43  C   UNL     1      -7.906 -37.291   2.503  0.00  0.00    +0.000 C 
ATOM     44  C   UNL     1      -8.337 -36.536   1.220  0.00  0.00    +0.000 C 
ATOM     45  C   UNL     1      -9.090 -37.496   3.445  0.00  0.00    +0.000 C 
BRANCH  42  46
ATOM     46  O   UNL     1      -8.134 -36.535  -1.235  0.00  0.00    +0.000 OA
ATOM     47  H   UNL     1      -8.125 -37.130  -2.005  0.00  0.00    +0.000 HD
ENDBRANCH  42  46
BRANCH  44  48
ATOM     48  O   UNL     1      -7.976 -35.150   1.273  0.00  0.00    +0.000 OA
BRANCH  48  50
ATOM     49  O   UNL     1      -8.558 -33.552  -0.347  0.00  0.00    +0.000 OA
ATOM     50  C   UNL     1      -8.933 -34.175   0.876  0.00  0.00    +0.000 C 
ATOM     51  C   UNL     1      -8.970 -33.119   1.986  0.00  0.00    +0.000 C 
ATOM     52  C   UNL     1      -9.359 -31.740   1.460  0.00  0.00    +0.000 C 
ATOM     53  C   UNL     1      -9.578 -32.680  -0.867  0.00  0.00    +0.000 C 
ATOM     54  C   UNL     1     -10.268 -31.853   0.234  0.00  0.00    +0.000 C 
ATOM     55  C   UNL     1      -8.887 -31.780  -1.885  0.00  0.00    +0.000 C 
BRANCH  52  56
ATOM     56  O   UNL     1     -10.052 -31.030   2.494  0.00  0.00    +0.000 OA
ATOM     57  H   UNL     1      -9.405 -30.828   3.194  0.00  0.00    +0.000 HD
ENDBRANCH  52  56
BRANCH  54  58
ATOM     58  O   UNL     1     -11.480 -32.517   0.633  0.00  0.00    +0.000 OA
ATOM     59  H   UNL     1     -12.151 -31.810   0.729  0.00  0.00    +0.000 HD
ENDBRANCH  54  58
ENDBRANCH  48  50
ENDBRANCH  44  48
ENDBRANCH  38  40
ENDBRANCH   6  38
TORSDOF 12
ENDMDL
MODEL 7
REMARK VINA RESULT:      -7.0     15.050     21.132
REMARK  Name = 
REMARK  17 active torsions:
REMARK  status: ('A' for Active; 'I' for Inactive)
REMARK    1  A    between atoms: O_1  and  C_14
REMARK    2  A    between atoms: O_2  and  C_32
REMARK    3  A    between atoms: O_2  and  C_36
REMARK    4  A    between atoms: O_6  and  C_39
REMARK    5  A    between atoms: O_7  and  C_41
REMARK    6  A    between atoms: O_7  and  C_43
REMARK    7  A    between atoms: O_9  and  C_47
REMARK    8  A    between atoms: O_9  and  C_49
REMARK    9  A    between atoms: O_10  and  C_45
REMARK   10  A    between atoms: O_12  and  C_51
REMARK   11  A    between atoms: O_13  and  C_53
REMARK   12  A    between atoms: C_17  and  C_29
REMARK   13  A    between atoms: C_18  and  C_30
REMARK   14  A    between atoms: C_22  and  C_33
REMARK   15  A    between atoms: C_40  and  C_42
REMARK   16  A    between atoms: C_46  and  C_48
REMARK   17  A    between atoms: C_52  and  C_54
REMARK                            x       y       z     vdW  Elec       q    Type
REMARK                         _______ _______ _______ _____ _____    ______ ____
ROOT
ATOM      1  O   UNL     1       2.958 -19.085 -14.813  0.00  0.00    +0.000 OA
ATOM      2  C   UNL     1       2.594 -18.401 -13.617  0.00  0.00    +0.000 C 
ATOM      3  C   UNL     1       1.835 -19.302 -12.639  0.00  0.00    +0.000 C 
ATOM      4  C   UNL     1       1.869 -20.757 -13.082  0.00  0.00    +0.000 C 
ATOM      5  C   UNL     1       3.853 -20.177 -14.571  0.00  0.00    +0.000 C 
ATOM      6  C   UNL     1       3.246 -21.218 -13.601  0.00  0.00    +0.000 C 
ATOM      7  C   UNL     1       4.162 -20.802 -15.930  0.00  0.00    +0.000 C 
ENDROOT
BRANCH   4   8
ATOM      8  O   UNL     1       1.321 -21.619 -12.091  0.00  0.00    +0.000 OA
ATOM      9  H   UNL     1       1.172 -22.483 -12.530  0.00  0.00    +0.000 HD
ENDBRANCH   4   8
BRANCH   2  10
ATOM     10  O   UNL     1       1.867 -17.202 -13.884  0.00  0.00    +0.000 OA
BRANCH  10  29
ATOM     11  C   UNL     1      -4.951 -17.895 -17.570  0.00  0.00    +0.000 C 
ATOM     12  C   UNL     1      -3.570 -17.719 -16.881  0.00  0.00    +0.000 C 
ATOM     13  C   UNL     1      -3.368 -16.318 -16.250  0.00  0.00    +0.000 C 
ATOM     14  C   UNL     1      -6.160 -17.454 -16.698  0.00  0.00    +0.000 C 
ATOM     15  C   UNL     1      -1.961 -16.144 -15.544  0.00  0.00    +0.000 C 
ATOM     16  C   UNL     1      -0.818 -16.602 -16.509  0.00  0.00    +0.000 C 
ATOM     17  C   UNL     1      -4.565 -15.977 -15.337  0.00  0.00    +0.000 C 
ATOM     18  C   UNL     1      -5.897 -16.058 -16.082  0.00  0.00    +0.000 C 
ATOM     19  C   UNL     1      -7.306 -17.422 -17.760  0.00  0.00    +0.000 C 
ATOM     20  C   UNL     1      -2.418 -18.046 -17.843  0.00  0.00    +0.000 C 
ATOM     21  C   UNL     1      -5.128 -17.097 -18.873  0.00  0.00    +0.000 C 
ATOM     22  C   UNL     1      -1.076 -17.985 -17.131  0.00  0.00    +0.000 C 
ATOM     23  C   UNL     1      -6.632 -16.835 -19.017  0.00  0.00    +0.000 C 
ATOM     24  C   UNL     1      -1.873 -16.941 -14.212  0.00  0.00    +0.000 C 
ATOM     25  C   UNL     1       0.569 -16.598 -15.834  0.00  0.00    +0.000 C 
ATOM     26  C   UNL     1      -6.473 -18.463 -15.575  0.00  0.00    +0.000 C 
ATOM     27  C   UNL     1      -1.769 -14.633 -15.231  0.00  0.00    +0.000 C 
ATOM     28  C   UNL     1      -0.485 -16.918 -13.573  0.00  0.00    +0.000 C 
ATOM     29  C   UNL     1       0.604 -17.400 -14.529  0.00  0.00    +0.000 C 
BRANCH  19  32
ATOM     30  O   UNL     1     -10.776 -16.626 -16.606  0.00  0.00    +0.000 OA
ATOM     31  O   UNL     1     -10.987 -14.361 -16.916  0.00  0.00    +0.000 OA
ATOM     32  C   UNL     1      -8.599 -16.768 -17.354  0.00  0.00    +0.000 C 
ATOM     33  C   UNL     1      -9.727 -17.570 -16.816  0.00  0.00    +0.000 C 
ATOM     34  C   UNL     1      -8.969 -15.491 -17.460  0.00  0.00    +0.000 C 
ATOM     35  C   UNL     1     -10.343 -15.392 -16.974  0.00  0.00    +0.000 C 
ENDBRANCH  19  32
BRANCH  11  36
ATOM     36  O   UNL     1      -5.107 -19.277 -17.935  0.00  0.00    +0.000 OA
ATOM     37  H   UNL     1      -5.510 -19.320 -18.819  0.00  0.00    +0.000 HD
ENDBRANCH  11  36
ENDBRANCH  10  29
ENDBRANCH   2  10
BRANCH   6  38
ATOM     38  O   UNL     1       4.220 -21.748 -12.696  0.00  0.00    +0.000 OA
BRANCH  38  40
ATOM     39  O   UNL     1       5.338 -23.341 -11.338  0.00  0.00    +0.000 OA
ATOM     40  C   UNL     1       4.330 -23.111 -12.313  0.00  0.00    +0.000 C 
ATOM     41  C   UNL     1       4.419 -24.116 -13.458  0.00  0.00    +0.000 C 
ATOM     42  C   UNL     1       5.248 -25.344 -13.093  0.00  0.00    +0.000 C 
ATOM     43  C   UNL     1       5.119 -24.588 -10.650  0.00  0.00    +0.000 C 
ATOM     44  C   UNL     1       5.130 -25.794 -11.623  0.00  0.00    +0.000 C 
ATOM     45  C   UNL     1       6.226 -24.713  -9.606  0.00  0.00    +0.000 C 
BRANCH  42  46
ATOM     46  O   UNL     1       4.998 -26.414 -14.003  0.00  0.00    +0.000 OA
ATOM     47  H   UNL     1       5.845 -26.851 -14.200  0.00  0.00    +0.000 HD
ENDBRANCH  42  46
BRANCH  44  48
ATOM     48  O   UNL     1       4.114 -26.750 -11.295  0.00  0.00    +0.000 OA
BRANCH  48  50
ATOM     49  O   UNL     1       3.654 -28.714 -10.093  0.00  0.00    +0.000 OA
ATOM     50  C   UNL     1       4.491 -28.102 -11.067  0.00  0.00    +0.000 C 
ATOM     51  C   UNL     1       5.931 -28.075 -10.544  0.00  0.00    +0.000 C 
ATOM     52  C   UNL     1       6.238 -29.260  -9.631  0.00  0.00    +0.000 C 
ATOM     53  C   UNL     1       3.895 -30.127  -9.954  0.00  0.00    +0.000 C 
ATOM     54  C   UNL     1       5.393 -30.479 -10.006  0.00  0.00    +0.000 C 
ATOM     55  C   UNL     1       3.277 -30.533  -8.621  0.00  0.00    +0.000 C 
BRANCH  52  56
ATOM     56  O   UNL     1       7.626 -29.593  -9.758  0.00  0.00    +0.000 OA
ATOM     57  H   UNL     1       8.135 -28.912  -9.283  0.00  0.00    +0.000 HD
ENDBRANCH  52  56
BRANCH  54  58
ATOM     58  O   UNL     1       5.739 -30.870 -11.347  0.00  0.00    +0.000 OA
ATOM     59  H   UNL     1       5.019 -30.531 -11.917  0.00  0.00    +0.000 HD
ENDBRANCH  54  58
ENDBRANCH  48  50
ENDBRANCH  44  48
ENDBRANCH  38  40
ENDBRANCH   6  38
TORSDOF 12
ENDMDL
MODEL 8
REMARK VINA RESULT:      -6.9      7.256     11.363
REMARK  Name = 
REMARK  17 active torsions:
REMARK  status: ('A' for Active; 'I' for Inactive)
REMARK    1  A    between atoms: O_1  and  C_14
REMARK    2  A    between atoms: O_2  and  C_32
REMARK    3  A    between atoms: O_2  and  C_36
REMARK    4  A    between atoms: O_6  and  C_39
REMARK    5  A    between atoms: O_7  and  C_41
REMARK    6  A    between atoms: O_7  and  C_43
REMARK    7  A    between atoms: O_9  and  C_47
REMARK    8  A    between atoms: O_9  and  C_49
REMARK    9  A    between atoms: O_10  and  C_45
REMARK   10  A    between atoms: O_12  and  C_51
REMARK   11  A    between atoms: O_13  and  C_53
REMARK   12  A    between atoms: C_17  and  C_29
REMARK   13  A    between atoms: C_18  and  C_30
REMARK   14  A    between atoms: C_22  and  C_33
REMARK   15  A    between atoms: C_40  and  C_42
REMARK   16  A    between atoms: C_46  and  C_48
REMARK   17  A    between atoms: C_52  and  C_54
REMARK                            x       y       z     vdW  Elec       q    Type
REMARK                         _______ _______ _______ _____ _____    ______ ____
ROOT
ATOM      1  O   UNL     1       2.768 -20.041   5.345  0.00  0.00    +0.000 OA
ATOM      2  C   UNL     1       1.838 -20.113   4.267  0.00  0.00    +0.000 C 
ATOM      3  C   UNL     1       0.922 -21.336   4.370  0.00  0.00    +0.000 C 
ATOM      4  C   UNL     1       1.070 -22.031   5.714  0.00  0.00    +0.000 C 
ATOM      5  C   UNL     1       2.123 -19.894   6.616  0.00  0.00    +0.000 C 
ATOM      6  C   UNL     1       1.153 -21.062   6.911  0.00  0.00    +0.000 C 
ATOM      7  C   UNL     1       3.233 -19.820   7.665  0.00  0.00    +0.000 C 
ENDROOT
BRANCH   4   8
ATOM      8  O   UNL     1       0.098 -23.056   5.884  0.00  0.00    +0.000 OA
ATOM      9  H   UNL     1      -0.160 -23.343   4.983  0.00  0.00    +0.000 HD
ENDBRANCH   4   8
BRANCH   2  10
ATOM     10  O   UNL     1       2.485 -20.060   2.995  0.00  0.00    +0.000 OA
BRANCH  10  29
ATOM     11  C   UNL     1      -0.359 -14.916  -2.104  0.00  0.00    +0.000 C 
ATOM     12  C   UNL     1       0.170 -15.987  -1.111  0.00  0.00    +0.000 C 
ATOM     13  C   UNL     1       1.088 -17.045  -1.774  0.00  0.00    +0.000 C 
ATOM     14  C   UNL     1       0.740 -14.276  -2.998  0.00  0.00    +0.000 C 
ATOM     15  C   UNL     1       1.630 -18.132  -0.757  0.00  0.00    +0.000 C 
ATOM     16  C   UNL     1       0.445 -18.720   0.080  0.00  0.00    +0.000 C 
ATOM     17  C   UNL     1       2.200 -16.342  -2.579  0.00  0.00    +0.000 C 
ATOM     18  C   UNL     1       1.635 -15.376  -3.620  0.00  0.00    +0.000 C 
ATOM     19  C   UNL     1      -0.128 -13.547  -4.074  0.00  0.00    +0.000 C 
ATOM     20  C   UNL     1      -0.982 -16.670  -0.358  0.00  0.00    +0.000 C 
ATOM     21  C   UNL     1      -1.399 -15.432  -3.115  0.00  0.00    +0.000 C 
ATOM     22  C   UNL     1      -0.453 -17.632   0.694  0.00  0.00    +0.000 C 
ATOM     23  C   UNL     1      -1.283 -14.531  -4.351  0.00  0.00    +0.000 C 
ATOM     24  C   UNL     1       2.708 -17.551   0.199  0.00  0.00    +0.000 C 
ATOM     25  C   UNL     1       0.919 -19.677   1.192  0.00  0.00    +0.000 C 
ATOM     26  C   UNL     1       1.618 -13.274  -2.222  0.00  0.00    +0.000 C 
ATOM     27  C   UNL     1       2.269 -19.282  -1.585  0.00  0.00    +0.000 C 
ATOM     28  C   UNL     1       3.152 -18.525   1.290  0.00  0.00    +0.000 C 
ATOM     29  C   UNL     1       1.977 -19.056   2.109  0.00  0.00    +0.000 C 
BRANCH  19  32
ATOM     30  O   UNL     1       1.786 -11.549  -6.594  0.00  0.00    +0.000 OA
ATOM     31  O   UNL     1       1.675 -12.788  -8.524  0.00  0.00    +0.000 OA
ATOM     32  C   UNL     1       0.585 -13.026  -5.292  0.00  0.00    +0.000 C 
ATOM     33  C   UNL     1       1.297 -11.724  -5.265  0.00  0.00    +0.000 C 
ATOM     34  C   UNL     1       0.643 -13.542  -6.521  0.00  0.00    +0.000 C 
ATOM     35  C   UNL     1       1.414 -12.616  -7.347  0.00  0.00    +0.000 C 
ENDBRANCH  19  32
BRANCH  11  36
ATOM     36  O   UNL     1      -1.023 -13.884  -1.355  0.00  0.00    +0.000 OA
ATOM     37  H   UNL     1      -0.501 -13.067  -1.423  0.00  0.00    +0.000 HD
ENDBRANCH  11  36
ENDBRANCH  10  29
ENDBRANCH   2  10
BRANCH   6  38
ATOM     38  O   UNL     1      -0.039 -20.623   7.570  0.00  0.00    +0.000 OA
BRANCH  38  40
ATOM     39  O   UNL     1      -1.130 -18.704   6.700  0.00  0.00    +0.000 OA
ATOM     40  C   UNL     1      -1.193 -20.106   6.924  0.00  0.00    +0.000 C 
ATOM     41  C   UNL     1      -2.532 -20.518   7.527  0.00  0.00    +0.000 C 
ATOM     42  C   UNL     1      -3.605 -19.447   7.351  0.00  0.00    +0.000 C 
ATOM     43  C   UNL     1      -2.052 -18.301   5.669  0.00  0.00    +0.000 C 
ATOM     44  C   UNL     1      -3.517 -18.649   6.035  0.00  0.00    +0.000 C 
ATOM     45  C   UNL     1      -1.873 -16.796   5.484  0.00  0.00    +0.000 C 
BRANCH  42  46
ATOM     46  O   UNL     1      -4.906 -19.992   7.561  0.00  0.00    +0.000 OA
ATOM     47  H   UNL     1      -4.998 -20.785   7.004  0.00  0.00    +0.000 HD
ENDBRANCH  42  46
BRANCH  44  48
ATOM     48  O   UNL     1      -4.244 -19.141   4.903  0.00  0.00    +0.000 OA
BRANCH  48  50
ATOM     49  O   UNL     1      -5.864 -18.009   3.634  0.00  0.00    +0.000 OA
ATOM     50  C   UNL     1      -4.475 -18.270   3.803  0.00  0.00    +0.000 C 
ATOM     51  C   UNL     1      -3.946 -18.987   2.556  0.00  0.00    +0.000 C 
ATOM     52  C   UNL     1      -4.692 -18.573   1.290  0.00  0.00    +0.000 C 
ATOM     53  C   UNL     1      -6.129 -17.004   2.638  0.00  0.00    +0.000 C 
ATOM     54  C   UNL     1      -5.220 -17.141   1.403  0.00  0.00    +0.000 C 
ATOM     55  C   UNL     1      -7.599 -17.155   2.265  0.00  0.00    +0.000 C 
BRANCH  52  56
ATOM     56  O   UNL     1      -3.794 -18.656   0.177  0.00  0.00    +0.000 OA
ATOM     57  H   UNL     1      -3.257 -19.460   0.293  0.00  0.00    +0.000 HD
ENDBRANCH  52  56
BRANCH  54  58
ATOM     58  O   UNL     1      -4.094 -16.257   1.544  0.00  0.00    +0.000 OA
ATOM     59  H   UNL     1      -3.980 -16.124   2.508  0.00  0.00    +0.000 HD
ENDBRANCH  54  58
ENDBRANCH  48  50
ENDBRANCH  44  48
ENDBRANCH  38  40
ENDBRANCH   6  38
TORSDOF 12
ENDMDL
MODEL 9
REMARK VINA RESULT:      -6.9      9.852     18.101
REMARK  Name = 
REMARK  17 active torsions:
REMARK  status: ('A' for Active; 'I' for Inactive)
REMARK    1  A    between atoms: O_1  and  C_14
REMARK    2  A    between atoms: O_2  and  C_32
REMARK    3  A    between atoms: O_2  and  C_36
REMARK    4  A    between atoms: O_6  and  C_39
REMARK    5  A    between atoms: O_7  and  C_41
REMARK    6  A    between atoms: O_7  and  C_43
REMARK    7  A    between atoms: O_9  and  C_47
REMARK    8  A    between atoms: O_9  and  C_49
REMARK    9  A    between atoms: O_10  and  C_45
REMARK   10  A    between atoms: O_12  and  C_51
REMARK   11  A    between atoms: O_13  and  C_53
REMARK   12  A    between atoms: C_17  and  C_29
REMARK   13  A    between atoms: C_18  and  C_30
REMARK   14  A    between atoms: C_22  and  C_33
REMARK   15  A    between atoms: C_40  and  C_42
REMARK   16  A    between atoms: C_46  and  C_48
REMARK   17  A    between atoms: C_52  and  C_54
REMARK                            x       y       z     vdW  Elec       q    Type
REMARK                         _______ _______ _______ _____ _____    ______ ____
ROOT
ATOM      1  O   UNL     1       5.738 -22.573  -1.392  0.00  0.00    +0.000 OA
ATOM      2  C   UNL     1       4.483 -22.162  -1.927  0.00  0.00    +0.000 C 
ATOM      3  C   UNL     1       4.179 -22.824  -3.274  0.00  0.00    +0.000 C 
ATOM      4  C   UNL     1       5.174 -23.931  -3.586  0.00  0.00    +0.000 C 
ATOM      5  C   UNL     1       5.782 -23.978  -1.113  0.00  0.00    +0.000 C 
ATOM      6  C   UNL     1       5.510 -24.827  -2.377  0.00  0.00    +0.000 C 
ATOM      7  C   UNL     1       7.169 -24.269  -0.540  0.00  0.00    +0.000 C 
ENDROOT
BRANCH   4   8
ATOM      8  O   UNL     1       4.794 -24.666  -4.745  0.00  0.00    +0.000 OA
ATOM      9  H   UNL     1       5.019 -25.602  -4.563  0.00  0.00    +0.000 HD
ENDBRANCH   4   8
BRANCH   2  10
ATOM     10  O   UNL     1       4.376 -20.741  -2.016  0.00  0.00    +0.000 OA
BRANCH  10  29
ATOM     11  C   UNL     1      -2.287 -17.593   0.483  0.00  0.00    +0.000 C 
ATOM     12  C   UNL     1      -0.927 -18.166  -0.003  0.00  0.00    +0.000 C 
ATOM     13  C   UNL     1       0.067 -18.461   1.149  0.00  0.00    +0.000 C 
ATOM     14  C   UNL     1      -2.939 -18.395   1.645  0.00  0.00    +0.000 C 
ATOM     15  C   UNL     1       1.449 -19.050   0.649  0.00  0.00    +0.000 C 
ATOM     16  C   UNL     1       2.024 -18.164  -0.505  0.00  0.00    +0.000 C 
ATOM     17  C   UNL     1      -0.621 -19.324   2.227  0.00  0.00    +0.000 C 
ATOM     18  C   UNL     1      -1.898 -18.673   2.757  0.00  0.00    +0.000 C 
ATOM     19  C   UNL     1      -4.050 -17.402   2.114  0.00  0.00    +0.000 C 
ATOM     20  C   UNL     1      -0.278 -17.253  -1.054  0.00  0.00    +0.000 C 
ATOM     21  C   UNL     1      -2.224 -16.153   1.023  0.00  0.00    +0.000 C 
ATOM     22  C   UNL     1       0.992 -17.876  -1.610  0.00  0.00    +0.000 C 
ATOM     23  C   UNL     1      -3.374 -16.019   2.027  0.00  0.00    +0.000 C 
ATOM     24  C   UNL     1       1.316 -20.521   0.164  0.00  0.00    +0.000 C 
ATOM     25  C   UNL     1       3.296 -18.762  -1.140  0.00  0.00    +0.000 C 
ATOM     26  C   UNL     1      -3.552 -19.727   1.166  0.00  0.00    +0.000 C 
ATOM     27  C   UNL     1       2.444 -19.011   1.844  0.00  0.00    +0.000 C 
ATOM     28  C   UNL     1       2.594 -21.080  -0.461  0.00  0.00    +0.000 C 
ATOM     29  C   UNL     1       3.112 -20.210  -1.605  0.00  0.00    +0.000 C 
BRANCH  19  32
ATOM     30  O   UNL     1      -5.785 -17.284   5.429  0.00  0.00    +0.000 OA
ATOM     31  O   UNL     1      -5.904 -19.476   6.101  0.00  0.00    +0.000 OA
ATOM     32  C   UNL     1      -4.735 -17.707   3.419  0.00  0.00    +0.000 C 
ATOM     33  C   UNL     1      -5.274 -16.619   4.274  0.00  0.00    +0.000 C 
ATOM     34  C   UNL     1      -4.903 -18.881   4.029  0.00  0.00    +0.000 C 
ATOM     35  C   UNL     1      -5.581 -18.621   5.298  0.00  0.00    +0.000 C 
ENDBRANCH  19  32
BRANCH  11  36
ATOM     36  O   UNL     1      -3.192 -17.552  -0.633  0.00  0.00    +0.000 OA
ATOM     37  H   UNL     1      -2.865 -16.897  -1.273  0.00  0.00    +0.000 HD
ENDBRANCH  11  36
ENDBRANCH  10  29
ENDBRANCH   2  10
BRANCH   6  38
ATOM     38  O   UNL     1       4.718 -25.984  -2.092  0.00  0.00    +0.000 OA
BRANCH  38  40
ATOM     39  O   UNL     1       6.543 -27.451  -2.479  0.00  0.00    +0.000 OA
ATOM     40  C   UNL     1       5.149 -27.330  -2.231  0.00  0.00    +0.000 C 
ATOM     41  C   UNL     1       4.332 -28.191  -3.190  0.00  0.00    +0.000 C 
ATOM     42  C   UNL     1       5.175 -29.267  -3.870  0.00  0.00    +0.000 C 
ATOM     43  C   UNL     1       7.015 -28.774  -2.158  0.00  0.00    +0.000 C 
ATOM     44  C   UNL     1       6.297 -29.862  -2.995  0.00  0.00    +0.000 C 
ATOM     45  C   UNL     1       8.519 -28.779  -2.420  0.00  0.00    +0.000 C 
BRANCH  42  46
ATOM     46  O   UNL     1       4.346 -30.278  -4.439  0.00  0.00    +0.000 OA
ATOM     47  H   UNL     1       4.771 -30.599  -5.254  0.00  0.00    +0.000 HD
ENDBRANCH  42  46
BRANCH  44  48
ATOM     48  O   UNL     1       5.990 -31.020  -2.209  0.00  0.00    +0.000 OA
BRANCH  48  50
ATOM     49  O   UNL     1       6.299 -31.826  -0.025  0.00  0.00    +0.000 OA
ATOM     50  C   UNL     1       5.656 -30.850  -0.837  0.00  0.00    +0.000 C 
ATOM     51  C   UNL     1       4.138 -31.030  -0.728  0.00  0.00    +0.000 C 
ATOM     52  C   UNL     1       3.715 -31.563   0.638  0.00  0.00    +0.000 C 
ATOM     53  C   UNL     1       6.121 -31.588   1.384  0.00  0.00    +0.000 C 
ATOM     54  C   UNL     1       4.694 -31.125   1.730  0.00  0.00    +0.000 C 
ATOM     55  C   UNL     1       6.461 -32.901   2.081  0.00  0.00    +0.000 C 
BRANCH  52  56
ATOM     56  O   UNL     1       2.410 -31.057   0.947  0.00  0.00    +0.000 OA
ATOM     57  H   UNL     1       1.838 -31.821   1.141  0.00  0.00    +0.000 HD
ENDBRANCH  52  56
BRANCH  54  58
ATOM     58  O   UNL     1       4.670 -29.688   1.804  0.00  0.00    +0.000 OA
ATOM     59  H   UNL     1       5.323 -29.377   1.144  0.00  0.00    +0.000 HD
ENDBRANCH  54  58
ENDBRANCH  48  50
ENDBRANCH  44  48
ENDBRANCH  38  40
ENDBRANCH   6  38
TORSDOF 12
ENDMDL
