MODEL 1
REMARK VINA RESULT:      -5.3      0.000      0.000
REMARK  Name = CHEMBL35349.pdbqt.pdb
REMARK  2 active torsions:
REMARK  status: ('A' for Active; 'I' for Inactive)
REMARK    1  A    between atoms: C_2  and  C_11
REMARK    2  A    between atoms: C_5  and  O_21
REMARK                            x       y       z     vdW  Elec       q    Type
REMARK                         _______ _______ _______ _____ _____    ______ ____
ROOT
ATOM      1  N   UNL     1       0.557 -19.433 -15.836  0.00  0.00    +0.000 N 
ATOM      2  C   UNL     1      -1.434 -18.516 -15.413  0.00  0.00    +0.000 A 
ATOM      3  C   UNL     1      -0.472 -18.019 -14.466  0.00  0.00    +0.000 A 
ATOM      4  C   UNL     1       0.756 -18.611 -14.757  0.00  0.00    +0.000 A 
ATOM      5  C   UNL     1      -0.749 -19.391 -16.244  0.00  0.00    +0.000 A 
ATOM      6  C   UNL     1      -0.535 -17.119 -13.384  0.00  0.00    +0.000 A 
ATOM      7  C   UNL     1       1.923 -18.355 -14.030  0.00  0.00    +0.000 A 
ATOM      8  C   UNL     1       0.618 -16.847 -12.644  0.00  0.00    +0.000 A 
ATOM      9  C   UNL     1       1.825 -17.457 -12.966  0.00  0.00    +0.000 A 
ATOM     10  H   UNL     1       1.266 -19.999 -16.279  0.00  0.00    +0.000 HD
ENDROOT
BRANCH   2  11
ATOM     11  C   UNL     1      -2.836 -18.171 -15.485  0.00  0.00    +0.000 C 
ATOM     12  N   UNL     1      -3.261 -16.937 -15.389  0.00  0.00    +0.000 NA
ATOM     13  C   UNL     1      -4.665 -16.989 -15.503  0.00  0.00    +0.000 A 
ATOM     14  C   UNL     1      -5.171 -18.275 -15.677  0.00  0.00    +0.000 A 
ATOM     15  C   UNL     1      -5.535 -15.917 -15.458  0.00  0.00    +0.000 A 
ATOM     16  C   UNL     1      -4.004 -19.134 -15.677  0.00  0.00    +0.000 C 
ATOM     17  C   UNL     1      -6.510 -18.569 -15.811  0.00  0.00    +0.000 A 
ATOM     18  O   UNL     1      -3.935 -20.335 -15.797  0.00  0.00    +0.000 OA
ATOM     19  C   UNL     1      -7.383 -17.485 -15.765  0.00  0.00    +0.000 A 
ATOM     20  C   UNL     1      -6.904 -16.175 -15.590  0.00  0.00    +0.000 A 
ENDBRANCH   2  11
BRANCH   5  21
ATOM     21  O   UNL     1      -1.091 -20.141 -17.285  0.00  0.00    +0.000 OA
ATOM     22  H   UNL     1      -0.480 -19.975 -18.038  0.00  0.00    +0.000 HD
ENDBRANCH   5  21
TORSDOF 2
ENDMDL
MODEL 2
REMARK VINA RESULT:      -5.2     17.251     19.151
REMARK  Name = CHEMBL35349.pdbqt.pdb
REMARK  2 active torsions:
REMARK  status: ('A' for Active; 'I' for Inactive)
REMARK    1  A    between atoms: C_2  and  C_11
REMARK    2  A    between atoms: C_5  and  O_21
REMARK                            x       y       z     vdW  Elec       q    Type
REMARK                         _______ _______ _______ _____ _____    ______ ____
ROOT
ATOM      1  N   UNL     1     -15.979 -20.830  -1.811  0.00  0.00    +0.000 N 
ATOM      2  C   UNL     1     -16.609 -19.061  -3.019  0.00  0.00    +0.000 A 
ATOM      3  C   UNL     1     -17.771 -19.677  -2.437  0.00  0.00    +0.000 A 
ATOM      4  C   UNL     1     -17.343 -20.775  -1.693  0.00  0.00    +0.000 A 
ATOM      5  C   UNL     1     -15.519 -19.812  -2.603  0.00  0.00    +0.000 A 
ATOM      6  C   UNL     1     -19.152 -19.400  -2.478  0.00  0.00    +0.000 A 
ATOM      7  C   UNL     1     -18.216 -21.610  -0.986  0.00  0.00    +0.000 A 
ATOM      8  C   UNL     1     -20.042 -20.219  -1.780  0.00  0.00    +0.000 A 
ATOM      9  C   UNL     1     -19.576 -21.305  -1.047  0.00  0.00    +0.000 A 
ATOM     10  H   UNL     1     -15.382 -21.521  -1.380  0.00  0.00    +0.000 HD
ENDROOT
BRANCH   2  11
ATOM     11  C   UNL     1     -16.582 -17.893  -3.869  0.00  0.00    +0.000 C 
ATOM     12  N   UNL     1     -17.356 -17.768  -4.916  0.00  0.00    +0.000 NA
ATOM     13  C   UNL     1     -17.054 -16.516  -5.489  0.00  0.00    +0.000 A 
ATOM     14  C   UNL     1     -16.066 -15.807  -4.810  0.00  0.00    +0.000 A 
ATOM     15  C   UNL     1     -17.632 -15.965  -6.617  0.00  0.00    +0.000 A 
ATOM     16  C   UNL     1     -15.693 -16.664  -3.703  0.00  0.00    +0.000 C 
ATOM     17  C   UNL     1     -15.608 -14.563  -5.185  0.00  0.00    +0.000 A 
ATOM     18  O   UNL     1     -14.873 -16.480  -2.833  0.00  0.00    +0.000 OA
ATOM     19  C   UNL     1     -16.194 -14.012  -6.323  0.00  0.00    +0.000 A 
ATOM     20  C   UNL     1     -17.193 -14.703  -7.031  0.00  0.00    +0.000 A 
ENDBRANCH   2  11
BRANCH   5  21
ATOM     21  O   UNL     1     -14.209 -19.739  -2.808  0.00  0.00    +0.000 OA
ATOM     22  H   UNL     1     -13.848 -18.919  -2.401  0.00  0.00    +0.000 HD
ENDBRANCH   5  21
TORSDOF 2
ENDMDL
MODEL 3
REMARK VINA RESULT:      -5.2     16.782     18.633
REMARK  Name = CHEMBL35349.pdbqt.pdb
REMARK  2 active torsions:
REMARK  status: ('A' for Active; 'I' for Inactive)
REMARK    1  A    between atoms: C_2  and  C_11
REMARK    2  A    between atoms: C_5  and  O_21
REMARK                            x       y       z     vdW  Elec       q    Type
REMARK                         _______ _______ _______ _____ _____    ______ ____
ROOT
ATOM      1  N   UNL     1     -15.428 -19.279  -1.291  0.00  0.00    +0.000 N 
ATOM      2  C   UNL     1     -15.966 -17.606  -2.668  0.00  0.00    +0.000 A 
ATOM      3  C   UNL     1     -16.294 -17.234  -1.318  0.00  0.00    +0.000 A 
ATOM      4  C   UNL     1     -15.947 -18.297  -0.488  0.00  0.00    +0.000 A 
ATOM      5  C   UNL     1     -15.431 -18.885  -2.602  0.00  0.00    +0.000 A 
ATOM      6  C   UNL     1     -16.857 -16.086  -0.727  0.00  0.00    +0.000 A 
ATOM      7  C   UNL     1     -16.130 -18.279   0.899  0.00  0.00    +0.000 A 
ATOM      8  C   UNL     1     -17.049 -16.045   0.655  0.00  0.00    +0.000 A 
ATOM      9  C   UNL     1     -16.689 -17.126   1.451  0.00  0.00    +0.000 A 
ATOM     10  H   UNL     1     -15.087 -20.175  -0.974  0.00  0.00    +0.000 HD
ENDROOT
BRANCH   2  11
ATOM     11  C   UNL     1     -16.155 -16.807  -3.858  0.00  0.00    +0.000 C 
ATOM     12  N   UNL     1     -15.464 -15.721  -4.091  0.00  0.00    +0.000 NA
ATOM     13  C   UNL     1     -15.918 -15.218  -5.327  0.00  0.00    +0.000 A 
ATOM     14  C   UNL     1     -16.922 -15.983  -5.915  0.00  0.00    +0.000 A 
ATOM     15  C   UNL     1     -15.466 -14.080  -5.970  0.00  0.00    +0.000 A 
ATOM     16  C   UNL     1     -17.143 -17.076  -4.990  0.00  0.00    +0.000 C 
ATOM     17  C   UNL     1     -17.517 -15.686  -7.122  0.00  0.00    +0.000 A 
ATOM     18  O   UNL     1     -17.919 -17.999  -5.065  0.00  0.00    +0.000 OA
ATOM     19  C   UNL     1     -17.058 -14.538  -7.765  0.00  0.00    +0.000 A 
ATOM     20  C   UNL     1     -16.046 -13.744  -7.198  0.00  0.00    +0.000 A 
ENDBRANCH   2  11
BRANCH   5  21
ATOM     21  O   UNL     1     -14.954 -19.738  -3.501  0.00  0.00    +0.000 OA
ATOM     22  H   UNL     1     -15.012 -19.349  -4.403  0.00  0.00    +0.000 HD
ENDBRANCH   5  21
TORSDOF 2
ENDMDL
MODEL 4
REMARK VINA RESULT:      -5.1      2.657      4.389
REMARK  Name = CHEMBL35349.pdbqt.pdb
REMARK  2 active torsions:
REMARK  status: ('A' for Active; 'I' for Inactive)
REMARK    1  A    between atoms: C_2  and  C_11
REMARK    2  A    between atoms: C_5  and  O_21
REMARK                            x       y       z     vdW  Elec       q    Type
REMARK                         _______ _______ _______ _____ _____    ______ ____
ROOT
ATOM      1  N   UNL     1      -4.281 -18.759 -16.870  0.00  0.00    +0.000 N 
ATOM      2  C   UNL     1      -5.396 -17.069 -15.927  0.00  0.00    +0.000 A 
ATOM      3  C   UNL     1      -4.070 -17.130 -15.374  0.00  0.00    +0.000 A 
ATOM      4  C   UNL     1      -3.404 -18.193 -15.982  0.00  0.00    +0.000 A 
ATOM      5  C   UNL     1      -5.482 -18.100 -16.852  0.00  0.00    +0.000 A 
ATOM      6  C   UNL     1      -3.375 -16.376 -14.408  0.00  0.00    +0.000 A 
ATOM      7  C   UNL     1      -2.084 -18.545 -15.680  0.00  0.00    +0.000 A 
ATOM      8  C   UNL     1      -2.056 -16.708 -14.091  0.00  0.00    +0.000 A 
ATOM      9  C   UNL     1      -1.425 -17.776 -14.719  0.00  0.00    +0.000 A 
ATOM     10  H   UNL     1      -4.084 -19.553 -17.462  0.00  0.00    +0.000 HD
ENDROOT
BRANCH   2  11
ATOM     11  C   UNL     1      -6.434 -16.122 -15.588  0.00  0.00    +0.000 C 
ATOM     12  N   UNL     1      -6.199 -14.842 -15.456  0.00  0.00    +0.000 NA
ATOM     13  C   UNL     1      -7.432 -14.243 -15.126  0.00  0.00    +0.000 A 
ATOM     14  C   UNL     1      -8.492 -15.141 -15.040  0.00  0.00    +0.000 A 
ATOM     15  C   UNL     1      -7.659 -12.899 -14.894  0.00  0.00    +0.000 A 
ATOM     16  C   UNL     1      -7.906 -16.432 -15.337  0.00  0.00    +0.000 C 
ATOM     17  C   UNL     1      -9.787 -14.785 -14.732  0.00  0.00    +0.000 A 
ATOM     18  O   UNL     1      -8.432 -17.520 -15.384  0.00  0.00    +0.000 OA
ATOM     19  C   UNL     1     -10.010 -13.429 -14.498  0.00  0.00    +0.000 A 
ATOM     20  C   UNL     1      -8.961 -12.497 -14.577  0.00  0.00    +0.000 A 
ENDBRANCH   2  11
BRANCH   5  21
ATOM     21  O   UNL     1      -6.434 -18.540 -17.666  0.00  0.00    +0.000 OA
ATOM     22  H   UNL     1      -7.251 -18.743 -17.154  0.00  0.00    +0.000 HD
ENDBRANCH   5  21
TORSDOF 2
ENDMDL
MODEL 5
REMARK VINA RESULT:      -5.0     25.495     27.213
REMARK  Name = CHEMBL35349.pdbqt.pdb
REMARK  2 active torsions:
REMARK  status: ('A' for Active; 'I' for Inactive)
REMARK    1  A    between atoms: C_2  and  C_11
REMARK    2  A    between atoms: C_5  and  O_21
REMARK                            x       y       z     vdW  Elec       q    Type
REMARK                         _______ _______ _______ _____ _____    ______ ____
ROOT
ATOM      1  N   UNL     1       2.992 -36.057   7.836  0.00  0.00    +0.000 N 
ATOM      2  C   UNL     1       3.454 -35.365   5.764  0.00  0.00    +0.000 A 
ATOM      3  C   UNL     1       4.155 -36.594   6.021  0.00  0.00    +0.000 A 
ATOM      4  C   UNL     1       3.846 -36.996   7.319  0.00  0.00    +0.000 A 
ATOM      5  C   UNL     1       2.745 -35.070   6.919  0.00  0.00    +0.000 A 
ATOM      6  C   UNL     1       5.029 -37.402   5.266  0.00  0.00    +0.000 A 
ATOM      7  C   UNL     1       4.359 -38.158   7.905  0.00  0.00    +0.000 A 
ATOM      8  C   UNL     1       5.552 -38.567   5.830  0.00  0.00    +0.000 A 
ATOM      9  C   UNL     1       5.219 -38.935   7.128  0.00  0.00    +0.000 A 
ATOM     10  H   UNL     1       2.593 -36.076   8.763  0.00  0.00    +0.000 HD
ENDROOT
BRANCH   2  11
ATOM     11  C   UNL     1       3.483 -34.591   4.543  0.00  0.00    +0.000 C 
ATOM     12  N   UNL     1       2.802 -34.932   3.480  0.00  0.00    +0.000 NA
ATOM     13  C   UNL     1       3.073 -33.954   2.502  0.00  0.00    +0.000 A 
ATOM     14  C   UNL     1       3.945 -32.955   2.928  0.00  0.00    +0.000 A 
ATOM     15  C   UNL     1       2.566 -33.910   1.217  0.00  0.00    +0.000 A 
ATOM     16  C   UNL     1       4.271 -33.308   4.295  0.00  0.00    +0.000 C 
ATOM     17  C   UNL     1       4.354 -31.897   2.145  0.00  0.00    +0.000 A 
ATOM     18  O   UNL     1       4.994 -32.742   5.081  0.00  0.00    +0.000 OA
ATOM     19  C   UNL     1       3.840 -31.858   0.850  0.00  0.00    +0.000 A 
ATOM     20  C   UNL     1       2.958 -32.851   0.391  0.00  0.00    +0.000 A 
ENDBRANCH   2  11
BRANCH   5  21
ATOM     21  O   UNL     1       1.930 -34.086   7.281  0.00  0.00    +0.000 OA
ATOM     22  H   UNL     1       2.280 -33.633   8.082  0.00  0.00    +0.000 HD
ENDBRANCH   5  21
TORSDOF 2
ENDMDL
MODEL 6
REMARK VINA RESULT:      -4.8     15.497     17.228
REMARK  Name = CHEMBL35349.pdbqt.pdb
REMARK  2 active torsions:
REMARK  status: ('A' for Active; 'I' for Inactive)
REMARK    1  A    between atoms: C_2  and  C_11
REMARK    2  A    between atoms: C_5  and  O_21
REMARK                            x       y       z     vdW  Elec       q    Type
REMARK                         _______ _______ _______ _____ _____    ______ ____
ROOT
ATOM      1  N   UNL     1       3.112 -36.608 -10.378  0.00  0.00    +0.000 N 
ATOM      2  C   UNL     1       2.615 -34.444 -10.621  0.00  0.00    +0.000 A 
ATOM      3  C   UNL     1       1.421 -35.171 -10.284  0.00  0.00    +0.000 A 
ATOM      4  C   UNL     1       1.766 -36.513 -10.140  0.00  0.00    +0.000 A 
ATOM      5  C   UNL     1       3.641 -35.378 -10.669  0.00  0.00    +0.000 A 
ATOM      6  C   UNL     1       0.074 -34.807 -10.088  0.00  0.00    +0.000 A 
ATOM      7  C   UNL     1       0.843 -37.512  -9.812  0.00  0.00    +0.000 A 
ATOM      8  C   UNL     1      -0.865 -35.787  -9.759  0.00  0.00    +0.000 A 
ATOM      9  C   UNL     1      -0.482 -37.116  -9.624  0.00  0.00    +0.000 A 
ATOM     10  H   UNL     1       3.654 -37.459 -10.347  0.00  0.00    +0.000 HD
ENDROOT
BRANCH   2  11
ATOM     11  C   UNL     1       2.726 -33.024 -10.863  0.00  0.00    +0.000 C 
ATOM     12  N   UNL     1       3.234 -32.199  -9.983  0.00  0.00    +0.000 NA
ATOM     13  C   UNL     1       3.177 -30.915 -10.561  0.00  0.00    +0.000 A 
ATOM     14  C   UNL     1       2.625 -30.894 -11.839  0.00  0.00    +0.000 A 
ATOM     15  C   UNL     1       3.607 -29.734  -9.987  0.00  0.00    +0.000 A 
ATOM     16  C   UNL     1       2.292 -32.276 -12.120  0.00  0.00    +0.000 C 
ATOM     17  C   UNL     1       2.468 -29.754 -12.597  0.00  0.00    +0.000 A 
ATOM     18  O   UNL     1       1.789 -32.758 -13.108  0.00  0.00    +0.000 OA
ATOM     19  C   UNL     1       2.902 -28.565 -12.013  0.00  0.00    +0.000 A 
ATOM     20  C   UNL     1       3.464 -28.554 -10.725  0.00  0.00    +0.000 A 
ENDBRANCH   2  11
BRANCH   5  21
ATOM     21  O   UNL     1       4.942 -35.314 -10.922  0.00  0.00    +0.000 OA
ATOM     22  H   UNL     1       5.093 -35.061 -11.862  0.00  0.00    +0.000 HD
ENDBRANCH   5  21
TORSDOF 2
ENDMDL
MODEL 7
REMARK VINA RESULT:      -4.6     15.033     16.979
REMARK  Name = CHEMBL35349.pdbqt.pdb
REMARK  2 active torsions:
REMARK  status: ('A' for Active; 'I' for Inactive)
REMARK    1  A    between atoms: C_2  and  C_11
REMARK    2  A    between atoms: C_5  and  O_21
REMARK                            x       y       z     vdW  Elec       q    Type
REMARK                         _______ _______ _______ _____ _____    ______ ____
ROOT
ATOM      1  N   UNL     1       3.666 -36.036 -10.426  0.00  0.00    +0.000 N 
ATOM      2  C   UNL     1       3.340 -33.848 -10.730  0.00  0.00    +0.000 A 
ATOM      3  C   UNL     1       2.076 -34.485 -10.478  0.00  0.00    +0.000 A 
ATOM      4  C   UNL     1       2.315 -35.846 -10.294  0.00  0.00    +0.000 A 
ATOM      5  C   UNL     1       4.299 -34.850 -10.688  0.00  0.00    +0.000 A 
ATOM      6  C   UNL     1       0.747 -34.027 -10.392  0.00  0.00    +0.000 A 
ATOM      7  C   UNL     1       1.302 -36.774 -10.028  0.00  0.00    +0.000 A 
ATOM      8  C   UNL     1      -0.281 -34.935 -10.126  0.00  0.00    +0.000 A 
ATOM      9  C   UNL     1      -0.002 -36.285  -9.948  0.00  0.00    +0.000 A 
ATOM     10  H   UNL     1       4.143 -36.921 -10.344  0.00  0.00    +0.000 HD
ENDROOT
BRANCH   2  11
ATOM     11  C   UNL     1       3.567 -32.442 -10.978  0.00  0.00    +0.000 C 
ATOM     12  N   UNL     1       4.139 -32.005 -12.070  0.00  0.00    +0.000 NA
ATOM     13  C   UNL     1       4.189 -30.601 -11.960  0.00  0.00    +0.000 A 
ATOM     14  C   UNL     1       3.643 -30.106 -10.778  0.00  0.00    +0.000 A 
ATOM     15  C   UNL     1       4.712 -29.719 -12.887  0.00  0.00    +0.000 A 
ATOM     16  C   UNL     1       3.200 -31.282 -10.057  0.00  0.00    +0.000 C 
ATOM     17  C   UNL     1       3.582 -28.769 -10.452  0.00  0.00    +0.000 A 
ATOM     18  O   UNL     1       2.662 -31.362  -8.977  0.00  0.00    +0.000 OA
ATOM     19  C   UNL     1       4.111 -27.885 -11.390  0.00  0.00    +0.000 A 
ATOM     20  C   UNL     1       4.669 -28.352 -12.592  0.00  0.00    +0.000 A 
ENDBRANCH   2  11
BRANCH   5  21
ATOM     21  O   UNL     1       5.618 -34.879 -10.840  0.00  0.00    +0.000 OA
ATOM     22  H   UNL     1       5.876 -35.639 -11.410  0.00  0.00    +0.000 HD
ENDBRANCH   5  21
TORSDOF 2
ENDMDL
MODEL 8
REMARK VINA RESULT:      -4.4     11.158     13.639
REMARK  Name = CHEMBL35349.pdbqt.pdb
REMARK  2 active torsions:
REMARK  status: ('A' for Active; 'I' for Inactive)
REMARK    1  A    between atoms: C_2  and  C_11
REMARK    2  A    between atoms: C_5  and  O_21
REMARK                            x       y       z     vdW  Elec       q    Type
REMARK                         _______ _______ _______ _____ _____    ______ ____
ROOT
ATOM      1  N   UNL     1      -2.030 -13.891  -0.306  0.00  0.00    +0.000 N 
ATOM      2  C   UNL     1      -1.085 -14.421  -2.258  0.00  0.00    +0.000 A 
ATOM      3  C   UNL     1      -1.594 -15.615  -1.637  0.00  0.00    +0.000 A 
ATOM      4  C   UNL     1      -2.175 -15.249  -0.424  0.00  0.00    +0.000 A 
ATOM      5  C   UNL     1      -1.379 -13.376  -1.395  0.00  0.00    +0.000 A 
ATOM      6  C   UNL     1      -1.611 -16.977  -1.997  0.00  0.00    +0.000 A 
ATOM      7  C   UNL     1      -2.772 -16.165   0.448  0.00  0.00    +0.000 A 
ATOM      8  C   UNL     1      -2.203 -17.909  -1.143  0.00  0.00    +0.000 A 
ATOM      9  C   UNL     1      -2.773 -17.505   0.059  0.00  0.00    +0.000 A 
ATOM     10  H   UNL     1      -2.354 -13.334   0.471  0.00  0.00    +0.000 HD
ENDROOT
BRANCH   2  11
ATOM     11  C   UNL     1      -0.402 -14.330  -3.529  0.00  0.00    +0.000 C 
ATOM     12  N   UNL     1      -0.930 -13.734  -4.567  0.00  0.00    +0.000 NA
ATOM     13  C   UNL     1       0.012 -13.842  -5.610  0.00  0.00    +0.000 A 
ATOM     14  C   UNL     1       1.176 -14.518  -5.253  0.00  0.00    +0.000 A 
ATOM     15  C   UNL     1      -0.123 -13.352  -6.896  0.00  0.00    +0.000 A 
ATOM     16  C   UNL     1       0.980 -14.882  -3.865  0.00  0.00    +0.000 C 
ATOM     17  C   UNL     1       2.233 -14.744  -6.107  0.00  0.00    +0.000 A 
ATOM     18  O   UNL     1       1.717 -15.483  -3.118  0.00  0.00    +0.000 OA
ATOM     19  C   UNL     1       2.093 -14.250  -7.402  0.00  0.00    +0.000 A 
ATOM     20  C   UNL     1       0.930 -13.563  -7.793  0.00  0.00    +0.000 A 
ENDBRANCH   2  11
BRANCH   5  21
ATOM     21  O   UNL     1      -1.167 -12.065  -1.419  0.00  0.00    +0.000 OA
ATOM     22  H   UNL     1      -1.581 -11.640  -0.634  0.00  0.00    +0.000 HD
ENDBRANCH   5  21
TORSDOF 2
ENDMDL
MODEL 9
REMARK VINA RESULT:      -4.4     23.869     24.820
REMARK  Name = CHEMBL35349.pdbqt.pdb
REMARK  2 active torsions:
REMARK  status: ('A' for Active; 'I' for Inactive)
REMARK    1  A    between atoms: C_2  and  C_11
REMARK    2  A    between atoms: C_5  and  O_21
REMARK                            x       y       z     vdW  Elec       q    Type
REMARK                         _______ _______ _______ _____ _____    ______ ____
ROOT
ATOM      1  N   UNL     1       0.758 -40.408  -5.925  0.00  0.00    +0.000 N 
ATOM      2  C   UNL     1       0.391 -39.564  -3.891  0.00  0.00    +0.000 A 
ATOM      3  C   UNL     1       1.804 -39.568  -4.155  0.00  0.00    +0.000 A 
ATOM      4  C   UNL     1       1.998 -40.100  -5.428  0.00  0.00    +0.000 A 
ATOM      5  C   UNL     1      -0.219 -40.095  -5.018  0.00  0.00    +0.000 A 
ATOM      6  C   UNL     1       2.940 -39.167  -3.423  0.00  0.00    +0.000 A 
ATOM      7  C   UNL     1       3.260 -40.254  -6.011  0.00  0.00    +0.000 A 
ATOM      8  C   UNL     1       4.210 -39.311  -3.985  0.00  0.00    +0.000 A 
ATOM      9  C   UNL     1       4.362 -39.846  -5.259  0.00  0.00    +0.000 A 
ATOM     10  H   UNL     1       0.575 -40.812  -6.832  0.00  0.00    +0.000 HD
ENDROOT
BRANCH   2  11
ATOM     11  C   UNL     1      -0.265 -39.098  -2.690  0.00  0.00    +0.000 C 
ATOM     12  N   UNL     1      -1.052 -38.053  -2.679  0.00  0.00    +0.000 NA
ATOM     13  C   UNL     1      -1.501 -37.906  -1.352  0.00  0.00    +0.000 A 
ATOM     14  C   UNL     1      -1.004 -38.867  -0.476  0.00  0.00    +0.000 A 
ATOM     15  C   UNL     1      -2.356 -36.929  -0.875  0.00  0.00    +0.000 A 
ATOM     16  C   UNL     1      -0.161 -39.712  -1.297  0.00  0.00    +0.000 C 
ATOM     17  C   UNL     1      -1.306 -38.923   0.867  0.00  0.00    +0.000 A 
ATOM     18  O   UNL     1       0.488 -40.684  -0.984  0.00  0.00    +0.000 OA
ATOM     19  C   UNL     1      -2.167 -37.936   1.343  0.00  0.00    +0.000 A 
ATOM     20  C   UNL     1      -2.686 -36.951   0.485  0.00  0.00    +0.000 A 
ENDBRANCH   2  11
BRANCH   5  21
ATOM     21  O   UNL     1      -1.478 -40.339  -5.364  0.00  0.00    +0.000 OA
ATOM     22  H   UNL     1      -1.505 -40.838  -6.213  0.00  0.00    +0.000 HD
ENDBRANCH   5  21
TORSDOF 2
ENDMDL
