MODEL 1
REMARK VINA RESULT:      -6.0      0.000      0.000
REMARK  Name = Chlortetracycline.pdbqt.pdb
REMARK  7 active torsions:
REMARK  status: ('A' for Active; 'I' for Inactive)
REMARK    1  A    between atoms: C_7  and  O_30
REMARK    2  A    between atoms: C_8  and  N_32
REMARK    3  A    between atoms: C_9  and  O_37
REMARK    4  A    between atoms: C_12  and  O_28
REMARK    5  A    between atoms: C_15  and  O_35
REMARK    6  A    between atoms: C_16  and  C_23
REMARK    7  A    between atoms: C_20  and  O_39
REMARK                            x       y       z     vdW  Elec       q    Type
REMARK                         _______ _______ _______ _____ _____    ______ ____
ROOT
ATOM      1 CL   UNL     1       3.543 -37.788 -11.585  0.00  0.00    +0.000 Cl
ATOM      2  O   UNL     1      -1.427 -31.880 -10.282  0.00  0.00    +0.000 OA
ATOM      3  O   UNL     1      -2.842 -36.433  -6.377  0.00  0.00    +0.000 OA
ATOM      4  C   UNL     1      -2.771 -35.299  -9.628  0.00  0.00    +0.000 C 
ATOM      5  C   UNL     1      -0.247 -35.339 -10.397  0.00  0.00    +0.000 C 
ATOM      6  C   UNL     1      -1.537 -35.810 -10.080  0.00  0.00    +0.000 C 
ATOM      7  C   UNL     1      -2.769 -33.794  -9.497  0.00  0.00    +0.000 C 
ATOM      8  C   UNL     1      -3.517 -36.027  -8.616  0.00  0.00    +0.000 C 
ATOM      9  C   UNL     1       0.882 -36.114 -11.018  0.00  0.00    +0.000 C 
ATOM     10  C   UNL     1      -0.158 -33.900 -10.267  0.00  0.00    +0.000 C 
ATOM     11  C   UNL     1      -1.435 -33.096 -10.044  0.00  0.00    +0.000 C 
ATOM     12  C   UNL     1      -2.974 -33.316  -8.056  0.00  0.00    +0.000 C 
ATOM     13  C   UNL     1       2.236 -35.437 -10.876  0.00  0.00    +0.000 A 
ATOM     14  C   UNL     1      -3.183 -35.619  -7.223  0.00  0.00    +0.000 C 
ATOM     15  C   UNL     1       1.030 -33.276 -10.373  0.00  0.00    +0.000 C 
ATOM     16  C   UNL     1      -3.142 -34.140  -6.996  0.00  0.00    +0.000 C 
ATOM     17  C   UNL     1       2.299 -34.053 -10.528  0.00  0.00    +0.000 A 
ATOM     18  C   UNL     1       0.532 -36.378 -12.497  0.00  0.00    +0.000 C 
ATOM     19  C   UNL     1       3.449 -36.136 -11.087  0.00  0.00    +0.000 A 
ATOM     20  C   UNL     1       3.570 -33.467 -10.339  0.00  0.00    +0.000 A 
ATOM     21  C   UNL     1       4.683 -35.512 -10.924  0.00  0.00    +0.000 A 
ATOM     22  C   UNL     1       4.746 -34.187 -10.537  0.00  0.00    +0.000 A 
ENDROOT
BRANCH  16  23
ATOM     23  C   UNL     1      -3.391 -33.639  -5.614  0.00  0.00    +0.000 C 
ATOM     24  O   UNL     1      -4.404 -33.016  -5.322  0.00  0.00    +0.000 OA
ATOM     25  N   UNL     1      -2.430 -33.887  -4.684  0.00  0.00    +0.000 N 
ATOM     26  H   UNL     1      -1.492 -34.140  -4.976  0.00  0.00    +0.000 HD
ATOM     27  H   UNL     1      -2.544 -33.445  -3.782  0.00  0.00    +0.000 HD
ENDBRANCH  16  23
BRANCH   8  28
ATOM     28  N   UNL     1      -4.814 -36.585  -8.892  0.00  0.00    +0.000 NA
ATOM     29  C   UNL     1      -4.853 -38.040  -8.858  0.00  0.00    +0.000 C 
ATOM     30  C   UNL     1      -5.862 -36.089  -8.025  0.00  0.00    +0.000 C 
ENDBRANCH   8  28
BRANCH  12  31
ATOM     31  O   UNL     1      -3.058 -31.930  -7.898  0.00  0.00    +0.000 OA
ATOM     32  H   UNL     1      -4.009 -31.676  -7.887  0.00  0.00    +0.000 HD
ENDBRANCH  12  31
BRANCH   7  33
ATOM     33  O   UNL     1      -3.897 -33.285 -10.211  0.00  0.00    +0.000 OA
ATOM     34  H   UNL     1      -4.660 -33.276  -9.605  0.00  0.00    +0.000 HD
ENDBRANCH   7  33
BRANCH  15  35
ATOM     35  O   UNL     1       1.160 -31.904 -10.369  0.00  0.00    +0.000 OA
ATOM     36  H   UNL     1       1.764 -31.616 -11.085  0.00  0.00    +0.000 HD
ENDBRANCH  15  35
BRANCH   9  37
ATOM     37  O   UNL     1       0.887 -37.374 -10.377  0.00  0.00    +0.000 OA
ATOM     38  H   UNL     1       1.834 -37.602 -10.415  0.00  0.00    +0.000 HD
ENDBRANCH   9  37
BRANCH  20  39
ATOM     39  O   UNL     1       3.706 -32.176  -9.907  0.00  0.00    +0.000 OA
ATOM     40  H   UNL     1       3.038 -31.990  -9.225  0.00  0.00    +0.000 HD
ENDBRANCH  20  39
TORSDOF 7
ENDMDL
MODEL 2
REMARK VINA RESULT:      -6.0      3.941      6.291
REMARK  Name = Chlortetracycline.pdbqt.pdb
REMARK  7 active torsions:
REMARK  status: ('A' for Active; 'I' for Inactive)
REMARK    1  A    between atoms: C_7  and  O_30
REMARK    2  A    between atoms: C_8  and  N_32
REMARK    3  A    between atoms: C_9  and  O_37
REMARK    4  A    between atoms: C_12  and  O_28
REMARK    5  A    between atoms: C_15  and  O_35
REMARK    6  A    between atoms: C_16  and  C_23
REMARK    7  A    between atoms: C_20  and  O_39
REMARK                            x       y       z     vdW  Elec       q    Type
REMARK                         _______ _______ _______ _____ _____    ______ ____
ROOT
ATOM      1 CL   UNL     1      -1.689 -35.478 -10.769  0.00  0.00    +0.000 Cl
ATOM      2  O   UNL     1      -6.547 -34.476  -4.711  0.00  0.00    +0.000 OA
ATOM      3  O   UNL     1      -2.182 -38.471  -2.989  0.00  0.00    +0.000 OA
ATOM      4  C   UNL     1      -4.937 -37.833  -4.956  0.00  0.00    +0.000 C 
ATOM      5  C   UNL     1      -4.148 -36.195  -6.869  0.00  0.00    +0.000 C 
ATOM      6  C   UNL     1      -4.335 -37.395  -6.154  0.00  0.00    +0.000 C 
ATOM      7  C   UNL     1      -5.665 -36.728  -4.228  0.00  0.00    +0.000 C 
ATOM      8  C   UNL     1      -4.243 -38.798  -4.121  0.00  0.00    +0.000 C 
ATOM      9  C   UNL     1      -3.569 -36.034  -8.247  0.00  0.00    +0.000 C 
ATOM     10  C   UNL     1      -4.796 -35.078  -6.215  0.00  0.00    +0.000 C 
ATOM     11  C   UNL     1      -5.732 -35.349  -5.041  0.00  0.00    +0.000 C 
ATOM     12  C   UNL     1      -5.065 -36.415  -2.854  0.00  0.00    +0.000 C 
ATOM     13  C   UNL     1      -3.154 -34.607  -8.570  0.00  0.00    +0.000 A 
ATOM     14  C   UNL     1      -3.363 -38.173  -3.095  0.00  0.00    +0.000 C 
ATOM     15  C   UNL     1      -4.603 -33.822  -6.657  0.00  0.00    +0.000 C 
ATOM     16  C   UNL     1      -3.993 -37.053  -2.327  0.00  0.00    +0.000 C 
ATOM     17  C   UNL     1      -3.641 -33.532  -7.765  0.00  0.00    +0.000 A 
ATOM     18  C   UNL     1      -4.593 -36.572  -9.267  0.00  0.00    +0.000 C 
ATOM     19  C   UNL     1      -2.300 -34.303  -9.657  0.00  0.00    +0.000 A 
ATOM     20  C   UNL     1      -3.187 -32.225  -8.048  0.00  0.00    +0.000 A 
ATOM     21  C   UNL     1      -1.903 -32.996  -9.923  0.00  0.00    +0.000 A 
ATOM     22  C   UNL     1      -2.331 -31.961  -9.114  0.00  0.00    +0.000 A 
ENDROOT
BRANCH  16  23
ATOM     23  C   UNL     1      -3.468 -36.758  -0.963  0.00  0.00    +0.000 C 
ATOM     24  O   UNL     1      -4.124 -36.974   0.047  0.00  0.00    +0.000 OA
ATOM     25  N   UNL     1      -2.222 -36.217  -0.885  0.00  0.00    +0.000 N 
ATOM     26  H   UNL     1      -1.803 -35.783  -1.700  0.00  0.00    +0.000 HD
ATOM     27  H   UNL     1      -1.916 -35.908   0.028  0.00  0.00    +0.000 HD
ENDBRANCH  16  23
BRANCH   8  28
ATOM     28  N   UNL     1      -4.784 -40.109  -3.877  0.00  0.00    +0.000 NA
ATOM     29  C   UNL     1      -5.306 -40.294  -2.530  0.00  0.00    +0.000 C 
ATOM     30  C   UNL     1      -5.816 -40.501  -4.815  0.00  0.00    +0.000 C 
ENDBRANCH   8  28
BRANCH  12  31
ATOM     31  O   UNL     1      -5.754 -35.452  -2.110  0.00  0.00    +0.000 OA
ATOM     32  H   UNL     1      -5.367 -35.425  -1.205  0.00  0.00    +0.000 HD
ENDBRANCH  12  31
BRANCH   7  33
ATOM     33  O   UNL     1      -6.991 -37.178  -3.950  0.00  0.00    +0.000 OA
ATOM     34  H   UNL     1      -7.188 -37.927  -4.543  0.00  0.00    +0.000 HD
ENDBRANCH   7  33
BRANCH  15  35
ATOM     35  O   UNL     1      -5.279 -32.734  -6.146  0.00  0.00    +0.000 OA
ATOM     36  H   UNL     1      -4.877 -32.450  -5.299  0.00  0.00    +0.000 HD
ENDBRANCH  15  35
BRANCH   9  37
ATOM     37  O   UNL     1      -2.454 -36.901  -8.304  0.00  0.00    +0.000 OA
ATOM     38  H   UNL     1      -2.789 -37.674  -7.815  0.00  0.00    +0.000 HD
ENDBRANCH   9  37
BRANCH  20  39
ATOM     39  O   UNL     1      -3.530 -31.162  -7.257  0.00  0.00    +0.000 OA
ATOM     40  H   UNL     1      -4.393 -31.331  -6.843  0.00  0.00    +0.000 HD
ENDBRANCH  20  39
TORSDOF 7
ENDMDL
MODEL 3
REMARK VINA RESULT:      -5.9      1.665      2.063
REMARK  Name = Chlortetracycline.pdbqt.pdb
REMARK  7 active torsions:
REMARK  status: ('A' for Active; 'I' for Inactive)
REMARK    1  A    between atoms: C_7  and  O_30
REMARK    2  A    between atoms: C_8  and  N_32
REMARK    3  A    between atoms: C_9  and  O_37
REMARK    4  A    between atoms: C_12  and  O_28
REMARK    5  A    between atoms: C_15  and  O_35
REMARK    6  A    between atoms: C_16  and  C_23
REMARK    7  A    between atoms: C_20  and  O_39
REMARK                            x       y       z     vdW  Elec       q    Type
REMARK                         _______ _______ _______ _____ _____    ______ ____
ROOT
ATOM      1 CL   UNL     1       2.474 -38.933 -11.097  0.00  0.00    +0.000 Cl
ATOM      2  O   UNL     1      -2.648 -33.270  -9.369  0.00  0.00    +0.000 OA
ATOM      3  O   UNL     1      -2.357 -37.090  -4.541  0.00  0.00    +0.000 OA
ATOM      4  C   UNL     1      -3.322 -36.592  -7.810  0.00  0.00    +0.000 C 
ATOM      5  C   UNL     1      -1.121 -36.590  -9.265  0.00  0.00    +0.000 C 
ATOM      6  C   UNL     1      -2.205 -37.087  -8.514  0.00  0.00    +0.000 C 
ATOM      7  C   UNL     1      -3.473 -35.094  -7.929  0.00  0.00    +0.000 C 
ATOM      8  C   UNL     1      -3.665 -37.168  -6.521  0.00  0.00    +0.000 C 
ATOM      9  C   UNL     1      -0.117 -37.383 -10.055  0.00  0.00    +0.000 C 
ATOM     10  C   UNL     1      -1.181 -35.150  -9.400  0.00  0.00    +0.000 C 
ATOM     11  C   UNL     1      -2.438 -34.415  -8.946  0.00  0.00    +0.000 C 
ATOM     12  C   UNL     1      -3.334 -34.367  -6.587  0.00  0.00    +0.000 C 
ATOM     13  C   UNL     1       1.128 -36.593 -10.426  0.00  0.00    +0.000 A 
ATOM     14  C   UNL     1      -3.016 -36.479  -5.371  0.00  0.00    +0.000 C 
ATOM     15  C   UNL     1      -0.155 -34.472  -9.947  0.00  0.00    +0.000 C 
ATOM     16  C   UNL     1      -3.100 -34.985  -5.406  0.00  0.00    +0.000 C 
ATOM     17  C   UNL     1       1.110 -35.167 -10.339  0.00  0.00    +0.000 A 
ATOM     18  C   UNL     1      -0.823 -37.948 -11.305  0.00  0.00    +0.000 C 
ATOM     19  C   UNL     1       2.314 -37.227 -10.866  0.00  0.00    +0.000 A 
ATOM     20  C   UNL     1       2.300 -34.464 -10.626  0.00  0.00    +0.000 A 
ATOM     21  C   UNL     1       3.457 -36.494 -11.173  0.00  0.00    +0.000 A 
ATOM     22  C   UNL     1       3.457 -35.119 -11.039  0.00  0.00    +0.000 A 
ENDROOT
BRANCH  16  23
ATOM     23  C   UNL     1      -3.023 -34.250  -4.112  0.00  0.00    +0.000 C 
ATOM     24  O   UNL     1      -2.327 -33.253  -3.971  0.00  0.00    +0.000 OA
ATOM     25  N   UNL     1      -3.749 -34.747  -3.074  0.00  0.00    +0.000 N 
ATOM     26  H   UNL     1      -4.087 -35.703  -3.101  0.00  0.00    +0.000 HD
ATOM     27  H   UNL     1      -3.603 -34.320  -2.169  0.00  0.00    +0.000 HD
ENDBRANCH  16  23
BRANCH   8  28
ATOM     28  N   UNL     1      -4.907 -37.863  -6.313  0.00  0.00    +0.000 NA
ATOM     29  C   UNL     1      -5.923 -37.071  -5.633  0.00  0.00    +0.000 C 
ATOM     30  C   UNL     1      -5.492 -38.394  -7.527  0.00  0.00    +0.000 C 
ENDBRANCH   8  28
BRANCH  12  31
ATOM     31  O   UNL     1      -3.544 -32.986  -6.637  0.00  0.00    +0.000 OA
ATOM     32  H   UNL     1      -3.087 -32.632  -7.434  0.00  0.00    +0.000 HD
ENDBRANCH  12  31
BRANCH   7  33
ATOM     33  O   UNL     1      -4.807 -34.815  -8.355  0.00  0.00    +0.000 OA
ATOM     34  H   UNL     1      -5.398 -34.913  -7.585  0.00  0.00    +0.000 HD
ENDBRANCH   7  33
BRANCH  15  35
ATOM     35  O   UNL     1      -0.202 -33.118 -10.202  0.00  0.00    +0.000 OA
ATOM     36  H   UNL     1      -1.119 -32.783 -10.103  0.00  0.00    +0.000 HD
ENDBRANCH  15  35
BRANCH   9  37
ATOM     37  O   UNL     1       0.221 -38.495  -9.249  0.00  0.00    +0.000 OA
ATOM     38  H   UNL     1      -0.445 -38.426  -8.542  0.00  0.00    +0.000 HD
ENDBRANCH   9  37
BRANCH  20  39
ATOM     39  O   UNL     1       2.386 -33.107 -10.466  0.00  0.00    +0.000 OA
ATOM     40  H   UNL     1       1.677 -32.675 -10.972  0.00  0.00    +0.000 HD
ENDBRANCH  20  39
TORSDOF 7
ENDMDL
MODEL 4
REMARK VINA RESULT:      -5.9      6.777      9.636
REMARK  Name = Chlortetracycline.pdbqt.pdb
REMARK  7 active torsions:
REMARK  status: ('A' for Active; 'I' for Inactive)
REMARK    1  A    between atoms: C_7  and  O_30
REMARK    2  A    between atoms: C_8  and  N_32
REMARK    3  A    between atoms: C_9  and  O_37
REMARK    4  A    between atoms: C_12  and  O_28
REMARK    5  A    between atoms: C_15  and  O_35
REMARK    6  A    between atoms: C_16  and  C_23
REMARK    7  A    between atoms: C_20  and  O_39
REMARK                            x       y       z     vdW  Elec       q    Type
REMARK                         _______ _______ _______ _____ _____    ______ ____
ROOT
ATOM      1 CL   UNL     1      -4.211 -36.223  -7.034  0.00  0.00    +0.000 Cl
ATOM      2  O   UNL     1       0.561 -38.714  -1.349  0.00  0.00    +0.000 OA
ATOM      3  O   UNL     1      -5.240 -39.468   0.590  0.00  0.00    +0.000 OA
ATOM      4  C   UNL     1      -2.697 -37.291  -0.218  0.00  0.00    +0.000 C 
ATOM      5  C   UNL     1      -2.470 -37.323  -2.847  0.00  0.00    +0.000 C 
ATOM      6  C   UNL     1      -2.982 -37.012  -1.571  0.00  0.00    +0.000 C 
ATOM      7  C   UNL     1      -1.439 -38.106  -0.040  0.00  0.00    +0.000 C 
ATOM      8  C   UNL     1      -3.788 -37.593   0.692  0.00  0.00    +0.000 C 
ATOM      9  C   UNL     1      -2.902 -36.750  -4.169  0.00  0.00    +0.000 C 
ATOM     10  C   UNL     1      -1.272 -38.131  -2.759  0.00  0.00    +0.000 C 
ATOM     11  C   UNL     1      -0.620 -38.342  -1.396  0.00  0.00    +0.000 C 
ATOM     12  C   UNL     1      -1.697 -39.483   0.580  0.00  0.00    +0.000 C 
ATOM     13  C   UNL     1      -2.431 -37.560  -5.367  0.00  0.00    +0.000 A 
ATOM     14  C   UNL     1      -4.108 -39.045   0.775  0.00  0.00    +0.000 C 
ATOM     15  C   UNL     1      -0.723 -38.661  -3.867  0.00  0.00    +0.000 C 
ATOM     16  C   UNL     1      -2.919 -39.941   0.939  0.00  0.00    +0.000 C 
ATOM     17  C   UNL     1      -1.383 -38.518  -5.202  0.00  0.00    +0.000 A 
ATOM     18  C   UNL     1      -2.414 -35.289  -4.245  0.00  0.00    +0.000 C 
ATOM     19  C   UNL     1      -2.994 -37.390  -6.654  0.00  0.00    +0.000 A 
ATOM     20  C   UNL     1      -1.011 -39.301  -6.316  0.00  0.00    +0.000 A 
ATOM     21  C   UNL     1      -2.574 -38.160  -7.736  0.00  0.00    +0.000 A 
ATOM     22  C   UNL     1      -1.598 -39.123  -7.566  0.00  0.00    +0.000 A 
ENDROOT
BRANCH  16  23
ATOM     23  C   UNL     1      -3.127 -41.266   1.588  0.00  0.00    +0.000 C 
ATOM     24  O   UNL     1      -2.831 -42.315   1.032  0.00  0.00    +0.000 OA
ATOM     25  N   UNL     1      -3.681 -41.265   2.830  0.00  0.00    +0.000 N 
ATOM     26  H   UNL     1      -4.177 -40.447   3.166  0.00  0.00    +0.000 HD
ATOM     27  H   UNL     1      -3.931 -42.165   3.219  0.00  0.00    +0.000 HD
ENDBRANCH  16  23
BRANCH   8  28
ATOM     28  N   UNL     1      -4.093 -36.742   1.811  0.00  0.00    +0.000 NA
ATOM     29  C   UNL     1      -5.495 -36.361   1.902  0.00  0.00    +0.000 C 
ATOM     30  C   UNL     1      -3.695 -37.292   3.091  0.00  0.00    +0.000 C 
ENDBRANCH   8  28
BRANCH  12  31
ATOM     31  O   UNL     1      -0.552 -40.242   0.836  0.00  0.00    +0.000 OA
ATOM     32  H   UNL     1      -0.034 -39.794   1.544  0.00  0.00    +0.000 HD
ENDBRANCH  12  31
BRANCH   7  33
ATOM     33  O   UNL     1      -0.605 -37.434   0.905  0.00  0.00    +0.000 OA
ATOM     34  H   UNL     1       0.315 -37.718   0.753  0.00  0.00    +0.000 HD
ENDBRANCH   7  33
BRANCH  15  35
ATOM     35  O   UNL     1       0.475 -39.344  -3.858  0.00  0.00    +0.000 OA
ATOM     36  H   UNL     1       1.193 -38.768  -3.521  0.00  0.00    +0.000 HD
ENDBRANCH  15  35
BRANCH   9  37
ATOM     37  O   UNL     1      -4.314 -36.699  -4.128  0.00  0.00    +0.000 OA
ATOM     38  H   UNL     1      -4.507 -36.162  -4.919  0.00  0.00    +0.000 HD
ENDBRANCH   9  37
BRANCH  20  39
ATOM     39  O   UNL     1      -0.089 -40.307  -6.208  0.00  0.00    +0.000 OA
ATOM     40  H   UNL     1      -0.533 -41.166  -6.310  0.00  0.00    +0.000 HD
ENDBRANCH  20  39
TORSDOF 7
ENDMDL
MODEL 5
REMARK VINA RESULT:      -5.8      7.553     10.446
REMARK  Name = Chlortetracycline.pdbqt.pdb
REMARK  7 active torsions:
REMARK  status: ('A' for Active; 'I' for Inactive)
REMARK    1  A    between atoms: C_7  and  O_30
REMARK    2  A    between atoms: C_8  and  N_32
REMARK    3  A    between atoms: C_9  and  O_37
REMARK    4  A    between atoms: C_12  and  O_28
REMARK    5  A    between atoms: C_15  and  O_35
REMARK    6  A    between atoms: C_16  and  C_23
REMARK    7  A    between atoms: C_20  and  O_39
REMARK                            x       y       z     vdW  Elec       q    Type
REMARK                         _______ _______ _______ _____ _____    ______ ____
ROOT
ATOM      1 CL   UNL     1      -3.331 -37.086  -6.334  0.00  0.00    +0.000 Cl
ATOM      2  O   UNL     1      -0.719 -37.924   0.999  0.00  0.00    +0.000 OA
ATOM      3  O   UNL     1      -6.706 -39.385   0.950  0.00  0.00    +0.000 OA
ATOM      4  C   UNL     1      -4.301 -36.937   0.661  0.00  0.00    +0.000 C 
ATOM      5  C   UNL     1      -3.128 -37.288  -1.677  0.00  0.00    +0.000 C 
ATOM      6  C   UNL     1      -4.101 -36.898  -0.735  0.00  0.00    +0.000 C 
ATOM      7  C   UNL     1      -3.113 -37.493   1.408  0.00  0.00    +0.000 C 
ATOM      8  C   UNL     1      -5.608 -37.294   1.184  0.00  0.00    +0.000 C 
ATOM      9  C   UNL     1      -3.108 -36.984  -3.149  0.00  0.00    +0.000 C 
ATOM     10  C   UNL     1      -1.964 -37.860  -1.035  0.00  0.00    +0.000 C 
ATOM     11  C   UNL     1      -1.834 -37.769   0.483  0.00  0.00    +0.000 C 
ATOM     12  C   UNL     1      -3.425 -38.795   2.151  0.00  0.00    +0.000 C 
ATOM     13  C   UNL     1      -2.146 -37.858  -3.939  0.00  0.00    +0.000 A 
ATOM     14  C   UNL     1      -5.774 -38.754   1.426  0.00  0.00    +0.000 C 
ATOM     15  C   UNL     1      -0.992 -38.436  -1.768  0.00  0.00    +0.000 C 
ATOM     16  C   UNL     1      -4.635 -39.402   2.151  0.00  0.00    +0.000 C 
ATOM     17  C   UNL     1      -1.132 -38.591  -3.249  0.00  0.00    +0.000 A 
ATOM     18  C   UNL     1      -2.791 -35.485  -3.329  0.00  0.00    +0.000 C 
ATOM     19  C   UNL     1      -2.215 -37.964  -5.348  0.00  0.00    +0.000 A 
ATOM     20  C   UNL     1      -0.294 -39.444  -4.000  0.00  0.00    +0.000 A 
ATOM     21  C   UNL     1      -1.347 -38.792  -6.056  0.00  0.00    +0.000 A 
ATOM     22  C   UNL     1      -0.400 -39.541  -5.385  0.00  0.00    +0.000 A 
ENDROOT
BRANCH  16  23
ATOM     23  C   UNL     1      -4.917 -40.642   2.928  0.00  0.00    +0.000 C 
ATOM     24  O   UNL     1      -4.147 -41.593   2.937  0.00  0.00    +0.000 OA
ATOM     25  N   UNL     1      -6.087 -40.684   3.622  0.00  0.00    +0.000 N 
ATOM     26  H   UNL     1      -6.837 -40.040   3.395  0.00  0.00    +0.000 HD
ATOM     27  H   UNL     1      -6.332 -41.567   4.050  0.00  0.00    +0.000 HD
ENDBRANCH  16  23
BRANCH   8  28
ATOM     28  N   UNL     1      -6.393 -36.362   1.950  0.00  0.00    +0.000 NA
ATOM     29  C   UNL     1      -7.683 -36.043   1.355  0.00  0.00    +0.000 C 
ATOM     30  C   UNL     1      -6.623 -36.777   3.319  0.00  0.00    +0.000 C 
ENDBRANCH   8  28
BRANCH  12  31
ATOM     31  O   UNL     1      -2.376 -39.306   2.921  0.00  0.00    +0.000 OA
ATOM     32  H   UNL     1      -2.138 -40.194   2.569  0.00  0.00    +0.000 HD
ENDBRANCH  12  31
BRANCH   7  33
ATOM     33  O   UNL     1      -2.761 -36.566   2.436  0.00  0.00    +0.000 OA
ATOM     34  H   UNL     1      -2.362 -35.783   2.014  0.00  0.00    +0.000 HD
ENDBRANCH   7  33
BRANCH  15  35
ATOM     35  O   UNL     1       0.187 -38.896  -1.222  0.00  0.00    +0.000 OA
ATOM     36  H   UNL     1       0.505 -38.280  -0.528  0.00  0.00    +0.000 HD
ENDBRANCH  15  35
BRANCH   9  37
ATOM     37  O   UNL     1      -4.434 -37.170  -3.603  0.00  0.00    +0.000 OA
ATOM     38  H   UNL     1      -4.889 -36.423  -3.172  0.00  0.00    +0.000 HD
ENDBRANCH   9  37
BRANCH  20  39
ATOM     39  O   UNL     1       0.630 -40.253  -3.397  0.00  0.00    +0.000 OA
ATOM     40  H   UNL     1       0.174 -40.961  -2.912  0.00  0.00    +0.000 HD
ENDBRANCH  20  39
TORSDOF 7
ENDMDL
MODEL 6
REMARK VINA RESULT:      -5.8      5.132      9.796
REMARK  Name = Chlortetracycline.pdbqt.pdb
REMARK  7 active torsions:
REMARK  status: ('A' for Active; 'I' for Inactive)
REMARK    1  A    between atoms: C_7  and  O_30
REMARK    2  A    between atoms: C_8  and  N_32
REMARK    3  A    between atoms: C_9  and  O_37
REMARK    4  A    between atoms: C_12  and  O_28
REMARK    5  A    between atoms: C_15  and  O_35
REMARK    6  A    between atoms: C_16  and  C_23
REMARK    7  A    between atoms: C_20  and  O_39
REMARK                            x       y       z     vdW  Elec       q    Type
REMARK                         _______ _______ _______ _____ _____    ______ ____
ROOT
ATOM      1 CL   UNL     1     -10.717 -40.344  -8.289  0.00  0.00    +0.000 Cl
ATOM      2  O   UNL     1      -7.630 -34.378  -4.267  0.00  0.00    +0.000 OA
ATOM      3  O   UNL     1      -4.249 -35.173  -9.358  0.00  0.00    +0.000 OA
ATOM      4  C   UNL     1      -5.220 -36.388  -6.285  0.00  0.00    +0.000 C 
ATOM      5  C   UNL     1      -7.705 -37.235  -6.548  0.00  0.00    +0.000 C 
ATOM      6  C   UNL     1      -6.299 -37.224  -6.639  0.00  0.00    +0.000 C 
ATOM      7  C   UNL     1      -5.656 -35.161  -5.521  0.00  0.00    +0.000 C 
ATOM      8  C   UNL     1      -4.126 -36.201  -7.222  0.00  0.00    +0.000 C 
ATOM      9  C   UNL     1      -8.634 -38.365  -6.892  0.00  0.00    +0.000 C 
ATOM     10  C   UNL     1      -8.203 -36.069  -5.849  0.00  0.00    +0.000 C 
ATOM     11  C   UNL     1      -7.212 -35.150  -5.141  0.00  0.00    +0.000 C 
ATOM     12  C   UNL     1      -5.360 -33.853  -6.263  0.00  0.00    +0.000 C 
ATOM     13  C   UNL     1     -10.085 -37.936  -7.049  0.00  0.00    +0.000 A 
ATOM     14  C   UNL     1      -4.322 -35.048  -8.144  0.00  0.00    +0.000 C 
ATOM     15  C   UNL     1      -9.524 -35.816  -5.796  0.00  0.00    +0.000 C 
ATOM     16  C   UNL     1      -4.770 -33.783  -7.479  0.00  0.00    +0.000 C 
ATOM     17  C   UNL     1     -10.504 -36.670  -6.537  0.00  0.00    +0.000 A 
ATOM     18  C   UNL     1      -8.481 -39.461  -5.818  0.00  0.00    +0.000 C 
ATOM     19  C   UNL     1     -11.045 -38.758  -7.685  0.00  0.00    +0.000 A 
ATOM     20  C   UNL     1     -11.840 -36.269  -6.754  0.00  0.00    +0.000 A 
ATOM     21  C   UNL     1     -12.363 -38.339  -7.849  0.00  0.00    +0.000 A 
ATOM     22  C   UNL     1     -12.757 -37.094  -7.400  0.00  0.00    +0.000 A 
ENDROOT
BRANCH  16  23
ATOM     23  C   UNL     1      -4.451 -32.491  -8.149  0.00  0.00    +0.000 C 
ATOM     24  O   UNL     1      -4.058 -31.515  -7.525  0.00  0.00    +0.000 OA
ATOM     25  N   UNL     1      -4.633 -32.431  -9.496  0.00  0.00    +0.000 N 
ATOM     26  H   UNL     1      -5.213 -33.121  -9.962  0.00  0.00    +0.000 HD
ATOM     27  H   UNL     1      -4.532 -31.524  -9.931  0.00  0.00    +0.000 HD
ENDBRANCH  16  23
BRANCH   8  28
ATOM     28  N   UNL     1      -2.788 -36.633  -6.915  0.00  0.00    +0.000 NA
ATOM     29  C   UNL     1      -2.681 -37.398  -5.680  0.00  0.00    +0.000 C 
ATOM     30  C   UNL     1      -2.162 -37.400  -7.972  0.00  0.00    +0.000 C 
ENDBRANCH   8  28
BRANCH  12  31
ATOM     31  O   UNL     1      -5.676 -32.687  -5.559  0.00  0.00    +0.000 OA
ATOM     32  H   UNL     1      -4.842 -32.311  -5.194  0.00  0.00    +0.000 HD
ENDBRANCH  12  31
BRANCH   7  33
ATOM     33  O   UNL     1      -4.876 -35.082  -4.326  0.00  0.00    +0.000 OA
ATOM     34  H   UNL     1      -3.940 -35.214  -4.566  0.00  0.00    +0.000 HD
ENDBRANCH   7  33
BRANCH  15  35
ATOM     35  O   UNL     1     -10.061 -34.786  -5.053  0.00  0.00    +0.000 OA
ATOM     36  H   UNL     1     -10.164 -33.984  -5.607  0.00  0.00    +0.000 HD
ENDBRANCH  15  35
BRANCH   9  37
ATOM     37  O   UNL     1      -8.146 -38.916  -8.099  0.00  0.00    +0.000 OA
ATOM     38  H   UNL     1      -8.484 -39.829  -8.041  0.00  0.00    +0.000 HD
ENDBRANCH   9  37
BRANCH  20  39
ATOM     39  O   UNL     1     -12.285 -35.029  -6.382  0.00  0.00    +0.000 OA
ATOM     40  H   UNL     1     -12.965 -35.122  -5.693  0.00  0.00    +0.000 HD
ENDBRANCH  20  39
TORSDOF 7
ENDMDL
MODEL 7
REMARK VINA RESULT:      -5.7     22.688     24.469
REMARK  Name = Chlortetracycline.pdbqt.pdb
REMARK  7 active torsions:
REMARK  status: ('A' for Active; 'I' for Inactive)
REMARK    1  A    between atoms: C_7  and  O_30
REMARK    2  A    between atoms: C_8  and  N_32
REMARK    3  A    between atoms: C_9  and  O_37
REMARK    4  A    between atoms: C_12  and  O_28
REMARK    5  A    between atoms: C_15  and  O_35
REMARK    6  A    between atoms: C_16  and  C_23
REMARK    7  A    between atoms: C_20  and  O_39
REMARK                            x       y       z     vdW  Elec       q    Type
REMARK                         _______ _______ _______ _____ _____    ______ ____
ROOT
ATOM      1 CL   UNL     1     -17.201 -18.805 -11.087  0.00  0.00    +0.000 Cl
ATOM      2  O   UNL     1     -18.722 -15.107  -4.355  0.00  0.00    +0.000 OA
ATOM      3  O   UNL     1     -14.853 -19.745  -3.129  0.00  0.00    +0.000 OA
ATOM      4  C   UNL     1     -18.016 -18.760  -4.071  0.00  0.00    +0.000 C 
ATOM      5  C   UNL     1     -17.838 -17.890  -6.556  0.00  0.00    +0.000 C 
ATOM      6  C   UNL     1     -17.917 -18.794  -5.477  0.00  0.00    +0.000 C 
ATOM      7  C   UNL     1     -18.146 -17.358  -3.526  0.00  0.00    +0.000 C 
ATOM      8  C   UNL     1     -17.221 -19.682  -3.278  0.00  0.00    +0.000 C 
ATOM      9  C   UNL     1     -17.887 -18.213  -8.023  0.00  0.00    +0.000 C 
ATOM     10  C   UNL     1     -17.927 -16.517  -6.108  0.00  0.00    +0.000 C 
ATOM     11  C   UNL     1     -18.302 -16.233  -4.656  0.00  0.00    +0.000 C 
ATOM     12  C   UNL     1     -16.969 -16.947  -2.636  0.00  0.00    +0.000 C 
ATOM     13  C   UNL     1     -17.397 -17.081  -8.913  0.00  0.00    +0.000 A 
ATOM     14  C   UNL     1     -15.888 -19.140  -2.894  0.00  0.00    +0.000 C 
ATOM     15  C   UNL     1     -17.716 -15.502  -6.967  0.00  0.00    +0.000 C 
ATOM     16  C   UNL     1     -15.912 -17.743  -2.353  0.00  0.00    +0.000 C 
ATOM     17  C   UNL     1     -17.286 -15.761  -8.376  0.00  0.00    +0.000 A 
ATOM     18  C   UNL     1     -19.328 -18.630  -8.379  0.00  0.00    +0.000 C 
ATOM     19  C   UNL     1     -17.051 -17.289 -10.269  0.00  0.00    +0.000 A 
ATOM     20  C   UNL     1     -16.766 -14.743  -9.206  0.00  0.00    +0.000 A 
ATOM     21  C   UNL     1     -16.575 -16.250 -11.064  0.00  0.00    +0.000 A 
ATOM     22  C   UNL     1     -16.418 -14.985 -10.532  0.00  0.00    +0.000 A 
ENDROOT
BRANCH  16  23
ATOM     23  C   UNL     1     -14.809 -17.329  -1.441  0.00  0.00    +0.000 C 
ATOM     24  O   UNL     1     -15.016 -16.991  -0.282  0.00  0.00    +0.000 OA
ATOM     25  N   UNL     1     -13.550 -17.323  -1.955  0.00  0.00    +0.000 N 
ATOM     26  H   UNL     1     -13.411 -17.322  -2.960  0.00  0.00    +0.000 HD
ATOM     27  H   UNL     1     -12.822 -16.929  -1.375  0.00  0.00    +0.000 HD
ENDBRANCH  16  23
BRANCH   8  28
ATOM     28  N   UNL     1     -17.835 -20.687  -2.450  0.00  0.00    +0.000 NA
ATOM     29  C   UNL     1     -17.884 -20.342  -1.037  0.00  0.00    +0.000 C 
ATOM     30  C   UNL     1     -19.173 -21.053  -2.868  0.00  0.00    +0.000 C 
ENDBRANCH   8  28
BRANCH  12  31
ATOM     31  O   UNL     1     -17.084 -15.685  -2.046  0.00  0.00    +0.000 OA
ATOM     32  H   UNL     1     -16.403 -15.610  -1.339  0.00  0.00    +0.000 HD
ENDBRANCH  12  31
BRANCH   7  33
ATOM     33  O   UNL     1     -19.283 -17.321  -2.662  0.00  0.00    +0.000 OA
ATOM     34  H   UNL     1     -20.081 -17.457  -3.206  0.00  0.00    +0.000 HD
ENDBRANCH   7  33
BRANCH  15  35
ATOM     35  O   UNL     1     -17.896 -14.179  -6.625  0.00  0.00    +0.000 OA
ATOM     36  H   UNL     1     -18.845 -13.939  -6.680  0.00  0.00    +0.000 HD
ENDBRANCH  15  35
BRANCH   9  37
ATOM     37  O   UNL     1     -17.083 -19.363  -8.196  0.00  0.00    +0.000 OA
ATOM     38  H   UNL     1     -16.188 -18.982  -8.123  0.00  0.00    +0.000 HD
ENDBRANCH   9  37
BRANCH  20  39
ATOM     39  O   UNL     1     -16.536 -13.480  -8.730  0.00  0.00    +0.000 OA
ATOM     40  H   UNL     1     -15.852 -13.050  -9.271  0.00  0.00    +0.000 HD
ENDBRANCH  20  39
TORSDOF 7
ENDMDL
MODEL 8
REMARK VINA RESULT:      -5.6     13.947     16.689
REMARK  Name = Chlortetracycline.pdbqt.pdb
REMARK  7 active torsions:
REMARK  status: ('A' for Active; 'I' for Inactive)
REMARK    1  A    between atoms: C_7  and  O_30
REMARK    2  A    between atoms: C_8  and  N_32
REMARK    3  A    between atoms: C_9  and  O_37
REMARK    4  A    between atoms: C_12  and  O_28
REMARK    5  A    between atoms: C_15  and  O_35
REMARK    6  A    between atoms: C_16  and  C_23
REMARK    7  A    between atoms: C_20  and  O_39
REMARK                            x       y       z     vdW  Elec       q    Type
REMARK                         _______ _______ _______ _____ _____    ______ ____
ROOT
ATOM      1 CL   UNL     1       3.542 -37.028   8.685  0.00  0.00    +0.000 Cl
ATOM      2  O   UNL     1       5.336 -29.825   6.195  0.00  0.00    +0.000 OA
ATOM      3  O   UNL     1       2.749 -32.857   1.494  0.00  0.00    +0.000 OA
ATOM      4  C   UNL     1       5.449 -32.508   3.604  0.00  0.00    +0.000 C 
ATOM      5  C   UNL     1       4.698 -33.418   5.964  0.00  0.00    +0.000 C 
ATOM      6  C   UNL     1       5.134 -33.429   4.624  0.00  0.00    +0.000 C 
ATOM      7  C   UNL     1       5.375 -31.073   4.068  0.00  0.00    +0.000 C 
ATOM      8  C   UNL     1       4.998 -32.764   2.247  0.00  0.00    +0.000 C 
ATOM      9  C   UNL     1       4.575 -34.593   6.894  0.00  0.00    +0.000 C 
ATOM     10  C   UNL     1       4.575 -32.069   6.474  0.00  0.00    +0.000 C 
ATOM     11  C   UNL     1       5.113 -30.910   5.639  0.00  0.00    +0.000 C 
ATOM     12  C   UNL     1       4.298 -30.260   3.341  0.00  0.00    +0.000 C 
ATOM     13  C   UNL     1       3.727 -34.310   8.124  0.00  0.00    +0.000 A 
ATOM     14  C   UNL     1       3.662 -32.180   1.943  0.00  0.00    +0.000 C 
ATOM     15  C   UNL     1       4.025 -31.841   7.681  0.00  0.00    +0.000 C 
ATOM     16  C   UNL     1       3.486 -30.759   2.380  0.00  0.00    +0.000 C 
ATOM     17  C   UNL     1       3.436 -32.958   8.483  0.00  0.00    +0.000 A 
ATOM     18  C   UNL     1       5.995 -35.056   7.279  0.00  0.00    +0.000 C 
ATOM     19  C   UNL     1       3.217 -35.349   8.939  0.00  0.00    +0.000 A 
ATOM     20  C   UNL     1       2.592 -32.727   9.592  0.00  0.00    +0.000 A 
ATOM     21  C   UNL     1       2.416 -35.077  10.045  0.00  0.00    +0.000 A 
ATOM     22  C   UNL     1       2.091 -33.772  10.363  0.00  0.00    +0.000 A 
ENDROOT
BRANCH  16  23
ATOM     23  C   UNL     1       2.483 -29.926   1.657  0.00  0.00    +0.000 C 
ATOM     24  O   UNL     1       1.592 -29.327   2.244  0.00  0.00    +0.000 OA
ATOM     25  N   UNL     1       2.587 -29.870   0.302  0.00  0.00    +0.000 N 
ATOM     26  H   UNL     1       3.126 -30.570  -0.196  0.00  0.00    +0.000 HD
ATOM     27  H   UNL     1       1.839 -29.404  -0.194  0.00  0.00    +0.000 HD
ENDBRANCH  16  23
BRANCH   8  28
ATOM     28  N   UNL     1       5.930 -32.981   1.172  0.00  0.00    +0.000 NA
ATOM     29  C   UNL     1       5.771 -34.262   0.499  0.00  0.00    +0.000 C 
ATOM     30  C   UNL     1       5.914 -31.940   0.164  0.00  0.00    +0.000 C 
ENDBRANCH   8  28
BRANCH  12  31
ATOM     31  O   UNL     1       4.245 -28.906   3.682  0.00  0.00    +0.000 OA
ATOM     32  H   UNL     1       3.762 -28.820   4.536  0.00  0.00    +0.000 HD
ENDBRANCH  12  31
BRANCH   7  33
ATOM     33  O   UNL     1       6.604 -30.431   3.724  0.00  0.00    +0.000 OA
ATOM     34  H   UNL     1       7.201 -30.488   4.493  0.00  0.00    +0.000 HD
ENDBRANCH   7  33
BRANCH  15  35
ATOM     35  O   UNL     1       3.983 -30.593   8.263  0.00  0.00    +0.000 OA
ATOM     36  H   UNL     1       3.070 -30.236   8.241  0.00  0.00    +0.000 HD
ENDBRANCH  15  35
BRANCH   9  37
ATOM     37  O   UNL     1       4.007 -35.637   6.129  0.00  0.00    +0.000 OA
ATOM     38  H   UNL     1       3.289 -35.934   6.718  0.00  0.00    +0.000 HD
ENDBRANCH   9  37
BRANCH  20  39
ATOM     39  O   UNL     1       2.188 -31.464   9.933  0.00  0.00    +0.000 OA
ATOM     40  H   UNL     1       1.388 -31.233   9.429  0.00  0.00    +0.000 HD
ENDBRANCH  20  39
TORSDOF 7
ENDMDL
MODEL 9
REMARK VINA RESULT:      -5.5     22.405     24.062
REMARK  Name = Chlortetracycline.pdbqt.pdb
REMARK  7 active torsions:
REMARK  status: ('A' for Active; 'I' for Inactive)
REMARK    1  A    between atoms: C_7  and  O_30
REMARK    2  A    between atoms: C_8  and  N_32
REMARK    3  A    between atoms: C_9  and  O_37
REMARK    4  A    between atoms: C_12  and  O_28
REMARK    5  A    between atoms: C_15  and  O_35
REMARK    6  A    between atoms: C_16  and  C_23
REMARK    7  A    between atoms: C_20  and  O_39
REMARK                            x       y       z     vdW  Elec       q    Type
REMARK                         _______ _______ _______ _____ _____    ______ ____
ROOT
ATOM      1 CL   UNL     1      -8.974 -16.623 -17.426  0.00  0.00    +0.000 Cl
ATOM      2  O   UNL     1     -14.350 -12.076 -14.002  0.00  0.00    +0.000 OA
ATOM      3  O   UNL     1     -15.698 -17.936 -12.651  0.00  0.00    +0.000 OA
ATOM      4  C   UNL     1     -15.521 -15.463 -15.041  0.00  0.00    +0.000 C 
ATOM      5  C   UNL     1     -12.961 -15.080 -15.557  0.00  0.00    +0.000 C 
ATOM      6  C   UNL     1     -14.236 -15.681 -15.581  0.00  0.00    +0.000 C 
ATOM      7  C   UNL     1     -15.616 -14.178 -14.254  0.00  0.00    +0.000 C 
ATOM      8  C   UNL     1     -16.274 -16.589 -14.519  0.00  0.00    +0.000 C 
ATOM      9  C   UNL     1     -11.757 -15.461 -16.372  0.00  0.00    +0.000 C 
ATOM     10  C   UNL     1     -12.965 -13.850 -14.793  0.00  0.00    +0.000 C 
ATOM     11  C   UNL     1     -14.299 -13.269 -14.331  0.00  0.00    +0.000 C 
ATOM     12  C   UNL     1     -15.926 -14.403 -12.771  0.00  0.00    +0.000 C 
ATOM     13  C   UNL     1     -10.455 -14.880 -15.843  0.00  0.00    +0.000 A 
ATOM     14  C   UNL     1     -16.041 -16.840 -13.069  0.00  0.00    +0.000 C 
ATOM     15  C   UNL     1     -11.813 -13.210 -14.522  0.00  0.00    +0.000 C 
ATOM     16  C   UNL     1     -16.101 -15.619 -12.204  0.00  0.00    +0.000 C 
ATOM     17  C   UNL     1     -10.494 -13.797 -14.912  0.00  0.00    +0.000 A 
ATOM     18  C   UNL     1     -12.011 -15.043 -17.835  0.00  0.00    +0.000 C 
ATOM     19  C   UNL     1      -9.193 -15.373 -16.252  0.00  0.00    +0.000 A 
ATOM     20  C   UNL     1      -9.271 -13.321 -14.387  0.00  0.00    +0.000 A 
ATOM     21  C   UNL     1      -8.009 -14.853 -15.736  0.00  0.00    +0.000 A 
ATOM     22  C   UNL     1      -8.046 -13.841 -14.796  0.00  0.00    +0.000 A 
ENDROOT
BRANCH  16  23
ATOM     23  C   UNL     1     -16.453 -15.798 -10.767  0.00  0.00    +0.000 C 
ATOM     24  O   UNL     1     -15.861 -15.206  -9.874  0.00  0.00    +0.000 OA
ATOM     25  N   UNL     1     -17.458 -16.669 -10.481  0.00  0.00    +0.000 N 
ATOM     26  H   UNL     1     -17.748 -17.356 -11.169  0.00  0.00    +0.000 HD
ATOM     27  H   UNL     1     -17.615 -16.879  -9.505  0.00  0.00    +0.000 HD
ENDBRANCH  16  23
BRANCH   8  28
ATOM     28  N   UNL     1     -17.519 -17.003 -15.110  0.00  0.00    +0.000 NA
ATOM     29  C   UNL     1     -17.449 -18.278 -15.809  0.00  0.00    +0.000 C 
ATOM     30  C   UNL     1     -18.621 -17.066 -14.172  0.00  0.00    +0.000 C 
ENDBRANCH   8  28
BRANCH  12  31
ATOM     31  O   UNL     1     -16.101 -13.238 -12.018  0.00  0.00    +0.000 OA
ATOM     32  H   UNL     1     -16.881 -13.363 -11.431  0.00  0.00    +0.000 HD
ENDBRANCH  12  31
BRANCH   7  33
ATOM     33  O   UNL     1     -16.732 -13.436 -14.749  0.00  0.00    +0.000 OA
ATOM     34  H   UNL     1     -17.102 -13.918 -15.511  0.00  0.00    +0.000 HD
ENDBRANCH   7  33
BRANCH  15  35
ATOM     35  O   UNL     1     -11.766 -11.982 -13.897  0.00  0.00    +0.000 OA
ATOM     36  H   UNL     1     -11.825 -11.260 -14.558  0.00  0.00    +0.000 HD
ENDBRANCH  15  35
BRANCH   9  37
ATOM     37  O   UNL     1     -11.710 -16.874 -16.361  0.00  0.00    +0.000 OA
ATOM     38  H   UNL     1     -11.028 -17.046 -17.036  0.00  0.00    +0.000 HD
ENDBRANCH   9  37
BRANCH  20  39
ATOM     39  O   UNL     1      -9.237 -12.357 -13.416  0.00  0.00    +0.000 OA
ATOM     40  H   UNL     1      -9.630 -12.707 -12.598  0.00  0.00    +0.000 HD
ENDBRANCH  20  39
TORSDOF 7
ENDMDL
