MODEL 1
REMARK VINA RESULT:      -4.5      0.000      0.000
REMARK  Name = Ciclopirox.pdbqt.pdb
REMARK  2 active torsions:
REMARK  status: ('A' for Active; 'I' for Inactive)
REMARK    1  A    between atoms: N_2  and  O_15
REMARK    2  A    between atoms: C_3  and  C_9
REMARK                            x       y       z     vdW  Elec       q    Type
REMARK                         _______ _______ _______ _____ _____    ______ ____
ROOT
ATOM      1  O   UNL     1     -17.688 -16.328  -0.255  0.00  0.00    +0.000 OA
ATOM      2  N   UNL     1     -17.125 -15.881  -2.484  0.00  0.00    +0.000 N 
ATOM      3  C   UNL     1     -16.381 -16.238  -3.617  0.00  0.00    +0.000 C 
ATOM      4  C   UNL     1     -15.608 -17.266  -3.372  0.00  0.00    +0.000 C 
ATOM      5  C   UNL     1     -15.303 -18.107  -2.262  0.00  0.00    +0.000 C 
ATOM      6  C   UNL     1     -17.032 -16.566  -1.259  0.00  0.00    +0.000 C 
ATOM      7  C   UNL     1     -16.069 -17.641  -1.322  0.00  0.00    +0.000 C 
ATOM      8  C   UNL     1     -13.894 -18.509  -1.982  0.00  0.00    +0.000 C 
ENDROOT
BRANCH   3   9
ATOM      9  C   UNL     1     -16.458 -15.583  -4.891  0.00  0.00    +0.000 A 
ATOM     10  C   UNL     1     -17.203 -16.096  -6.017  0.00  0.00    +0.000 A 
ATOM     11  C   UNL     1     -17.194 -15.673  -7.504  0.00  0.00    +0.000 A 
ATOM     12  C   UNL     1     -16.245 -14.518  -7.876  0.00  0.00    +0.000 A 
ATOM     13  C   UNL     1     -15.406 -13.901  -6.742  0.00  0.00    +0.000 A 
ATOM     14  C   UNL     1     -15.605 -14.510  -5.337  0.00  0.00    +0.000 A 
ENDBRANCH   3   9
BRANCH   2  15
ATOM     15  O   UNL     1     -18.080 -14.851  -2.590  0.00  0.00    +0.000 OA
ATOM     16  H   UNL     1     -18.451 -14.996  -3.485  0.00  0.00    +0.000 HD
ENDBRANCH   2  15
TORSDOF 2
ENDMDL
MODEL 2
REMARK VINA RESULT:      -4.4     20.227     21.122
REMARK  Name = Ciclopirox.pdbqt.pdb
REMARK  2 active torsions:
REMARK  status: ('A' for Active; 'I' for Inactive)
REMARK    1  A    between atoms: N_2  and  O_15
REMARK    2  A    between atoms: C_3  and  C_9
REMARK                            x       y       z     vdW  Elec       q    Type
REMARK                         _______ _______ _______ _____ _____    ______ ____
ROOT
ATOM      1  O   UNL     1      -0.795 -27.908 -15.706  0.00  0.00    +0.000 OA
ATOM      2  N   UNL     1      -3.125 -27.735 -15.542  0.00  0.00    +0.000 N 
ATOM      3  C   UNL     1      -4.378 -27.961 -16.127  0.00  0.00    +0.000 C 
ATOM      4  C   UNL     1      -4.256 -28.479 -17.324  0.00  0.00    +0.000 C 
ATOM      5  C   UNL     1      -3.196 -28.857 -18.199  0.00  0.00    +0.000 C 
ATOM      6  C   UNL     1      -1.912 -28.042 -16.185  0.00  0.00    +0.000 C 
ATOM      7  C   UNL     1      -2.132 -28.583 -17.506  0.00  0.00    +0.000 C 
ATOM      8  C   UNL     1      -3.271 -28.544 -19.656  0.00  0.00    +0.000 C 
ENDROOT
BRANCH   3   9
ATOM      9  C   UNL     1      -5.639 -27.683 -15.503  0.00  0.00    +0.000 A 
ATOM     10  C   UNL     1      -6.197 -28.470 -14.427  0.00  0.00    +0.000 A 
ATOM     11  C   UNL     1      -7.618 -28.476 -13.820  0.00  0.00    +0.000 A 
ATOM     12  C   UNL     1      -8.627 -27.492 -14.442  0.00  0.00    +0.000 A 
ATOM     13  C   UNL     1      -8.128 -26.605 -15.597  0.00  0.00    +0.000 A 
ATOM     14  C   UNL     1      -6.653 -26.796 -16.015  0.00  0.00    +0.000 A 
ENDBRANCH   3   9
BRANCH   2  15
ATOM     15  O   UNL     1      -3.064 -27.264 -14.216  0.00  0.00    +0.000 OA
ATOM     16  H   UNL     1      -3.314 -26.322 -14.313  0.00  0.00    +0.000 HD
ENDBRANCH   2  15
TORSDOF 2
ENDMDL
MODEL 3
REMARK VINA RESULT:      -4.3     19.261     20.856
REMARK  Name = Ciclopirox.pdbqt.pdb
REMARK  2 active torsions:
REMARK  status: ('A' for Active; 'I' for Inactive)
REMARK    1  A    between atoms: N_2  and  O_15
REMARK    2  A    between atoms: C_3  and  C_9
REMARK                            x       y       z     vdW  Elec       q    Type
REMARK                         _______ _______ _______ _____ _____    ______ ____
ROOT
ATOM      1  O   UNL     1      -6.344 -36.508  -3.052  0.00  0.00    +0.000 OA
ATOM      2  N   UNL     1      -5.912 -35.030  -4.817  0.00  0.00    +0.000 N 
ATOM      3  C   UNL     1      -6.020 -33.731  -5.334  0.00  0.00    +0.000 C 
ATOM      4  C   UNL     1      -6.676 -32.948  -4.515  0.00  0.00    +0.000 C 
ATOM      5  C   UNL     1      -7.324 -33.061  -3.251  0.00  0.00    +0.000 C 
ATOM      6  C   UNL     1      -6.447 -35.405  -3.571  0.00  0.00    +0.000 C 
ATOM      7  C   UNL     1      -7.126 -34.304  -2.929  0.00  0.00    +0.000 C 
ATOM      8  C   UNL     1      -8.643 -32.402  -3.016  0.00  0.00    +0.000 C 
ENDROOT
BRANCH   3   9
ATOM      9  C   UNL     1      -5.475 -33.298  -6.588  0.00  0.00    +0.000 A 
ATOM     10  C   UNL     1      -5.922 -33.786  -7.872  0.00  0.00    +0.000 A 
ATOM     11  C   UNL     1      -5.297 -33.631  -9.278  0.00  0.00    +0.000 A 
ATOM     12  C   UNL     1      -3.984 -32.829  -9.353  0.00  0.00    +0.000 A 
ATOM     13  C   UNL     1      -3.425 -32.263  -8.035  0.00  0.00    +0.000 A 
ATOM     14  C   UNL     1      -4.248 -32.562  -6.761  0.00  0.00    +0.000 A 
ENDBRANCH   3   9
BRANCH   2  15
ATOM     15  O   UNL     1      -5.159 -35.987  -5.524  0.00  0.00    +0.000 OA
ATOM     16  H   UNL     1      -4.608 -36.387  -4.820  0.00  0.00    +0.000 HD
ENDBRANCH   2  15
TORSDOF 2
ENDMDL
MODEL 4
REMARK VINA RESULT:      -4.2     24.191     25.887
REMARK  Name = Ciclopirox.pdbqt.pdb
REMARK  2 active torsions:
REMARK  status: ('A' for Active; 'I' for Inactive)
REMARK    1  A    between atoms: N_2  and  O_15
REMARK    2  A    between atoms: C_3  and  C_9
REMARK                            x       y       z     vdW  Elec       q    Type
REMARK                         _______ _______ _______ _____ _____    ______ ____
ROOT
ATOM      1  O   UNL     1       2.123 -30.189 -13.520  0.00  0.00    +0.000 OA
ATOM      2  N   UNL     1       2.946 -30.655 -11.378  0.00  0.00    +0.000 N 
ATOM      3  C   UNL     1       2.812 -31.375 -10.182  0.00  0.00    +0.000 C 
ATOM      4  C   UNL     1       1.739 -32.126 -10.199  0.00  0.00    +0.000 C 
ATOM      5  C   UNL     1       0.663 -32.396 -11.095  0.00  0.00    +0.000 C 
ATOM      6  C   UNL     1       2.031 -30.757 -12.441  0.00  0.00    +0.000 C 
ATOM      7  C   UNL     1       0.948 -31.660 -12.127  0.00  0.00    +0.000 C 
ATOM      8  C   UNL     1      -0.735 -32.504 -10.585  0.00  0.00    +0.000 C 
ENDROOT
BRANCH   3   9
ATOM      9  C   UNL     1       3.729 -31.319  -9.082  0.00  0.00    +0.000 A 
ATOM     10  C   UNL     1       4.921 -32.129  -8.984  0.00  0.00    +0.000 A 
ATOM     11  C   UNL     1       5.867 -32.385  -7.787  0.00  0.00    +0.000 A 
ATOM     12  C   UNL     1       5.505 -31.671  -6.471  0.00  0.00    +0.000 A 
ATOM     13  C   UNL     1       4.250 -30.779  -6.473  0.00  0.00    +0.000 A 
ATOM     14  C   UNL     1       3.476 -30.693  -7.808  0.00  0.00    +0.000 A 
ENDBRANCH   3   9
BRANCH   2  15
ATOM     15  O   UNL     1       4.094 -29.862 -11.573  0.00  0.00    +0.000 OA
ATOM     16  H   UNL     1       3.712 -28.986 -11.786  0.00  0.00    +0.000 HD
ENDBRANCH   2  15
TORSDOF 2
ENDMDL
MODEL 5
REMARK VINA RESULT:      -4.1     24.595     25.545
REMARK  Name = Ciclopirox.pdbqt.pdb
REMARK  2 active torsions:
REMARK  status: ('A' for Active; 'I' for Inactive)
REMARK    1  A    between atoms: N_2  and  O_15
REMARK    2  A    between atoms: C_3  and  C_9
REMARK                            x       y       z     vdW  Elec       q    Type
REMARK                         _______ _______ _______ _____ _____    ______ ____
ROOT
ATOM      1  O   UNL     1       2.779 -27.575 -13.707  0.00  0.00    +0.000 OA
ATOM      2  N   UNL     1       3.329 -28.519 -11.636  0.00  0.00    +0.000 N 
ATOM      3  C   UNL     1       3.408 -29.668 -10.835  0.00  0.00    +0.000 C 
ATOM      4  C   UNL     1       2.956 -30.720 -11.471  0.00  0.00    +0.000 C 
ATOM      5  C   UNL     1       2.389 -31.011 -12.746  0.00  0.00    +0.000 C 
ATOM      6  C   UNL     1       2.829 -28.534 -12.950  0.00  0.00    +0.000 C 
ATOM      7  C   UNL     1       2.394 -29.855 -13.340  0.00  0.00    +0.000 C 
ATOM      8  C   UNL     1       1.222 -31.934 -12.861  0.00  0.00    +0.000 C 
ENDROOT
BRANCH   3   9
ATOM      9  C   UNL     1       3.928 -29.704  -9.500  0.00  0.00    +0.000 A 
ATOM     10  C   UNL     1       5.262 -29.280  -9.142  0.00  0.00    +0.000 A 
ATOM     11  C   UNL     1       6.063 -29.481  -7.835  0.00  0.00    +0.000 A 
ATOM     12  C   UNL     1       5.348 -30.255  -6.712  0.00  0.00    +0.000 A 
ATOM     13  C   UNL     1       3.918 -30.750  -6.995  0.00  0.00    +0.000 A 
ATOM     14  C   UNL     1       3.343 -30.414  -8.389  0.00  0.00    +0.000 A 
ENDBRANCH   3   9
BRANCH   2  15
ATOM     15  O   UNL     1       3.855 -27.308 -11.147  0.00  0.00    +0.000 OA
ATOM     16  H   UNL     1       4.815 -27.412 -11.310  0.00  0.00    +0.000 HD
ENDBRANCH   2  15
TORSDOF 2
ENDMDL
MODEL 6
REMARK VINA RESULT:      -3.8     18.899     20.991
REMARK  Name = Ciclopirox.pdbqt.pdb
REMARK  2 active torsions:
REMARK  status: ('A' for Active; 'I' for Inactive)
REMARK    1  A    between atoms: N_2  and  O_15
REMARK    2  A    between atoms: C_3  and  C_9
REMARK                            x       y       z     vdW  Elec       q    Type
REMARK                         _______ _______ _______ _____ _____    ______ ____
ROOT
ATOM      1  O   UNL     1      -7.126 -36.140  -0.326  0.00  0.00    +0.000 OA
ATOM      2  N   UNL     1      -6.260 -35.207  -2.292  0.00  0.00    +0.000 N 
ATOM      3  C   UNL     1      -6.055 -34.063  -3.076  0.00  0.00    +0.000 C 
ATOM      4  C   UNL     1      -6.595 -33.006  -2.522  0.00  0.00    +0.000 C 
ATOM      5  C   UNL     1      -7.350 -32.707  -1.350  0.00  0.00    +0.000 C 
ATOM      6  C   UNL     1      -6.957 -35.185  -1.070  0.00  0.00    +0.000 C 
ATOM      7  C   UNL     1      -7.441 -33.860  -0.758  0.00  0.00    +0.000 C 
ATOM      8  C   UNL     1      -8.518 -31.780  -1.419  0.00  0.00    +0.000 C 
ENDROOT
BRANCH   3   9
ATOM      9  C   UNL     1      -5.335 -34.034  -4.315  0.00  0.00    +0.000 A 
ATOM     10  C   UNL     1      -3.914 -34.266  -4.428  0.00  0.00    +0.000 A 
ATOM     11  C   UNL     1      -2.948 -34.030  -5.612  0.00  0.00    +0.000 A 
ATOM     12  C   UNL     1      -3.575 -33.453  -6.895  0.00  0.00    +0.000 A 
ATOM     13  C   UNL     1      -5.088 -33.171  -6.877  0.00  0.00    +0.000 A 
ATOM     14  C   UNL     1      -5.828 -33.499  -5.561  0.00  0.00    +0.000 A 
ENDBRANCH   3   9
BRANCH   2  15
ATOM     15  O   UNL     1      -5.669 -36.422  -2.689  0.00  0.00    +0.000 OA
ATOM     16  H   UNL     1      -6.134 -37.077  -2.129  0.00  0.00    +0.000 HD
ENDBRANCH   2  15
TORSDOF 2
ENDMDL
MODEL 7
REMARK VINA RESULT:      -3.8     13.425     15.523
REMARK  Name = Ciclopirox.pdbqt.pdb
REMARK  2 active torsions:
REMARK  status: ('A' for Active; 'I' for Inactive)
REMARK    1  A    between atoms: N_2  and  O_15
REMARK    2  A    between atoms: C_3  and  C_9
REMARK                            x       y       z     vdW  Elec       q    Type
REMARK                         _______ _______ _______ _____ _____    ______ ____
ROOT
ATOM      1  O   UNL     1      -1.293 -22.037   1.034  0.00  0.00    +0.000 OA
ATOM      2  N   UNL     1      -1.998 -19.859   0.541  0.00  0.00    +0.000 N 
ATOM      3  C   UNL     1      -1.673 -18.585   0.056  0.00  0.00    +0.000 C 
ATOM      4  C   UNL     1      -0.403 -18.505  -0.254  0.00  0.00    +0.000 C 
ATOM      5  C   UNL     1       0.740 -19.355  -0.213  0.00  0.00    +0.000 C 
ATOM      6  C   UNL     1      -1.056 -20.897   0.661  0.00  0.00    +0.000 C 
ATOM      7  C   UNL     1       0.261 -20.470   0.251  0.00  0.00    +0.000 C 
ATOM      8  C   UNL     1       2.058 -18.828   0.249  0.00  0.00    +0.000 C 
ENDROOT
BRANCH   3   9
ATOM      9  C   UNL     1      -2.602 -17.504  -0.102  0.00  0.00    +0.000 A 
ATOM     10  C   UNL     1      -3.136 -17.079  -1.376  0.00  0.00    +0.000 A 
ATOM     11  C   UNL     1      -3.926 -15.808  -1.761  0.00  0.00    +0.000 A 
ATOM     12  C   UNL     1      -4.207 -14.812  -0.620  0.00  0.00    +0.000 A 
ATOM     13  C   UNL     1      -3.680 -15.175   0.781  0.00  0.00    +0.000 A 
ATOM     14  C   UNL     1      -2.917 -16.513   0.897  0.00  0.00    +0.000 A 
ENDBRANCH   3   9
BRANCH   2  15
ATOM     15  O   UNL     1      -3.343 -20.154   0.840  0.00  0.00    +0.000 OA
ATOM     16  H   UNL     1      -3.425 -21.087   0.551  0.00  0.00    +0.000 HD
ENDBRANCH   2  15
TORSDOF 2
ENDMDL
MODEL 8
REMARK VINA RESULT:      -3.7     22.112     24.215
REMARK  Name = Ciclopirox.pdbqt.pdb
REMARK  2 active torsions:
REMARK  status: ('A' for Active; 'I' for Inactive)
REMARK    1  A    between atoms: N_2  and  O_15
REMARK    2  A    between atoms: C_3  and  C_9
REMARK                            x       y       z     vdW  Elec       q    Type
REMARK                         _______ _______ _______ _____ _____    ______ ____
ROOT
ATOM      1  O   UNL     1       6.148 -23.686  -6.067  0.00  0.00    +0.000 OA
ATOM      2  N   UNL     1       5.748 -25.426  -4.551  0.00  0.00    +0.000 N 
ATOM      3  C   UNL     1       5.053 -25.885  -3.424  0.00  0.00    +0.000 C 
ATOM      4  C   UNL     1       4.279 -24.950  -2.932  0.00  0.00    +0.000 C 
ATOM      5  C   UNL     1       3.965 -23.590  -3.219  0.00  0.00    +0.000 C 
ATOM      6  C   UNL     1       5.603 -24.124  -5.064  0.00  0.00    +0.000 C 
ATOM      7  C   UNL     1       4.684 -23.339  -4.272  0.00  0.00    +0.000 C 
ATOM      8  C   UNL     1       3.839 -22.593  -2.115  0.00  0.00    +0.000 C 
ENDROOT
BRANCH   3   9
ATOM      9  C   UNL     1       5.154 -27.207  -2.878  0.00  0.00    +0.000 A 
ATOM     10  C   UNL     1       4.580 -28.380  -3.496  0.00  0.00    +0.000 A 
ATOM     11  C   UNL     1       4.371 -29.807  -2.940  0.00  0.00    +0.000 A 
ATOM     12  C   UNL     1       4.844 -30.050  -1.495  0.00  0.00    +0.000 A 
ATOM     13  C   UNL     1       5.474 -28.859  -0.749  0.00  0.00    +0.000 A 
ATOM     14  C   UNL     1       5.567 -27.533  -1.536  0.00  0.00    +0.000 A 
ENDBRANCH   3   9
BRANCH   2  15
ATOM     15  O   UNL     1       6.562 -26.326  -5.266  0.00  0.00    +0.000 OA
ATOM     16  H   UNL     1       7.228 -26.587  -4.598  0.00  0.00    +0.000 HD
ENDBRANCH   2  15
TORSDOF 2
ENDMDL
MODEL 9
REMARK VINA RESULT:      -3.6     11.628     12.732
REMARK  Name = Ciclopirox.pdbqt.pdb
REMARK  2 active torsions:
REMARK  status: ('A' for Active; 'I' for Inactive)
REMARK    1  A    between atoms: N_2  and  O_15
REMARK    2  A    between atoms: C_3  and  C_9
REMARK                            x       y       z     vdW  Elec       q    Type
REMARK                         _______ _______ _______ _____ _____    ______ ____
ROOT
ATOM      1  O   UNL     1     -17.440  -3.160  -6.970  0.00  0.00    +0.000 OA
ATOM      2  N   UNL     1     -15.556  -3.830  -5.751  0.00  0.00    +0.000 N 
ATOM      3  C   UNL     1     -15.039  -4.423  -4.591  0.00  0.00    +0.000 C 
ATOM      4  C   UNL     1     -15.996  -4.748  -3.758  0.00  0.00    +0.000 C 
ATOM      5  C   UNL     1     -17.417  -4.644  -3.702  0.00  0.00    +0.000 C 
ATOM      6  C   UNL     1     -16.932  -3.630  -5.962  0.00  0.00    +0.000 C 
ATOM      7  C   UNL     1     -17.715  -4.083  -4.836  0.00  0.00    +0.000 C 
ATOM      8  C   UNL     1     -18.096  -4.238  -2.437  0.00  0.00    +0.000 C 
ENDROOT
BRANCH   3   9
ATOM      9  C   UNL     1     -13.648  -4.666  -4.341  0.00  0.00    +0.000 A 
ATOM     10  C   UNL     1     -12.703  -3.636  -3.974  0.00  0.00    +0.000 A 
ATOM     11  C   UNL     1     -11.159  -3.663  -3.917  0.00  0.00    +0.000 A 
ATOM     12  C   UNL     1     -10.488  -4.994  -4.309  0.00  0.00    +0.000 A 
ATOM     13  C   UNL     1     -11.412  -6.157  -4.715  0.00  0.00    +0.000 A 
ATOM     14  C   UNL     1     -12.929  -5.866  -4.686  0.00  0.00    +0.000 A 
ENDBRANCH   3   9
BRANCH   2  15
ATOM     15  O   UNL     1     -14.675  -3.498  -6.799  0.00  0.00    +0.000 OA
ATOM     16  H   UNL     1     -15.117  -3.890  -7.580  0.00  0.00    +0.000 HD
ENDBRANCH   2  15
TORSDOF 2
ENDMDL
