MODEL 1
REMARK VINA RESULT:      -4.5      0.000      0.000
REMARK  Name = 
REMARK  14 active torsions:
REMARK  status: ('A' for Active; 'I' for Inactive)
REMARK    1  A    between atoms: S_2  and  C_21
REMARK    2  A    between atoms: S_2  and  C_27
REMARK    3  A    between atoms: O_4  and  C_16
REMARK    4  A    between atoms: O_5  and  C_18
REMARK    5  A    between atoms: O_6  and  C_20
REMARK    6  A    between atoms: N_8  and  C_23
REMARK    7  A    between atoms: N_9  and  C_15
REMARK    8  A    between atoms: C_10  and  C_17
REMARK    9  A    between atoms: C_11  and  C_19
REMARK   10  A    between atoms: C_14  and  C_15
REMARK   11  A    between atoms: C_15  and  C_22
REMARK   12  A    between atoms: C_17  and  C_24
REMARK   13  A    between atoms: C_22  and  C_25
REMARK   14  A    between atoms: C_24  and  C_26
REMARK                            x       y       z     vdW  Elec       q    Type
REMARK                         _______ _______ _______ _____ _____    ______ ____
ROOT
ATOM      1  C   UNL     1     -15.210 -19.273   1.467  0.00  0.00    +0.000 C 
ENDROOT
BRANCH   1   3
ATOM      2  O   UNL     1     -15.734 -17.557  -0.156  0.00  0.00    +0.000 OA
ATOM      3  C   UNL     1     -15.743 -18.988   0.029  0.00  0.00    +0.000 C 
ATOM      4  C   UNL     1     -14.933 -19.695  -1.079  0.00  0.00    +0.000 C 
ATOM      5  C   UNL     1     -15.438 -19.279  -2.466  0.00  0.00    +0.000 C 
ATOM      6  C   UNL     1     -15.428 -17.750  -2.600  0.00  0.00    +0.000 C 
ATOM      7  C   UNL     1     -16.197 -17.101  -1.430  0.00  0.00    +0.000 C 
BRANCH   7   8
ATOM      8  S   UNL     1     -18.022 -17.281  -1.595  0.00  0.00    +0.000 S 
ATOM      9  C   UNL     1     -18.521 -15.789  -0.703  0.00  0.00    +0.000 C 
ENDBRANCH   7   8
BRANCH   4  10
ATOM     10  O   UNL     1     -13.538 -19.358  -1.010  0.00  0.00    +0.000 OA
ATOM     11  H   UNL     1     -13.282 -19.038  -1.908  0.00  0.00    +0.000 HD
ENDBRANCH   4  10
BRANCH   5  12
ATOM     12  O   UNL     1     -14.599 -19.879  -3.463  0.00  0.00    +0.000 OA
ATOM     13  H   UNL     1     -14.695 -19.312  -4.255  0.00  0.00    +0.000 HD
ENDBRANCH   5  12
BRANCH   6  14
ATOM     14  O   UNL     1     -15.940 -17.323  -3.871  0.00  0.00    +0.000 OA
ATOM     15  H   UNL     1     -15.589 -16.429  -4.035  0.00  0.00    +0.000 HD
ENDBRANCH   6  14
ENDBRANCH   1   3
BRANCH   1  17
ATOM     16  O   UNL     1     -14.951 -17.490   3.631  0.00  0.00    +0.000 OA
ATOM     17  N   UNL     1     -14.027 -18.461   1.795  0.00  0.00    +0.000 N 
ATOM     18  C   UNL     1     -13.971 -17.635   2.902  0.00  0.00    +0.000 C 
ATOM     19  H   UNL     1     -13.241 -18.493   1.154  0.00  0.00    +0.000 HD
BRANCH  18  22
ATOM     20  N   UNL     1     -11.488 -17.727   2.621  0.00  0.00    +0.000 NA
ATOM     21  C   UNL     1     -11.300 -15.835   1.314  0.00  0.00    +0.000 C 
ATOM     22  C   UNL     1     -12.627 -16.896   3.058  0.00  0.00    +0.000 C 
ATOM     23  C   UNL     1     -12.554 -15.645   2.171  0.00  0.00    +0.000 C 
ATOM     24  C   UNL     1     -10.464 -16.804   2.142  0.00  0.00    +0.000 C 
ATOM     25  C   UNL     1     -10.998 -18.619   3.661  0.00  0.00    +0.000 C 
BRANCH  21  26
ATOM     26  C   UNL     1     -10.553 -14.542   0.981  0.00  0.00    +0.000 C 
BRANCH  26  27
ATOM     27  C   UNL     1      -9.108 -14.556   1.485  0.00  0.00    +0.000 C 
ATOM     28  C   UNL     1      -8.332 -13.352   0.977  0.00  0.00    +0.000 C 
ENDBRANCH  26  27
ENDBRANCH  21  26
ENDBRANCH  18  22
ENDBRANCH   1  17
BRANCH   1  30
ATOM     29 CL   UNL     1     -13.142 -21.074   1.842  0.00  0.00    +0.000 Cl
ATOM     30  C   UNL     1     -14.912 -20.782   1.690  0.00  0.00    +0.000 C 
ATOM     31  C   UNL     1     -15.601 -21.323   2.941  0.00  0.00    +0.000 C 
ENDBRANCH   1  30
TORSDOF 10
ENDMDL
MODEL 2
REMARK VINA RESULT:      -4.2      7.533     10.747
REMARK  Name = 
REMARK  14 active torsions:
REMARK  status: ('A' for Active; 'I' for Inactive)
REMARK    1  A    between atoms: S_2  and  C_21
REMARK    2  A    between atoms: S_2  and  C_27
REMARK    3  A    between atoms: O_4  and  C_16
REMARK    4  A    between atoms: O_5  and  C_18
REMARK    5  A    between atoms: O_6  and  C_20
REMARK    6  A    between atoms: N_8  and  C_23
REMARK    7  A    between atoms: N_9  and  C_15
REMARK    8  A    between atoms: C_10  and  C_17
REMARK    9  A    between atoms: C_11  and  C_19
REMARK   10  A    between atoms: C_14  and  C_15
REMARK   11  A    between atoms: C_15  and  C_22
REMARK   12  A    between atoms: C_17  and  C_24
REMARK   13  A    between atoms: C_22  and  C_25
REMARK   14  A    between atoms: C_24  and  C_26
REMARK                            x       y       z     vdW  Elec       q    Type
REMARK                         _______ _______ _______ _____ _____    ______ ____
ROOT
ATOM      1  C   UNL     1      -4.687 -14.635   0.554  0.00  0.00    +0.000 C 
ENDROOT
BRANCH   1   3
ATOM      2  O   UNL     1      -2.708 -14.557  -0.836  0.00  0.00    +0.000 OA
ATOM      3  C   UNL     1      -3.852 -15.382  -0.531  0.00  0.00    +0.000 C 
ATOM      4  C   UNL     1      -3.413 -16.799  -0.103  0.00  0.00    +0.000 C 
ATOM      5  C   UNL     1      -2.501 -17.426  -1.165  0.00  0.00    +0.000 C 
ATOM      6  C   UNL     1      -1.317 -16.497  -1.467  0.00  0.00    +0.000 C 
ATOM      7  C   UNL     1      -1.818 -15.083  -1.825  0.00  0.00    +0.000 C 
BRANCH   7   8
ATOM      8  S   UNL     1      -2.547 -14.995  -3.514  0.00  0.00    +0.000 S 
ATOM      9  C   UNL     1      -1.203 -14.111  -4.340  0.00  0.00    +0.000 C 
ENDBRANCH   7   8
BRANCH   4  10
ATOM     10  O   UNL     1      -2.678 -16.774   1.132  0.00  0.00    +0.000 OA
ATOM     11  H   UNL     1      -3.012 -15.998   1.642  0.00  0.00    +0.000 HD
ENDBRANCH   4  10
BRANCH   5  12
ATOM     12  O   UNL     1      -2.038 -18.697  -0.686  0.00  0.00    +0.000 OA
ATOM     13  H   UNL     1      -1.626 -18.509   0.182  0.00  0.00    +0.000 HD
ENDBRANCH   5  12
BRANCH   6  14
ATOM     14  O   UNL     1      -0.468 -17.033  -2.492  0.00  0.00    +0.000 OA
ATOM     15  H   UNL     1       0.216 -17.566  -2.048  0.00  0.00    +0.000 HD
ENDBRANCH   6  14
ENDBRANCH   1   3
BRANCH   1  17
ATOM     16  O   UNL     1      -4.720 -15.775   3.129  0.00  0.00    +0.000 OA
ATOM     17  N   UNL     1      -5.748 -15.483   1.123  0.00  0.00    +0.000 N 
ATOM     18  C   UNL     1      -5.701 -15.973   2.415  0.00  0.00    +0.000 C 
ATOM     19  H   UNL     1      -6.523 -15.738   0.519  0.00  0.00    +0.000 HD
BRANCH  18  22
ATOM     20  N   UNL     1      -7.642 -16.256   3.965  0.00  0.00    +0.000 NA
ATOM     21  C   UNL     1      -9.271 -16.349   2.333  0.00  0.00    +0.000 C 
ATOM     22  C   UNL     1      -6.929 -16.820   2.802  0.00  0.00    +0.000 C 
ATOM     23  C   UNL     1      -7.980 -16.852   1.683  0.00  0.00    +0.000 C 
ATOM     24  C   UNL     1      -9.044 -16.636   3.812  0.00  0.00    +0.000 C 
ATOM     25  C   UNL     1      -7.082 -16.677   5.240  0.00  0.00    +0.000 C 
BRANCH  21  26
ATOM     26  C   UNL     1     -10.549 -16.994   1.793  0.00  0.00    +0.000 C 
BRANCH  26  27
ATOM     27  C   UNL     1     -11.397 -16.016   0.977  0.00  0.00    +0.000 C 
ATOM     28  C   UNL     1     -10.824 -14.608   1.029  0.00  0.00    +0.000 C 
ENDBRANCH  26  27
ENDBRANCH  21  26
ENDBRANCH  18  22
ENDBRANCH   1  17
BRANCH   1  30
ATOM     29 CL   UNL     1      -5.525 -13.380  -1.766  0.00  0.00    +0.000 Cl
ATOM     30  C   UNL     1      -5.284 -13.306   0.017  0.00  0.00    +0.000 C 
ATOM     31  C   UNL     1      -6.624 -12.973   0.672  0.00  0.00    +0.000 C 
ENDBRANCH   1  30
TORSDOF 10
ENDMDL
MODEL 3
REMARK VINA RESULT:      -4.2     12.004     15.296
REMARK  Name = 
REMARK  14 active torsions:
REMARK  status: ('A' for Active; 'I' for Inactive)
REMARK    1  A    between atoms: S_2  and  C_21
REMARK    2  A    between atoms: S_2  and  C_27
REMARK    3  A    between atoms: O_4  and  C_16
REMARK    4  A    between atoms: O_5  and  C_18
REMARK    5  A    between atoms: O_6  and  C_20
REMARK    6  A    between atoms: N_8  and  C_23
REMARK    7  A    between atoms: N_9  and  C_15
REMARK    8  A    between atoms: C_10  and  C_17
REMARK    9  A    between atoms: C_11  and  C_19
REMARK   10  A    between atoms: C_14  and  C_15
REMARK   11  A    between atoms: C_15  and  C_22
REMARK   12  A    between atoms: C_17  and  C_24
REMARK   13  A    between atoms: C_22  and  C_25
REMARK   14  A    between atoms: C_24  and  C_26
REMARK                            x       y       z     vdW  Elec       q    Type
REMARK                         _______ _______ _______ _____ _____    ______ ____
ROOT
ATOM      1  C   UNL     1       0.699 -13.645  -2.639  0.00  0.00    +0.000 C 
ENDROOT
BRANCH   1   3
ATOM      2  O   UNL     1       1.941 -13.522  -4.713  0.00  0.00    +0.000 OA
ATOM      3  C   UNL     1       0.615 -13.351  -4.169  0.00  0.00    +0.000 C 
ATOM      4  C   UNL     1      -0.406 -14.240  -4.912  0.00  0.00    +0.000 C 
ATOM      5  C   UNL     1      -0.351 -13.979  -6.422  0.00  0.00    +0.000 C 
ATOM      6  C   UNL     1       1.083 -14.152  -6.941  0.00  0.00    +0.000 C 
ATOM      7  C   UNL     1       2.062 -13.289  -6.119  0.00  0.00    +0.000 C 
BRANCH   7   8
ATOM      8  S   UNL     1       1.942 -11.497  -6.526  0.00  0.00    +0.000 S 
ATOM      9  C   UNL     1       3.184 -10.875  -5.368  0.00  0.00    +0.000 C 
ENDBRANCH   7   8
BRANCH   4  10
ATOM     10  O   UNL     1      -0.137 -15.637  -4.707  0.00  0.00    +0.000 OA
ATOM     11  H   UNL     1       0.801 -15.702  -4.409  0.00  0.00    +0.000 HD
ENDBRANCH   4  10
BRANCH   5  12
ATOM     12  O   UNL     1      -1.241 -14.892  -7.082  0.00  0.00    +0.000 OA
ATOM     13  H   UNL     1      -2.141 -14.572  -6.867  0.00  0.00    +0.000 HD
ENDBRANCH   5  12
BRANCH   6  14
ATOM     14  O   UNL     1       1.179 -13.869  -8.345  0.00  0.00    +0.000 OA
ATOM     15  H   UNL     1       0.311 -14.074  -8.738  0.00  0.00    +0.000 HD
ENDBRANCH   6  14
ENDBRANCH   1   3
BRANCH   1  17
ATOM     16  O   UNL     1       0.011 -16.181  -1.627  0.00  0.00    +0.000 OA
ATOM     17  N   UNL     1      -0.602 -14.038  -2.075  0.00  0.00    +0.000 N 
ATOM     18  C   UNL     1      -0.845 -15.299  -1.564  0.00  0.00    +0.000 C 
ATOM     19  H   UNL     1      -1.353 -13.355  -2.099  0.00  0.00    +0.000 HD
BRANCH  18  22
ATOM     20  N   UNL     1      -3.143 -16.205  -1.951  0.00  0.00    +0.000 NA
ATOM     21  C   UNL     1      -3.248 -17.486  -0.034  0.00  0.00    +0.000 C 
ATOM     22  C   UNL     1      -2.271 -15.479  -1.007  0.00  0.00    +0.000 C 
ATOM     23  C   UNL     1      -2.285 -16.334   0.268  0.00  0.00    +0.000 C 
ATOM     24  C   UNL     1      -4.128 -16.915  -1.139  0.00  0.00    +0.000 C 
ATOM     25  C   UNL     1      -3.755 -15.340  -2.948  0.00  0.00    +0.000 C 
BRANCH  21  26
ATOM     26  C   UNL     1      -4.053 -17.976   1.171  0.00  0.00    +0.000 C 
BRANCH  26  27
ATOM     27  C   UNL     1      -4.198 -19.499   1.195  0.00  0.00    +0.000 C 
ATOM     28  C   UNL     1      -2.849 -20.187   1.068  0.00  0.00    +0.000 C 
ENDBRANCH  26  27
ENDBRANCH  21  26
ENDBRANCH  18  22
ENDBRANCH   1  17
BRANCH   1  30
ATOM     29 CL   UNL     1       0.022 -11.606  -0.894  0.00  0.00    +0.000 Cl
ATOM     30  C   UNL     1       1.296 -12.448  -1.849  0.00  0.00    +0.000 C 
ATOM     31  C   UNL     1       2.404 -12.888  -0.894  0.00  0.00    +0.000 C 
ENDBRANCH   1  30
TORSDOF 10
ENDMDL
MODEL 4
REMARK VINA RESULT:      -4.1     18.268     20.809
REMARK  Name = 
REMARK  14 active torsions:
REMARK  status: ('A' for Active; 'I' for Inactive)
REMARK    1  A    between atoms: S_2  and  C_21
REMARK    2  A    between atoms: S_2  and  C_27
REMARK    3  A    between atoms: O_4  and  C_16
REMARK    4  A    between atoms: O_5  and  C_18
REMARK    5  A    between atoms: O_6  and  C_20
REMARK    6  A    between atoms: N_8  and  C_23
REMARK    7  A    between atoms: N_9  and  C_15
REMARK    8  A    between atoms: C_10  and  C_17
REMARK    9  A    between atoms: C_11  and  C_19
REMARK   10  A    between atoms: C_14  and  C_15
REMARK   11  A    between atoms: C_15  and  C_22
REMARK   12  A    between atoms: C_17  and  C_24
REMARK   13  A    between atoms: C_22  and  C_25
REMARK   14  A    between atoms: C_24  and  C_26
REMARK                            x       y       z     vdW  Elec       q    Type
REMARK                         _______ _______ _______ _____ _____    ______ ____
ROOT
ATOM      1  C   UNL     1      -4.547 -32.017   9.079  0.00  0.00    +0.000 C 
ENDROOT
BRANCH   1   3
ATOM      2  O   UNL     1      -5.795 -32.002   7.005  0.00  0.00    +0.000 OA
ATOM      3  C   UNL     1      -5.682 -32.706   8.260  0.00  0.00    +0.000 C 
ATOM      4  C   UNL     1      -5.447 -34.214   8.030  0.00  0.00    +0.000 C 
ATOM      5  C   UNL     1      -6.537 -34.798   7.123  0.00  0.00    +0.000 C 
ATOM      6  C   UNL     1      -6.629 -34.000   5.816  0.00  0.00    +0.000 C 
ATOM      7  C   UNL     1      -6.798 -32.496   6.113  0.00  0.00    +0.000 C 
BRANCH   7   8
ATOM      8  S   UNL     1      -8.494 -32.075   6.696  0.00  0.00    +0.000 S 
ATOM      9  C   UNL     1      -8.242 -30.311   7.003  0.00  0.00    +0.000 C 
ENDBRANCH   7   8
BRANCH   4  10
ATOM     10  O   UNL     1      -4.182 -34.460   7.393  0.00  0.00    +0.000 OA
ATOM     11  H   UNL     1      -4.243 -34.074   6.487  0.00  0.00    +0.000 HD
ENDBRANCH   4  10
BRANCH   5  12
ATOM     12  O   UNL     1      -6.228 -36.174   6.855  0.00  0.00    +0.000 OA
ATOM     13  H   UNL     1      -5.278 -36.183   6.624  0.00  0.00    +0.000 HD
ENDBRANCH   5  12
BRANCH   6  14
ATOM     14  O   UNL     1      -7.672 -34.492   4.963  0.00  0.00    +0.000 OA
ATOM     15  H   UNL     1      -7.433 -35.403   4.715  0.00  0.00    +0.000 HD
ENDBRANCH   6  14
ENDBRANCH   1   3
BRANCH   1  17
ATOM     16  O   UNL     1      -2.094 -33.359   9.412  0.00  0.00    +0.000 OA
ATOM     17  N   UNL     1      -4.138 -32.815  10.246  0.00  0.00    +0.000 N 
ATOM     18  C   UNL     1      -2.895 -33.413  10.344  0.00  0.00    +0.000 C 
ATOM     19  H   UNL     1      -4.819 -32.953  10.986  0.00  0.00    +0.000 HD
BRANCH  18  22
ATOM     20  N   UNL     1      -2.916 -33.327  12.843  0.00  0.00    +0.000 NA
ATOM     21  C   UNL     1      -4.375 -35.088  13.154  0.00  0.00    +0.000 C 
ATOM     22  C   UNL     1      -2.678 -34.181  11.663  0.00  0.00    +0.000 C 
ATOM     23  C   UNL     1      -3.670 -35.342  11.820  0.00  0.00    +0.000 C 
ATOM     24  C   UNL     1      -3.378 -34.215  13.907  0.00  0.00    +0.000 C 
ATOM     25  C   UNL     1      -1.751 -32.546  13.229  0.00  0.00    +0.000 C 
BRANCH  21  26
ATOM     26  C   UNL     1      -4.755 -36.353  13.926  0.00  0.00    +0.000 C 
BRANCH  26  27
ATOM     27  C   UNL     1      -5.168 -37.499  13.000  0.00  0.00    +0.000 C 
ATOM     28  C   UNL     1      -5.803 -38.640  13.779  0.00  0.00    +0.000 C 
ENDBRANCH  26  27
ENDBRANCH  21  26
ENDBRANCH  18  22
ENDBRANCH   1  17
BRANCH   1  30
ATOM     29 CL   UNL     1      -6.248 -30.606  10.745  0.00  0.00    +0.000 Cl
ATOM     30  C   UNL     1      -4.934 -30.577   9.514  0.00  0.00    +0.000 C 
ATOM     31  C   UNL     1      -3.744 -29.815  10.095  0.00  0.00    +0.000 C 
ENDBRANCH   1  30
TORSDOF 10
ENDMDL
MODEL 5
REMARK VINA RESULT:      -4.1     17.532     19.452
REMARK  Name = 
REMARK  14 active torsions:
REMARK  status: ('A' for Active; 'I' for Inactive)
REMARK    1  A    between atoms: S_2  and  C_21
REMARK    2  A    between atoms: S_2  and  C_27
REMARK    3  A    between atoms: O_4  and  C_16
REMARK    4  A    between atoms: O_5  and  C_18
REMARK    5  A    between atoms: O_6  and  C_20
REMARK    6  A    between atoms: N_8  and  C_23
REMARK    7  A    between atoms: N_9  and  C_15
REMARK    8  A    between atoms: C_10  and  C_17
REMARK    9  A    between atoms: C_11  and  C_19
REMARK   10  A    between atoms: C_14  and  C_15
REMARK   11  A    between atoms: C_15  and  C_22
REMARK   12  A    between atoms: C_17  and  C_24
REMARK   13  A    between atoms: C_22  and  C_25
REMARK   14  A    between atoms: C_24  and  C_26
REMARK                            x       y       z     vdW  Elec       q    Type
REMARK                         _______ _______ _______ _____ _____    ______ ____
ROOT
ATOM      1  C   UNL     1      -5.122 -29.911  10.229  0.00  0.00    +0.000 C 
ENDROOT
BRANCH   1   3
ATOM      2  O   UNL     1      -5.045 -31.603   8.499  0.00  0.00    +0.000 OA
ATOM      3  C   UNL     1      -4.768 -31.394   9.900  0.00  0.00    +0.000 C 
ATOM      4  C   UNL     1      -3.308 -31.767  10.236  0.00  0.00    +0.000 C 
ATOM      5  C   UNL     1      -2.997 -33.198   9.780  0.00  0.00    +0.000 C 
ATOM      6  C   UNL     1      -3.332 -33.369   8.292  0.00  0.00    +0.000 C 
ATOM      7  C   UNL     1      -4.781 -32.920   8.011  0.00  0.00    +0.000 C 
BRANCH   7   8
ATOM      8  S   UNL     1      -6.028 -34.134   8.613  0.00  0.00    +0.000 S 
ATOM      9  C   UNL     1      -6.563 -34.785   7.013  0.00  0.00    +0.000 C 
ENDBRANCH   7   8
BRANCH   4  10
ATOM     10  O   UNL     1      -2.375 -30.895   9.576  0.00  0.00    +0.000 OA
ATOM     11  H   UNL     1      -1.877 -30.426  10.287  0.00  0.00    +0.000 HD
ENDBRANCH   4  10
BRANCH   5  12
ATOM     12  O   UNL     1      -1.608 -33.469  10.021  0.00  0.00    +0.000 OA
ATOM     13  H   UNL     1      -1.498 -33.401  10.990  0.00  0.00    +0.000 HD
ENDBRANCH   5  12
BRANCH   6  14
ATOM     14  O   UNL     1      -3.097 -34.712   7.844  0.00  0.00    +0.000 OA
ATOM     15  H   UNL     1      -3.043 -34.684   6.872  0.00  0.00    +0.000 HD
ENDBRANCH   6  14
ENDBRANCH   1   3
BRANCH   1  17
ATOM     16  O   UNL     1      -2.937 -28.212  10.743  0.00  0.00    +0.000 OA
ATOM     17  N   UNL     1      -4.627 -29.499  11.552  0.00  0.00    +0.000 N 
ATOM     18  C   UNL     1      -3.565 -28.629  11.714  0.00  0.00    +0.000 C 
ATOM     19  H   UNL     1      -5.071 -29.906  12.369  0.00  0.00    +0.000 HD
BRANCH  18  22
ATOM     20  N   UNL     1      -2.008 -29.015  13.632  0.00  0.00    +0.000 NA
ATOM     21  C   UNL     1      -1.547 -26.793  14.050  0.00  0.00    +0.000 C 
ATOM     22  C   UNL     1      -3.234 -28.323  13.189  0.00  0.00    +0.000 C 
ATOM     23  C   UNL     1      -2.938 -26.833  13.413  0.00  0.00    +0.000 C 
ATOM     24  C   UNL     1      -1.415 -28.178  14.672  0.00  0.00    +0.000 C 
ATOM     25  C   UNL     1      -2.250 -30.379  14.079  0.00  0.00    +0.000 C 
BRANCH  21  26
ATOM     26  C   UNL     1      -1.342 -25.666  15.064  0.00  0.00    +0.000 C 
BRANCH  26  27
ATOM     27  C   UNL     1      -2.547 -24.726  15.143  0.00  0.00    +0.000 C 
ATOM     28  C   UNL     1      -2.176 -23.312  14.726  0.00  0.00    +0.000 C 
ENDBRANCH  26  27
ENDBRANCH  21  26
ENDBRANCH  18  22
ENDBRANCH   1  17
BRANCH   1  30
ATOM     29 CL   UNL     1      -7.591 -31.162  10.271  0.00  0.00    +0.000 Cl
ATOM     30  C   UNL     1      -6.647 -29.637  10.110  0.00  0.00    +0.000 C 
ATOM     31  C   UNL     1      -7.136 -28.652  11.171  0.00  0.00    +0.000 C 
ENDBRANCH   1  30
TORSDOF 10
ENDMDL
MODEL 6
REMARK VINA RESULT:      -4.0     21.955     24.079
REMARK  Name = 
REMARK  14 active torsions:
REMARK  status: ('A' for Active; 'I' for Inactive)
REMARK    1  A    between atoms: S_2  and  C_21
REMARK    2  A    between atoms: S_2  and  C_27
REMARK    3  A    between atoms: O_4  and  C_16
REMARK    4  A    between atoms: O_5  and  C_18
REMARK    5  A    between atoms: O_6  and  C_20
REMARK    6  A    between atoms: N_8  and  C_23
REMARK    7  A    between atoms: N_9  and  C_15
REMARK    8  A    between atoms: C_10  and  C_17
REMARK    9  A    between atoms: C_11  and  C_19
REMARK   10  A    between atoms: C_14  and  C_15
REMARK   11  A    between atoms: C_15  and  C_22
REMARK   12  A    between atoms: C_17  and  C_24
REMARK   13  A    between atoms: C_22  and  C_25
REMARK   14  A    between atoms: C_24  and  C_26
REMARK                            x       y       z     vdW  Elec       q    Type
REMARK                         _______ _______ _______ _____ _____    ______ ____
ROOT
ATOM      1  C   UNL     1       3.785 -31.534   1.584  0.00  0.00    +0.000 C 
ENDROOT
BRANCH   1   3
ATOM      2  O   UNL     1       3.606 -32.806   3.635  0.00  0.00    +0.000 OA
ATOM      3  C   UNL     1       4.399 -32.688   2.434  0.00  0.00    +0.000 C 
ATOM      4  C   UNL     1       4.470 -34.035   1.684  0.00  0.00    +0.000 C 
ATOM      5  C   UNL     1       4.972 -35.146   2.614  0.00  0.00    +0.000 C 
ATOM      6  C   UNL     1       4.109 -35.211   3.882  0.00  0.00    +0.000 C 
ATOM      7  C   UNL     1       4.025 -33.823   4.549  0.00  0.00    +0.000 C 
BRANCH   7   8
ATOM      8  S   UNL     1       5.580 -33.359   5.419  0.00  0.00    +0.000 S 
ATOM      9  C   UNL     1       5.061 -31.747   6.055  0.00  0.00    +0.000 C 
ENDBRANCH   7   8
BRANCH   4  10
ATOM     10  O   UNL     1       3.179 -34.436   1.195  0.00  0.00    +0.000 OA
ATOM     11  H   UNL     1       2.659 -33.608   1.064  0.00  0.00    +0.000 HD
ENDBRANCH   4  10
BRANCH   5  12
ATOM     12  O   UNL     1       4.930 -36.395   1.909  0.00  0.00    +0.000 OA
ATOM     13  H   UNL     1       5.460 -37.014   2.451  0.00  0.00    +0.000 HD
ENDBRANCH   5  12
BRANCH   6  14
ATOM     14  O   UNL     1       4.581 -36.211   4.797  0.00  0.00    +0.000 OA
ATOM     15  H   UNL     1       4.981 -36.921   4.263  0.00  0.00    +0.000 HD
ENDBRANCH   6  14
ENDBRANCH   1   3
BRANCH   1  17
ATOM     16  O   UNL     1       4.049 -31.894  -1.196  0.00  0.00    +0.000 OA
ATOM     17  N   UNL     1       4.781 -30.894   0.710  0.00  0.00    +0.000 N 
ATOM     18  C   UNL     1       4.818 -31.099  -0.657  0.00  0.00    +0.000 C 
ATOM     19  H   UNL     1       5.485 -30.308   1.147  0.00  0.00    +0.000 HD
BRANCH  18  22
ATOM     20  N   UNL     1       6.858 -31.203  -2.099  0.00  0.00    +0.000 NA
ATOM     21  C   UNL     1       6.093 -29.777  -3.743  0.00  0.00    +0.000 C 
ATOM     22  C   UNL     1       5.933 -30.311  -1.373  0.00  0.00    +0.000 C 
ATOM     23  C   UNL     1       5.371 -29.376  -2.453  0.00  0.00    +0.000 C 
ATOM     24  C   UNL     1       7.368 -30.435  -3.231  0.00  0.00    +0.000 C 
ATOM     25  C   UNL     1       7.919 -31.735  -1.257  0.00  0.00    +0.000 C 
BRANCH  21  26
ATOM     26  C   UNL     1       6.368 -28.620  -4.705  0.00  0.00    +0.000 C 
BRANCH  26  27
ATOM     27  C   UNL     1       5.960 -27.265  -4.121  0.00  0.00    +0.000 C 
ATOM     28  C   UNL     1       7.058 -26.229  -4.303  0.00  0.00    +0.000 C 
ENDBRANCH  26  27
ENDBRANCH  21  26
ENDBRANCH  18  22
ENDBRANCH   1  17
BRANCH   1  30
ATOM     29 CL   UNL     1       4.278 -29.397   3.273  0.00  0.00    +0.000 Cl
ATOM     30  C   UNL     1       3.077 -30.471   2.469  0.00  0.00    +0.000 C 
ATOM     31  C   UNL     1       2.115 -29.602   1.661  0.00  0.00    +0.000 C 
ENDBRANCH   1  30
TORSDOF 10
ENDMDL
MODEL 7
REMARK VINA RESULT:      -4.0     15.320     18.137
REMARK  Name = 
REMARK  14 active torsions:
REMARK  status: ('A' for Active; 'I' for Inactive)
REMARK    1  A    between atoms: S_2  and  C_21
REMARK    2  A    between atoms: S_2  and  C_27
REMARK    3  A    between atoms: O_4  and  C_16
REMARK    4  A    between atoms: O_5  and  C_18
REMARK    5  A    between atoms: O_6  and  C_20
REMARK    6  A    between atoms: N_8  and  C_23
REMARK    7  A    between atoms: N_9  and  C_15
REMARK    8  A    between atoms: C_10  and  C_17
REMARK    9  A    between atoms: C_11  and  C_19
REMARK   10  A    between atoms: C_14  and  C_15
REMARK   11  A    between atoms: C_15  and  C_22
REMARK   12  A    between atoms: C_17  and  C_24
REMARK   13  A    between atoms: C_22  and  C_25
REMARK   14  A    between atoms: C_24  and  C_26
REMARK                            x       y       z     vdW  Elec       q    Type
REMARK                         _______ _______ _______ _____ _____    ______ ____
ROOT
ATOM      1  C   UNL     1      -4.948 -29.837  10.656  0.00  0.00    +0.000 C 
ENDROOT
BRANCH   1   3
ATOM      2  O   UNL     1      -3.658 -31.863  10.357  0.00  0.00    +0.000 OA
ATOM      3  C   UNL     1      -4.354 -30.837   9.617  0.00  0.00    +0.000 C 
ATOM      4  C   UNL     1      -5.414 -31.455   8.680  0.00  0.00    +0.000 C 
ATOM      5  C   UNL     1      -4.780 -32.511   7.768  0.00  0.00    +0.000 C 
ATOM      6  C   UNL     1      -4.036 -33.561   8.604  0.00  0.00    +0.000 C 
ATOM      7  C   UNL     1      -3.039 -32.879   9.563  0.00  0.00    +0.000 C 
BRANCH   7   8
ATOM      8  S   UNL     1      -1.540 -32.248   8.698  0.00  0.00    +0.000 S 
ATOM      9  C   UNL     1      -0.301 -32.722   9.927  0.00  0.00    +0.000 C 
ENDBRANCH   7   8
BRANCH   4  10
ATOM     10  O   UNL     1      -6.462 -32.102   9.422  0.00  0.00    +0.000 OA
ATOM     11  H   UNL     1      -7.133 -31.407   9.624  0.00  0.00    +0.000 HD
ENDBRANCH   4  10
BRANCH   5  12
ATOM     12  O   UNL     1      -5.813 -33.127   6.984  0.00  0.00    +0.000 OA
ATOM     13  H   UNL     1      -6.650 -32.882   7.426  0.00  0.00    +0.000 HD
ENDBRANCH   5  12
BRANCH   6  14
ATOM     14  O   UNL     1      -3.390 -34.540   7.777  0.00  0.00    +0.000 OA
ATOM     15  H   UNL     1      -2.439 -34.329   7.774  0.00  0.00    +0.000 HD
ENDBRANCH   6  14
ENDBRANCH   1   3
BRANCH   1  17
ATOM     16  O   UNL     1      -7.037 -29.532  12.520  0.00  0.00    +0.000 OA
ATOM     17  N   UNL     1      -6.344 -29.484  10.355  0.00  0.00    +0.000 N 
ATOM     18  C   UNL     1      -7.303 -29.318  11.338  0.00  0.00    +0.000 C 
ATOM     19  H   UNL     1      -6.609 -29.396   9.379  0.00  0.00    +0.000 HD
BRANCH  18  22
ATOM     20  N   UNL     1      -8.816 -27.473  10.591  0.00  0.00    +0.000 NA
ATOM     21  C   UNL     1      -9.282 -28.343   8.505  0.00  0.00    +0.000 C 
ATOM     22  C   UNL     1      -8.691 -28.930  10.793  0.00  0.00    +0.000 C 
ATOM     23  C   UNL     1      -8.953 -29.535   9.407  0.00  0.00    +0.000 C 
ATOM     24  C   UNL     1      -9.763 -27.288   9.495  0.00  0.00    +0.000 C 
ATOM     25  C   UNL     1      -9.206 -26.759  11.798  0.00  0.00    +0.000 C 
BRANCH  21  26
ATOM     26  C   UNL     1     -10.307 -28.636   7.408  0.00  0.00    +0.000 C 
BRANCH  26  27
ATOM     27  C   UNL     1      -9.971 -27.932   6.092  0.00  0.00    +0.000 C 
ATOM     28  C   UNL     1     -11.023 -26.894   5.734  0.00  0.00    +0.000 C 
ENDBRANCH  26  27
ENDBRANCH  21  26
ENDBRANCH  18  22
ENDBRANCH   1  17
BRANCH   1  30
ATOM     29 CL   UNL     1      -3.459 -28.372  12.471  0.00  0.00    +0.000 Cl
ATOM     30  C   UNL     1      -4.081 -28.555  10.792  0.00  0.00    +0.000 C 
ATOM     31  C   UNL     1      -2.891 -28.565   9.834  0.00  0.00    +0.000 C 
ENDBRANCH   1  30
TORSDOF 10
ENDMDL
MODEL 8
REMARK VINA RESULT:      -3.9     14.774     17.566
REMARK  Name = 
REMARK  14 active torsions:
REMARK  status: ('A' for Active; 'I' for Inactive)
REMARK    1  A    between atoms: S_2  and  C_21
REMARK    2  A    between atoms: S_2  and  C_27
REMARK    3  A    between atoms: O_4  and  C_16
REMARK    4  A    between atoms: O_5  and  C_18
REMARK    5  A    between atoms: O_6  and  C_20
REMARK    6  A    between atoms: N_8  and  C_23
REMARK    7  A    between atoms: N_9  and  C_15
REMARK    8  A    between atoms: C_10  and  C_17
REMARK    9  A    between atoms: C_11  and  C_19
REMARK   10  A    between atoms: C_14  and  C_15
REMARK   11  A    between atoms: C_15  and  C_22
REMARK   12  A    between atoms: C_17  and  C_24
REMARK   13  A    between atoms: C_22  and  C_25
REMARK   14  A    between atoms: C_24  and  C_26
REMARK                            x       y       z     vdW  Elec       q    Type
REMARK                         _______ _______ _______ _____ _____    ______ ____
ROOT
ATOM      1  C   UNL     1      -5.928 -29.967  10.099  0.00  0.00    +0.000 C 
ENDROOT
BRANCH   1   3
ATOM      2  O   UNL     1      -4.566 -31.964  10.225  0.00  0.00    +0.000 OA
ATOM      3  C   UNL     1      -5.063 -30.983   9.290  0.00  0.00    +0.000 C 
ATOM      4  C   UNL     1      -5.830 -31.660   8.134  0.00  0.00    +0.000 C 
ATOM      5  C   UNL     1      -4.958 -32.727   7.460  0.00  0.00    +0.000 C 
ATOM      6  C   UNL     1      -4.439 -33.728   8.501  0.00  0.00    +0.000 C 
ATOM      7  C   UNL     1      -3.741 -32.987   9.660  0.00  0.00    +0.000 C 
BRANCH   7   8
ATOM      8  S   UNL     1      -2.081 -32.342   9.192  0.00  0.00    +0.000 S 
ATOM      9  C   UNL     1      -1.118 -33.084  10.531  0.00  0.00    +0.000 C 
ENDBRANCH   7   8
BRANCH   4  10
ATOM     10  O   UNL     1      -7.022 -32.312   8.601  0.00  0.00    +0.000 OA
ATOM     11  H   UNL     1      -7.109 -33.146   8.080  0.00  0.00    +0.000 HD
ENDBRANCH   4  10
BRANCH   5  12
ATOM     12  O   UNL     1      -5.738 -33.397   6.458  0.00  0.00    +0.000 OA
ATOM     13  H   UNL     1      -5.620 -34.351   6.638  0.00  0.00    +0.000 HD
ENDBRANCH   5  12
BRANCH   6  14
ATOM     14  O   UNL     1      -3.581 -34.714   7.910  0.00  0.00    +0.000 OA
ATOM     15  H   UNL     1      -3.334 -35.338   8.616  0.00  0.00    +0.000 HD
ENDBRANCH   6  14
ENDBRANCH   1   3
BRANCH   1  17
ATOM     16  O   UNL     1      -8.735 -30.114   9.938  0.00  0.00    +0.000 OA
ATOM     17  N   UNL     1      -6.798 -29.159   9.230  0.00  0.00    +0.000 N 
ATOM     18  C   UNL     1      -8.176 -29.270   9.240  0.00  0.00    +0.000 C 
ATOM     19  H   UNL     1      -6.352 -28.523   8.576  0.00  0.00    +0.000 HD
BRANCH  18  22
ATOM     20  N   UNL     1      -9.489 -29.032   7.126  0.00  0.00    +0.000 NA
ATOM     21  C   UNL     1     -11.272 -27.896   8.050  0.00  0.00    +0.000 C 
ATOM     22  C   UNL     1      -8.883 -28.311   8.262  0.00  0.00    +0.000 C 
ATOM     23  C   UNL     1     -10.058 -27.579   8.926  0.00  0.00    +0.000 C 
ATOM     24  C   UNL     1     -10.644 -28.242   6.705  0.00  0.00    +0.000 C 
ATOM     25  C   UNL     1      -8.553 -29.280   6.040  0.00  0.00    +0.000 C 
BRANCH  21  26
ATOM     26  C   UNL     1     -12.299 -26.766   7.950  0.00  0.00    +0.000 C 
BRANCH  26  27
ATOM     27  C   UNL     1     -12.187 -25.990   6.635  0.00  0.00    +0.000 C 
ATOM     28  C   UNL     1     -11.538 -24.631   6.846  0.00  0.00    +0.000 C 
ENDBRANCH  26  27
ENDBRANCH  21  26
ENDBRANCH  18  22
ENDBRANCH   1  17
BRANCH   1  30
ATOM     29 CL   UNL     1      -4.799 -29.791  12.620  0.00  0.00    +0.000 Cl
ATOM     30  C   UNL     1      -5.056 -29.049  11.000  0.00  0.00    +0.000 C 
ATOM     31  C   UNL     1      -3.691 -28.765  10.377  0.00  0.00    +0.000 C 
ENDBRANCH   1  30
TORSDOF 10
ENDMDL
MODEL 9
REMARK VINA RESULT:      -3.9     13.015     15.890
REMARK  Name = 
REMARK  14 active torsions:
REMARK  status: ('A' for Active; 'I' for Inactive)
REMARK    1  A    between atoms: S_2  and  C_21
REMARK    2  A    between atoms: S_2  and  C_27
REMARK    3  A    between atoms: O_4  and  C_16
REMARK    4  A    between atoms: O_5  and  C_18
REMARK    5  A    between atoms: O_6  and  C_20
REMARK    6  A    between atoms: N_8  and  C_23
REMARK    7  A    between atoms: N_9  and  C_15
REMARK    8  A    between atoms: C_10  and  C_17
REMARK    9  A    between atoms: C_11  and  C_19
REMARK   10  A    between atoms: C_14  and  C_15
REMARK   11  A    between atoms: C_15  and  C_22
REMARK   12  A    between atoms: C_17  and  C_24
REMARK   13  A    between atoms: C_22  and  C_25
REMARK   14  A    between atoms: C_24  and  C_26
REMARK                            x       y       z     vdW  Elec       q    Type
REMARK                         _______ _______ _______ _____ _____    ______ ____
ROOT
ATOM      1  C   UNL     1       1.030 -20.629   2.383  0.00  0.00    +0.000 C 
ENDROOT
BRANCH   1   3
ATOM      2  O   UNL     1       3.235 -21.593   2.129  0.00  0.00    +0.000 OA
ATOM      3  C   UNL     1       2.404 -20.514   1.652  0.00  0.00    +0.000 C 
ATOM      4  C   UNL     1       2.287 -20.544   0.113  0.00  0.00    +0.000 C 
ATOM      5  C   UNL     1       3.677 -20.545  -0.534  0.00  0.00    +0.000 C 
ATOM      6  C   UNL     1       4.525 -21.697   0.025  0.00  0.00    +0.000 C 
ATOM      7  C   UNL     1       4.549 -21.649   1.567  0.00  0.00    +0.000 C 
BRANCH   7   8
ATOM      8  S   UNL     1       5.627 -20.305   2.218  0.00  0.00    +0.000 S 
ATOM      9  C   UNL     1       5.308 -20.537   3.983  0.00  0.00    +0.000 C 
ENDBRANCH   7   8
BRANCH   4  10
ATOM     10  O   UNL     1       1.600 -21.722  -0.342  0.00  0.00    +0.000 OA
ATOM     11  H   UNL     1       1.455 -22.287   0.454  0.00  0.00    +0.000 HD
ENDBRANCH   4  10
BRANCH   5  12
ATOM     12  O   UNL     1       3.526 -20.672  -1.956  0.00  0.00    +0.000 OA
ATOM     13  H   UNL     1       2.681 -20.226  -2.164  0.00  0.00    +0.000 HD
ENDBRANCH   5  12
BRANCH   6  14
ATOM     14  O   UNL     1       5.850 -21.699  -0.526  0.00  0.00    +0.000 OA
ATOM     15  H   UNL     1       6.213 -22.593  -0.392  0.00  0.00    +0.000 HD
ENDBRANCH   6  14
ENDBRANCH   1   3
BRANCH   1  17
ATOM     16  O   UNL     1      -1.113 -21.949   1.120  0.00  0.00    +0.000 OA
ATOM     17  N   UNL     1      -0.060 -19.997   1.623  0.00  0.00    +0.000 N 
ATOM     18  C   UNL     1      -1.098 -20.720   1.063  0.00  0.00    +0.000 C 
ATOM     19  H   UNL     1      -0.017 -18.993   1.482  0.00  0.00    +0.000 HD
BRANCH  18  22
ATOM     20  N   UNL     1      -3.000 -19.111   1.274  0.00  0.00    +0.000 NA
ATOM     21  C   UNL     1      -2.078 -17.440  -0.023  0.00  0.00    +0.000 C 
ATOM     22  C   UNL     1      -2.137 -19.848   0.331  0.00  0.00    +0.000 C 
ATOM     23  C   UNL     1      -1.473 -18.756  -0.519  0.00  0.00    +0.000 C 
ATOM     24  C   UNL     1      -3.400 -17.883   0.593  0.00  0.00    +0.000 C 
ATOM     25  C   UNL     1      -4.138 -19.891   1.738  0.00  0.00    +0.000 C 
BRANCH  21  26
ATOM     26  C   UNL     1      -2.255 -16.373  -1.104  0.00  0.00    +0.000 C 
BRANCH  26  27
ATOM     27  C   UNL     1      -3.238 -16.804  -2.194  0.00  0.00    +0.000 C 
ATOM     28  C   UNL     1      -3.800 -15.604  -2.941  0.00  0.00    +0.000 C 
ENDBRANCH  26  27
ENDBRANCH  21  26
ENDBRANCH  18  22
ENDBRANCH   1  17
BRANCH   1  30
ATOM     29 CL   UNL     1      -0.276 -18.921   4.126  0.00  0.00    +0.000 Cl
ATOM     30  C   UNL     1       1.089 -20.057   3.826  0.00  0.00    +0.000 C 
ATOM     31  C   UNL     1       1.041 -21.161   4.882  0.00  0.00    +0.000 C 
ENDBRANCH   1  30
TORSDOF 10
ENDMDL
