MODEL 1
REMARK VINA RESULT:      -6.2      0.000      0.000
REMARK  Name = 
REMARK  5 active torsions:
REMARK  status: ('A' for Active; 'I' for Inactive)
REMARK    1  A    between atoms: O_5  and  C_10
REMARK    2  A    between atoms: N_9  and  C_20
REMARK    3  A    between atoms: N_9  and  C_25
REMARK    4  A    between atoms: C_10  and  C_11
REMARK    5  A    between atoms: C_18  and  C_19
REMARK                            x       y       z     vdW  Elec       q    Type
REMARK                         _______ _______ _______ _____ _____    ______ ____
ROOT
ATOM      1  F   UNL     1      -0.783 -38.144   0.092  0.00  0.00    +0.000 F 
ATOM      2  F   UNL     1       0.638 -39.235  -1.927  0.00  0.00    +0.000 F 
ATOM      3  C   UNL     1      -2.716 -37.026  -2.781  0.00  0.00    +0.000 A 
ATOM      4  C   UNL     1      -2.350 -37.189  -1.427  0.00  0.00    +0.000 A 
ATOM      5  C   UNL     1      -1.962 -37.585  -3.828  0.00  0.00    +0.000 A 
ATOM      6  C   UNL     1      -1.205 -37.956  -1.167  0.00  0.00    +0.000 A 
ATOM      7  C   UNL     1      -0.825 -38.332  -3.533  0.00  0.00    +0.000 A 
ATOM      8  C   UNL     1      -0.456 -38.512  -2.205  0.00  0.00    +0.000 A 
ENDROOT
BRANCH   3  14
ATOM      9  O   UNL     1      -5.028 -36.809  -3.021  0.00  0.00    +0.000 OA
ATOM     10  N   UNL     1      -3.755 -34.971  -3.568  0.00  0.00    +0.000 N 
ATOM     11  C   UNL     1      -3.718 -33.991  -5.411  0.00  0.00    +0.000 C 
ATOM     12  C   UNL     1      -2.653 -34.444  -4.372  0.00  0.00    +0.000 C 
ATOM     13  C   UNL     1      -4.760 -34.172  -4.267  0.00  0.00    +0.000 C 
ATOM     14  C   UNL     1      -3.936 -36.258  -3.114  0.00  0.00    +0.000 C 
BRANCH  11  16
ATOM     15  N   UNL     1      -4.957 -34.314  -7.535  0.00  0.00    +0.000 NA
ATOM     16  C   UNL     1      -3.983 -34.944  -6.607  0.00  0.00    +0.000 C 
ATOM     17  C   UNL     1      -2.687 -35.261  -7.374  0.00  0.00    +0.000 C 
ATOM     18  C   UNL     1      -2.966 -36.178  -8.565  0.00  0.00    +0.000 C 
ATOM     19  C   UNL     1      -5.312 -35.255  -8.607  0.00  0.00    +0.000 C 
ATOM     20  C   UNL     1      -4.086 -35.626  -9.440  0.00  0.00    +0.000 C 
ATOM     21  H   UNL     1      -4.496 -33.517  -7.980  0.00  0.00    +0.000 HD
ENDBRANCH  11  16
BRANCH  11  22
ATOM     22  O   UNL     1      -3.568 -32.621  -5.885  0.00  0.00    +0.000 OA
ATOM     23  H   UNL     1      -2.618 -32.567  -6.101  0.00  0.00    +0.000 HD
ENDBRANCH  11  22
ENDBRANCH   3  14
BRANCH   4  24
ATOM     24  N   UNL     1      -3.172 -36.663  -0.407  0.00  0.00    +0.000 N 
ATOM     25  H   UNL     1      -3.388 -35.666  -0.527  0.00  0.00    +0.000 HD
BRANCH  24  28
ATOM     26  I   UNL     1      -6.391 -39.359   4.292  0.00  0.00    +0.000 I 
ATOM     27  F   UNL     1      -2.262 -36.670   2.177  0.00  0.00    +0.000 F 
ATOM     28  C   UNL     1      -3.935 -37.272   0.607  0.00  0.00    +0.000 A 
ATOM     29  C   UNL     1      -3.435 -37.274   1.922  0.00  0.00    +0.000 A 
ATOM     30  C   UNL     1      -5.159 -37.908   0.385  0.00  0.00    +0.000 A 
ATOM     31  C   UNL     1      -4.119 -37.864   2.981  0.00  0.00    +0.000 A 
ATOM     32  C   UNL     1      -5.861 -38.509   1.439  0.00  0.00    +0.000 A 
ATOM     33  C   UNL     1      -5.339 -38.482   2.732  0.00  0.00    +0.000 A 
ENDBRANCH  24  28
ENDBRANCH   4  24
TORSDOF 5
ENDMDL
MODEL 2
REMARK VINA RESULT:      -6.0      2.326      3.533
REMARK  Name = 
REMARK  5 active torsions:
REMARK  status: ('A' for Active; 'I' for Inactive)
REMARK    1  A    between atoms: O_5  and  C_10
REMARK    2  A    between atoms: N_9  and  C_20
REMARK    3  A    between atoms: N_9  and  C_25
REMARK    4  A    between atoms: C_10  and  C_11
REMARK    5  A    between atoms: C_18  and  C_19
REMARK                            x       y       z     vdW  Elec       q    Type
REMARK                         _______ _______ _______ _____ _____    ______ ____
ROOT
ATOM      1  F   UNL     1      -3.362 -39.199  -2.243  0.00  0.00    +0.000 F 
ATOM      2  F   UNL     1      -2.431 -40.667  -4.309  0.00  0.00    +0.000 F 
ATOM      3  C   UNL     1      -2.616 -36.580  -4.656  0.00  0.00    +0.000 A 
ATOM      4  C   UNL     1      -3.050 -37.169  -3.448  0.00  0.00    +0.000 A 
ATOM      5  C   UNL     1      -2.119 -37.350  -5.722  0.00  0.00    +0.000 A 
ATOM      6  C   UNL     1      -2.983 -38.566  -3.364  0.00  0.00    +0.000 A 
ATOM      7  C   UNL     1      -2.058 -38.735  -5.599  0.00  0.00    +0.000 A 
ATOM      8  C   UNL     1      -2.490 -39.332  -4.421  0.00  0.00    +0.000 A 
ENDROOT
BRANCH   3  14
ATOM      9  O   UNL     1      -2.090 -34.394  -4.031  0.00  0.00    +0.000 OA
ATOM     10  N   UNL     1      -3.511 -34.642  -5.825  0.00  0.00    +0.000 N 
ATOM     11  C   UNL     1      -5.442 -33.869  -5.994  0.00  0.00    +0.000 C 
ATOM     12  C   UNL     1      -4.755 -35.224  -6.326  0.00  0.00    +0.000 C 
ATOM     13  C   UNL     1      -4.004 -33.271  -5.942  0.00  0.00    +0.000 C 
ATOM     14  C   UNL     1      -2.698 -35.112  -4.818  0.00  0.00    +0.000 C 
BRANCH  11  16
ATOM     15  N   UNL     1      -7.072 -32.583  -4.637  0.00  0.00    +0.000 NA
ATOM     16  C   UNL     1      -6.174 -33.767  -4.630  0.00  0.00    +0.000 C 
ATOM     17  C   UNL     1      -7.005 -35.029  -4.338  0.00  0.00    +0.000 C 
ATOM     18  C   UNL     1      -7.741 -34.904  -3.004  0.00  0.00    +0.000 C 
ATOM     19  C   UNL     1      -7.677 -32.402  -3.310  0.00  0.00    +0.000 C 
ATOM     20  C   UNL     1      -8.538 -33.606  -2.930  0.00  0.00    +0.000 C 
ATOM     21  H   UNL     1      -7.837 -32.775  -5.290  0.00  0.00    +0.000 HD
ENDBRANCH  11  16
BRANCH  11  22
ATOM     22  O   UNL     1      -6.285 -33.334  -7.056  0.00  0.00    +0.000 OA
ATOM     23  H   UNL     1      -6.017 -33.858  -7.834  0.00  0.00    +0.000 HD
ENDBRANCH  11  22
ENDBRANCH   3  14
BRANCH   4  24
ATOM     24  N   UNL     1      -3.600 -36.361  -2.429  0.00  0.00    +0.000 N 
ATOM     25  H   UNL     1      -3.958 -35.460  -2.768  0.00  0.00    +0.000 HD
BRANCH  24  28
ATOM     26  I   UNL     1      -4.971 -37.588   3.597  0.00  0.00    +0.000 I 
ATOM     27  F   UNL     1      -1.671 -36.520  -0.491  0.00  0.00    +0.000 F 
ATOM     28  C   UNL     1      -3.962 -36.629  -1.096  0.00  0.00    +0.000 A 
ATOM     29  C   UNL     1      -2.947 -36.720  -0.125  0.00  0.00    +0.000 A 
ATOM     30  C   UNL     1      -5.277 -36.841  -0.673  0.00  0.00    +0.000 A 
ATOM     31  C   UNL     1      -3.217 -36.994   1.213  0.00  0.00    +0.000 A 
ATOM     32  C   UNL     1      -5.566 -37.119   0.670  0.00  0.00    +0.000 A 
ATOM     33  C   UNL     1      -4.535 -37.192   1.607  0.00  0.00    +0.000 A 
ENDBRANCH  24  28
ENDBRANCH   4  24
TORSDOF 5
ENDMDL
MODEL 3
REMARK VINA RESULT:      -5.8     20.981     23.049
REMARK  Name = 
REMARK  5 active torsions:
REMARK  status: ('A' for Active; 'I' for Inactive)
REMARK    1  A    between atoms: O_5  and  C_10
REMARK    2  A    between atoms: N_9  and  C_20
REMARK    3  A    between atoms: N_9  and  C_25
REMARK    4  A    between atoms: C_10  and  C_11
REMARK    5  A    between atoms: C_18  and  C_19
REMARK                            x       y       z     vdW  Elec       q    Type
REMARK                         _______ _______ _______ _____ _____    ______ ____
ROOT
ATOM      1  F   UNL     1      -7.169 -11.259   1.852  0.00  0.00    +0.000 F 
ATOM      2  F   UNL     1      -5.853  -9.330   0.498  0.00  0.00    +0.000 F 
ATOM      3  C   UNL     1      -4.542 -13.215   0.266  0.00  0.00    +0.000 A 
ATOM      4  C   UNL     1      -5.675 -12.938   1.063  0.00  0.00    +0.000 A 
ATOM      5  C   UNL     1      -3.871 -12.208  -0.448  0.00  0.00    +0.000 A 
ATOM      6  C   UNL     1      -6.092 -11.601   1.129  0.00  0.00    +0.000 A 
ATOM      7  C   UNL     1      -4.320 -10.892  -0.367  0.00  0.00    +0.000 A 
ATOM      8  C   UNL     1      -5.427 -10.599   0.421  0.00  0.00    +0.000 A 
ENDROOT
BRANCH   3  14
ATOM      9  O   UNL     1      -3.431 -15.068   1.150  0.00  0.00    +0.000 OA
ATOM     10  N   UNL     1      -4.226 -15.268  -1.002  0.00  0.00    +0.000 N 
ATOM     11  C   UNL     1      -3.101 -15.712  -2.703  0.00  0.00    +0.000 C 
ATOM     12  C   UNL     1      -4.241 -14.713  -2.354  0.00  0.00    +0.000 C 
ATOM     13  C   UNL     1      -3.521 -16.481  -1.414  0.00  0.00    +0.000 C 
ATOM     14  C   UNL     1      -4.033 -14.602   0.188  0.00  0.00    +0.000 C 
BRANCH  11  16
ATOM     15  N   UNL     1      -0.700 -16.254  -3.007  0.00  0.00    +0.000 NA
ATOM     16  C   UNL     1      -1.647 -15.176  -2.624  0.00  0.00    +0.000 C 
ATOM     17  C   UNL     1      -1.440 -13.967  -3.554  0.00  0.00    +0.000 C 
ATOM     18  C   UNL     1       0.003 -13.466  -3.486  0.00  0.00    +0.000 C 
ATOM     19  C   UNL     1       0.684 -15.799  -2.817  0.00  0.00    +0.000 C 
ATOM     20  C   UNL     1       0.996 -14.601  -3.712  0.00  0.00    +0.000 C 
ATOM     21  H   UNL     1      -0.819 -16.435  -4.007  0.00  0.00    +0.000 HD
ENDBRANCH  11  16
BRANCH  11  22
ATOM     22  O   UNL     1      -3.295 -16.454  -3.943  0.00  0.00    +0.000 OA
ATOM     23  H   UNL     1      -3.663 -15.781  -4.546  0.00  0.00    +0.000 HD
ENDBRANCH  11  22
ENDBRANCH   3  14
BRANCH   4  24
ATOM     24  N   UNL     1      -6.279 -13.971   1.812  0.00  0.00    +0.000 N 
ATOM     25  H   UNL     1      -5.802 -14.167   2.700  0.00  0.00    +0.000 HD
BRANCH  24  28
ATOM     26  I   UNL     1     -11.709 -17.129   1.314  0.00  0.00    +0.000 I 
ATOM     27  F   UNL     1      -6.435 -16.682   2.172  0.00  0.00    +0.000 F 
ATOM     28  C   UNL     1      -7.519 -14.627   1.699  0.00  0.00    +0.000 A 
ATOM     29  C   UNL     1      -7.566 -16.022   1.873  0.00  0.00    +0.000 A 
ATOM     30  C   UNL     1      -8.718 -13.977   1.391  0.00  0.00    +0.000 A 
ATOM     31  C   UNL     1      -8.748 -16.749   1.765  0.00  0.00    +0.000 A 
ATOM     32  C   UNL     1      -9.917 -14.694   1.277  0.00  0.00    +0.000 A 
ATOM     33  C   UNL     1      -9.927 -16.075   1.468  0.00  0.00    +0.000 A 
ENDBRANCH  24  28
ENDBRANCH   4  24
TORSDOF 5
ENDMDL
MODEL 4
REMARK VINA RESULT:      -5.7     20.058     22.347
REMARK  Name = 
REMARK  5 active torsions:
REMARK  status: ('A' for Active; 'I' for Inactive)
REMARK    1  A    between atoms: O_5  and  C_10
REMARK    2  A    between atoms: N_9  and  C_20
REMARK    3  A    between atoms: N_9  and  C_25
REMARK    4  A    between atoms: C_10  and  C_11
REMARK    5  A    between atoms: C_18  and  C_19
REMARK                            x       y       z     vdW  Elec       q    Type
REMARK                         _______ _______ _______ _____ _____    ______ ____
ROOT
ATOM      1  F   UNL     1      -1.034 -13.637  -5.532  0.00  0.00    +0.000 F 
ATOM      2  F   UNL     1       1.249 -12.756  -6.672  0.00  0.00    +0.000 F 
ATOM      3  C   UNL     1       1.421 -15.720  -3.835  0.00  0.00    +0.000 A 
ATOM      4  C   UNL     1       0.155 -15.194  -4.177  0.00  0.00    +0.000 A 
ATOM      5  C   UNL     1       2.604 -15.266  -4.444  0.00  0.00    +0.000 A 
ATOM      6  C   UNL     1       0.131 -14.177  -5.142  0.00  0.00    +0.000 A 
ATOM      7  C   UNL     1       2.540 -14.261  -5.406  0.00  0.00    +0.000 A 
ATOM      8  C   UNL     1       1.304 -13.726  -5.747  0.00  0.00    +0.000 A 
ENDROOT
BRANCH   3  14
ATOM      9  O   UNL     1       1.297 -17.934  -3.109  0.00  0.00    +0.000 OA
ATOM     10  N   UNL     1       1.788 -16.349  -1.514  0.00  0.00    +0.000 N 
ATOM     11  C   UNL     1       0.710 -15.973   0.234  0.00  0.00    +0.000 C 
ATOM     12  C   UNL     1       1.383 -15.103  -0.866  0.00  0.00    +0.000 C 
ATOM     13  C   UNL     1       1.586 -17.144  -0.304  0.00  0.00    +0.000 C 
ATOM     14  C   UNL     1       1.514 -16.768  -2.796  0.00  0.00    +0.000 C 
BRANCH  11  16
ATOM     15  N   UNL     1      -1.055 -17.713   0.155  0.00  0.00    +0.000 NA
ATOM     16  C   UNL     1      -0.809 -16.250   0.079  0.00  0.00    +0.000 C 
ATOM     17  C   UNL     1      -1.627 -15.542   1.174  0.00  0.00    +0.000 C 
ATOM     18  C   UNL     1      -3.118 -15.845   1.025  0.00  0.00    +0.000 C 
ATOM     19  C   UNL     1      -2.471 -17.999  -0.114  0.00  0.00    +0.000 C 
ATOM     20  C   UNL     1      -3.372 -17.346   0.933  0.00  0.00    +0.000 C 
ATOM     21  H   UNL     1      -0.868 -18.012   1.116  0.00  0.00    +0.000 HD
ENDBRANCH  11  16
BRANCH  11  22
ATOM     22  O   UNL     1       1.009 -15.569   1.602  0.00  0.00    +0.000 OA
ATOM     23  H   UNL     1       1.767 -16.136   1.838  0.00  0.00    +0.000 HD
ENDBRANCH  11  22
ENDBRANCH   3  14
BRANCH   4  24
ATOM     24  N   UNL     1      -0.998 -15.636  -3.494  0.00  0.00    +0.000 N 
ATOM     25  H   UNL     1      -0.990 -16.640  -3.282  0.00  0.00    +0.000 HD
BRANCH  24  28
ATOM     26  I   UNL     1      -5.843 -12.701  -0.734  0.00  0.00    +0.000 I 
ATOM     27  F   UNL     1      -3.571 -16.558  -3.684  0.00  0.00    +0.000 F 
ATOM     28  C   UNL     1      -2.043 -14.947  -2.850  0.00  0.00    +0.000 A 
ATOM     29  C   UNL     1      -3.356 -15.436  -2.979  0.00  0.00    +0.000 A 
ATOM     30  C   UNL     1      -1.863 -13.778  -2.105  0.00  0.00    +0.000 A 
ATOM     31  C   UNL     1      -4.448 -14.808  -2.386  0.00  0.00    +0.000 A 
ATOM     32  C   UNL     1      -2.951 -13.133  -1.502  0.00  0.00    +0.000 A 
ATOM     33  C   UNL     1      -4.238 -13.652  -1.643  0.00  0.00    +0.000 A 
ENDBRANCH  24  28
ENDBRANCH   4  24
TORSDOF 5
ENDMDL
MODEL 5
REMARK VINA RESULT:      -5.6     19.058     21.160
REMARK  Name = 
REMARK  5 active torsions:
REMARK  status: ('A' for Active; 'I' for Inactive)
REMARK    1  A    between atoms: O_5  and  C_10
REMARK    2  A    between atoms: N_9  and  C_20
REMARK    3  A    between atoms: N_9  and  C_25
REMARK    4  A    between atoms: C_10  and  C_11
REMARK    5  A    between atoms: C_18  and  C_19
REMARK                            x       y       z     vdW  Elec       q    Type
REMARK                         _______ _______ _______ _____ _____    ______ ____
ROOT
ATOM      1  F   UNL     1      -1.819 -18.747   2.489  0.00  0.00    +0.000 F 
ATOM      2  F   UNL     1      -4.293 -19.577   3.181  0.00  0.00    +0.000 F 
ATOM      3  C   UNL     1      -3.785 -17.377  -0.249  0.00  0.00    +0.000 A 
ATOM      4  C   UNL     1      -2.646 -17.669   0.533  0.00  0.00    +0.000 A 
ATOM      5  C   UNL     1      -5.068 -17.825   0.110  0.00  0.00    +0.000 A 
ATOM      6  C   UNL     1      -2.853 -18.414   1.702  0.00  0.00    +0.000 A 
ATOM      7  C   UNL     1      -5.235 -18.571   1.274  0.00  0.00    +0.000 A 
ATOM      8  C   UNL     1      -4.126 -18.860   2.060  0.00  0.00    +0.000 A 
ENDROOT
BRANCH   3  14
ATOM      9  O   UNL     1      -3.203 -17.095  -2.492  0.00  0.00    +0.000 OA
ATOM     10  N   UNL     1      -3.940 -15.224  -1.372  0.00  0.00    +0.000 N 
ATOM     11  C   UNL     1      -2.897 -13.432  -1.130  0.00  0.00    +0.000 C 
ATOM     12  C   UNL     1      -3.766 -14.344  -0.218  0.00  0.00    +0.000 C 
ATOM     13  C   UNL     1      -3.543 -14.191  -2.328  0.00  0.00    +0.000 C 
ATOM     14  C   UNL     1      -3.634 -16.562  -1.474  0.00  0.00    +0.000 C 
BRANCH  11  16
ATOM     15  N   UNL     1      -0.690 -12.589  -1.884  0.00  0.00    +0.000 NA
ATOM     16  C   UNL     1      -1.360 -13.631  -1.064  0.00  0.00    +0.000 C 
ATOM     17  C   UNL     1      -0.840 -13.548   0.382  0.00  0.00    +0.000 C 
ATOM     18  C   UNL     1       0.678 -13.720   0.429  0.00  0.00    +0.000 C 
ATOM     19  C   UNL     1       0.757 -12.840  -1.932  0.00  0.00    +0.000 C 
ATOM     20  C   UNL     1       1.374 -12.767  -0.536  0.00  0.00    +0.000 C 
ATOM     21  H   UNL     1      -0.821 -11.689  -1.414  0.00  0.00    +0.000 HD
ENDBRANCH  11  16
BRANCH  11  22
ATOM     22  O   UNL     1      -3.221 -12.012  -1.064  0.00  0.00    +0.000 OA
ATOM     23  H   UNL     1      -3.678 -11.852  -1.912  0.00  0.00    +0.000 HD
ENDBRANCH  11  22
ENDBRANCH   3  14
BRANCH   4  24
ATOM     24  N   UNL     1      -1.387 -17.145   0.166  0.00  0.00    +0.000 N 
ATOM     25  H   UNL     1      -1.237 -16.180   0.481  0.00  0.00    +0.000 HD
BRANCH  24  28
ATOM     26  I   UNL     1       3.810 -19.702  -2.316  0.00  0.00    +0.000 I 
ATOM     27  F   UNL     1      -0.305 -16.267  -2.192  0.00  0.00    +0.000 F 
ATOM     28  C   UNL     1      -0.219 -17.745  -0.340  0.00  0.00    +0.000 A 
ATOM     29  C   UNL     1       0.305 -17.283  -1.562  0.00  0.00    +0.000 A 
ATOM     30  C   UNL     1       0.447 -18.803   0.285  0.00  0.00    +0.000 A 
ATOM     31  C   UNL     1       1.448 -17.830  -2.138  0.00  0.00    +0.000 A 
ATOM     32  C   UNL     1       1.598 -19.366  -0.282  0.00  0.00    +0.000 A 
ATOM     33  C   UNL     1       2.095 -18.875  -1.489  0.00  0.00    +0.000 A 
ENDBRANCH  24  28
ENDBRANCH   4  24
TORSDOF 5
ENDMDL
MODEL 6
REMARK VINA RESULT:      -5.4     20.298     22.222
REMARK  Name = 
REMARK  5 active torsions:
REMARK  status: ('A' for Active; 'I' for Inactive)
REMARK    1  A    between atoms: O_5  and  C_10
REMARK    2  A    between atoms: N_9  and  C_20
REMARK    3  A    between atoms: N_9  and  C_25
REMARK    4  A    between atoms: C_10  and  C_11
REMARK    5  A    between atoms: C_18  and  C_19
REMARK                            x       y       z     vdW  Elec       q    Type
REMARK                         _______ _______ _______ _____ _____    ______ ____
ROOT
ATOM      1  F   UNL     1       5.020 -19.954 -12.383  0.00  0.00    +0.000 F 
ATOM      2  F   UNL     1       3.922 -22.380 -12.823  0.00  0.00    +0.000 F 
ATOM      3  C   UNL     1       1.582 -19.019 -13.119  0.00  0.00    +0.000 A 
ATOM      4  C   UNL     1       2.944 -18.857 -12.783  0.00  0.00    +0.000 A 
ATOM      5  C   UNL     1       1.020 -20.284 -13.361  0.00  0.00    +0.000 A 
ATOM      6  C   UNL     1       3.714 -20.024 -12.681  0.00  0.00    +0.000 A 
ATOM      7  C   UNL     1       1.818 -21.421 -13.260  0.00  0.00    +0.000 A 
ATOM      8  C   UNL     1       3.158 -21.282 -12.922  0.00  0.00    +0.000 A 
ENDROOT
BRANCH   3  14
ATOM      9  O   UNL     1       0.156 -17.422 -12.188  0.00  0.00    +0.000 OA
ATOM     10  N   UNL     1       0.535 -17.274 -14.454  0.00  0.00    +0.000 N 
ATOM     11  C   UNL     1      -0.909 -17.328 -15.959  0.00  0.00    +0.000 C 
ATOM     12  C   UNL     1       0.497 -17.957 -15.745  0.00  0.00    +0.000 C 
ATOM     13  C   UNL     1      -0.525 -16.336 -14.821  0.00  0.00    +0.000 C 
ATOM     14  C   UNL     1       0.711 -17.826 -13.205  0.00  0.00    +0.000 C 
BRANCH  11  16
ATOM     15  N   UNL     1      -3.384 -17.491 -15.959  0.00  0.00    +0.000 NA
ATOM     16  C   UNL     1      -2.135 -18.205 -15.589  0.00  0.00    +0.000 C 
ATOM     17  C   UNL     1      -2.097 -19.564 -16.312  0.00  0.00    +0.000 C 
ATOM     18  C   UNL     1      -3.323 -20.406 -15.959  0.00  0.00    +0.000 C 
ATOM     19  C   UNL     1      -4.554 -18.254 -15.502  0.00  0.00    +0.000 C 
ATOM     20  C   UNL     1      -4.614 -19.624 -16.175  0.00  0.00    +0.000 C 
ATOM     21  H   UNL     1      -3.434 -17.455 -16.980  0.00  0.00    +0.000 HD
ENDBRANCH  11  16
BRANCH  11  22
ATOM     22  O   UNL     1      -1.112 -16.709 -17.263  0.00  0.00    +0.000 OA
ATOM     23  H   UNL     1      -2.052 -16.893 -17.450  0.00  0.00    +0.000 HD
ENDBRANCH  11  22
ENDBRANCH   3  14
BRANCH   4  24
ATOM     24  N   UNL     1       3.449 -17.572 -12.487  0.00  0.00    +0.000 N 
ATOM     25  H   UNL     1       3.410 -16.923 -13.281  0.00  0.00    +0.000 HD
BRANCH  24  28
ATOM     26  I   UNL     1       4.789 -14.543  -7.127  0.00  0.00    +0.000 I 
ATOM     27  F   UNL     1       2.101 -15.322 -11.700  0.00  0.00    +0.000 F 
ATOM     28  C   UNL     1       3.782 -16.939 -11.275  0.00  0.00    +0.000 A 
ATOM     29  C   UNL     1       3.083 -15.776 -10.905  0.00  0.00    +0.000 A 
ATOM     30  C   UNL     1       4.795 -17.380 -10.419  0.00  0.00    +0.000 A 
ATOM     31  C   UNL     1       3.358 -15.081  -9.730  0.00  0.00    +0.000 A 
ATOM     32  C   UNL     1       5.086 -16.692  -9.233  0.00  0.00    +0.000 A 
ATOM     33  C   UNL     1       4.364 -15.548  -8.893  0.00  0.00    +0.000 A 
ENDBRANCH  24  28
ENDBRANCH   4  24
TORSDOF 5
ENDMDL
MODEL 7
REMARK VINA RESULT:      -5.4     10.325     12.955
REMARK  Name = 
REMARK  5 active torsions:
REMARK  status: ('A' for Active; 'I' for Inactive)
REMARK    1  A    between atoms: O_5  and  C_10
REMARK    2  A    between atoms: N_9  and  C_20
REMARK    3  A    between atoms: N_9  and  C_25
REMARK    4  A    between atoms: C_10  and  C_11
REMARK    5  A    between atoms: C_18  and  C_19
REMARK                            x       y       z     vdW  Elec       q    Type
REMARK                         _______ _______ _______ _____ _____    ______ ____
ROOT
ATOM      1  F   UNL     1       7.750 -30.546  -3.047  0.00  0.00    +0.000 F 
ATOM      2  F   UNL     1       9.591 -32.178  -1.936  0.00  0.00    +0.000 F 
ATOM      3  C   UNL     1       6.075 -31.446   0.055  0.00  0.00    +0.000 A 
ATOM      4  C   UNL     1       6.277 -30.823  -1.197  0.00  0.00    +0.000 A 
ATOM      5  C   UNL     1       7.032 -32.306   0.621  0.00  0.00    +0.000 A 
ATOM      6  C   UNL     1       7.490 -31.086  -1.847  0.00  0.00    +0.000 A 
ATOM      7  C   UNL     1       8.223 -32.552  -0.059  0.00  0.00    +0.000 A 
ATOM      8  C   UNL     1       8.442 -31.940  -1.287  0.00  0.00    +0.000 A 
ENDROOT
BRANCH   3  14
ATOM      9  O   UNL     1       4.823 -30.280   1.642  0.00  0.00    +0.000 OA
ATOM     10  N   UNL     1       3.759 -32.003   0.549  0.00  0.00    +0.000 N 
ATOM     11  C   UNL     1       2.870 -33.672   1.432  0.00  0.00    +0.000 C 
ATOM     12  C   UNL     1       3.778 -33.421   0.195  0.00  0.00    +0.000 C 
ATOM     13  C   UNL     1       2.576 -32.142   1.397  0.00  0.00    +0.000 C 
ATOM     14  C   UNL     1       4.830 -31.177   0.806  0.00  0.00    +0.000 C 
BRANCH  11  16
ATOM     15  N   UNL     1       2.641 -34.932   3.556  0.00  0.00    +0.000 NA
ATOM     16  C   UNL     1       3.574 -34.109   2.745  0.00  0.00    +0.000 C 
ATOM     17  C   UNL     1       4.849 -34.922   2.458  0.00  0.00    +0.000 C 
ATOM     18  C   UNL     1       5.517 -35.368   3.759  0.00  0.00    +0.000 C 
ATOM     19  C   UNL     1       3.250 -35.248   4.856  0.00  0.00    +0.000 C 
ATOM     20  C   UNL     1       4.525 -36.071   4.680  0.00  0.00    +0.000 C 
ATOM     21  H   UNL     1       2.503 -35.821   3.068  0.00  0.00    +0.000 HD
ENDBRANCH  11  16
BRANCH  11  22
ATOM     22  O   UNL     1       1.711 -34.519   1.180  0.00  0.00    +0.000 OA
ATOM     23  H   UNL     1       1.134 -33.948   0.639  0.00  0.00    +0.000 HD
ENDBRANCH  11  22
ENDBRANCH   3  14
BRANCH   4  24
ATOM     24  N   UNL     1       5.315 -29.918  -1.696  0.00  0.00    +0.000 N 
ATOM     25  H   UNL     1       4.370 -30.314  -1.754  0.00  0.00    +0.000 HD
BRANCH  24  28
ATOM     26  I   UNL     1       5.327 -23.732  -2.895  0.00  0.00    +0.000 I 
ATOM     27  F   UNL     1       3.965 -28.835  -3.818  0.00  0.00    +0.000 F 
ATOM     28  C   UNL     1       5.343 -28.528  -1.913  0.00  0.00    +0.000 A 
ATOM     29  C   UNL     1       4.653 -28.002  -3.021  0.00  0.00    +0.000 A 
ATOM     30  C   UNL     1       6.045 -27.627  -1.107  0.00  0.00    +0.000 A 
ATOM     31  C   UNL     1       4.640 -26.641  -3.316  0.00  0.00    +0.000 A 
ATOM     32  C   UNL     1       6.043 -26.254  -1.390  0.00  0.00    +0.000 A 
ATOM     33  C   UNL     1       5.339 -25.768  -2.491  0.00  0.00    +0.000 A 
ENDBRANCH  24  28
ENDBRANCH   4  24
TORSDOF 5
ENDMDL
MODEL 8
REMARK VINA RESULT:      -5.3     18.523     20.133
REMARK  Name = 
REMARK  5 active torsions:
REMARK  status: ('A' for Active; 'I' for Inactive)
REMARK    1  A    between atoms: O_5  and  C_10
REMARK    2  A    between atoms: N_9  and  C_20
REMARK    3  A    between atoms: N_9  and  C_25
REMARK    4  A    between atoms: C_10  and  C_11
REMARK    5  A    between atoms: C_18  and  C_19
REMARK                            x       y       z     vdW  Elec       q    Type
REMARK                         _______ _______ _______ _____ _____    ______ ____
ROOT
ATOM      1  F   UNL     1      -0.852 -20.273   1.229  0.00  0.00    +0.000 F 
ATOM      2  F   UNL     1       1.695 -20.376   0.340  0.00  0.00    +0.000 F 
ATOM      3  C   UNL     1      -0.875 -17.577  -1.216  0.00  0.00    +0.000 A 
ATOM      4  C   UNL     1      -1.366 -18.460  -0.228  0.00  0.00    +0.000 A 
ATOM      5  C   UNL     1       0.457 -17.627  -1.662  0.00  0.00    +0.000 A 
ATOM      6  C   UNL     1      -0.467 -19.409   0.277  0.00  0.00    +0.000 A 
ATOM      7  C   UNL     1       1.324 -18.578  -1.131  0.00  0.00    +0.000 A 
ATOM      8  C   UNL     1       0.856 -19.461  -0.166  0.00  0.00    +0.000 A 
ENDROOT
BRANCH   3  14
ATOM      9  O   UNL     1      -2.777 -16.969  -2.424  0.00  0.00    +0.000 OA
ATOM     10  N   UNL     1      -1.430 -15.255  -1.685  0.00  0.00    +0.000 N 
ATOM     11  C   UNL     1      -0.512 -13.800  -2.867  0.00  0.00    +0.000 C 
ATOM     12  C   UNL     1      -0.085 -14.683  -1.660  0.00  0.00    +0.000 C 
ATOM     13  C   UNL     1      -1.978 -14.152  -2.472  0.00  0.00    +0.000 C 
ATOM     14  C   UNL     1      -1.788 -16.578  -1.812  0.00  0.00    +0.000 C 
BRANCH  11  16
ATOM     15  N   UNL     1      -1.032 -13.685  -5.289  0.00  0.00    +0.000 NA
ATOM     16  C   UNL     1      -0.141 -14.316  -4.282  0.00  0.00    +0.000 C 
ATOM     17  C   UNL     1       1.323 -13.999  -4.634  0.00  0.00    +0.000 C 
ATOM     18  C   UNL     1       1.668 -14.489  -6.040  0.00  0.00    +0.000 C 
ATOM     19  C   UNL     1      -0.776 -14.257  -6.618  0.00  0.00    +0.000 C 
ATOM     20  C   UNL     1       0.659 -13.984  -7.066  0.00  0.00    +0.000 C 
ATOM     21  H   UNL     1      -0.792 -12.691  -5.341  0.00  0.00    +0.000 HD
ENDBRANCH  11  16
BRANCH  11  22
ATOM     22  O   UNL     1      -0.172 -12.388  -2.744  0.00  0.00    +0.000 OA
ATOM     23  H   UNL     1       0.592 -12.293  -3.343  0.00  0.00    +0.000 HD
ENDBRANCH  11  22
ENDBRANCH   3  14
BRANCH   4  24
ATOM     24  N   UNL     1      -2.727 -18.414   0.144  0.00  0.00    +0.000 N 
ATOM     25  H   UNL     1      -3.354 -18.853  -0.540  0.00  0.00    +0.000 HD
BRANCH  24  28
ATOM     26  I   UNL     1      -5.683 -17.223   5.580  0.00  0.00    +0.000 I 
ATOM     27  F   UNL     1      -3.749 -20.406   1.722  0.00  0.00    +0.000 F 
ATOM     28  C   UNL     1      -3.371 -18.094   1.354  0.00  0.00    +0.000 A 
ATOM     29  C   UNL     1      -3.900 -19.137   2.136  0.00  0.00    +0.000 A 
ATOM     30  C   UNL     1      -3.546 -16.788   1.821  0.00  0.00    +0.000 A 
ATOM     31  C   UNL     1      -4.562 -18.907   3.338  0.00  0.00    +0.000 A 
ATOM     32  C   UNL     1      -4.211 -16.539   3.029  0.00  0.00    +0.000 A 
ATOM     33  C   UNL     1      -4.713 -17.599   3.783  0.00  0.00    +0.000 A 
ENDBRANCH  24  28
ENDBRANCH   4  24
TORSDOF 5
ENDMDL
MODEL 9
REMARK VINA RESULT:      -5.2      2.946      4.814
REMARK  Name = 
REMARK  5 active torsions:
REMARK  status: ('A' for Active; 'I' for Inactive)
REMARK    1  A    between atoms: O_5  and  C_10
REMARK    2  A    between atoms: N_9  and  C_20
REMARK    3  A    between atoms: N_9  and  C_25
REMARK    4  A    between atoms: C_10  and  C_11
REMARK    5  A    between atoms: C_18  and  C_19
REMARK                            x       y       z     vdW  Elec       q    Type
REMARK                         _______ _______ _______ _____ _____    ______ ____
ROOT
ATOM      1  F   UNL     1      -3.581 -40.016  -5.131  0.00  0.00    +0.000 F 
ATOM      2  F   UNL     1      -3.017 -40.289  -7.757  0.00  0.00    +0.000 F 
ATOM      3  C   UNL     1      -2.840 -36.568  -6.027  0.00  0.00    +0.000 A 
ATOM      4  C   UNL     1      -3.201 -37.667  -5.216  0.00  0.00    +0.000 A 
ATOM      5  C   UNL     1      -2.533 -36.721  -7.391  0.00  0.00    +0.000 A 
ATOM      6  C   UNL     1      -3.261 -38.921  -5.837  0.00  0.00    +0.000 A 
ATOM      7  C   UNL     1      -2.594 -37.984  -7.972  0.00  0.00    +0.000 A 
ATOM      8  C   UNL     1      -2.957 -39.074  -7.191  0.00  0.00    +0.000 A 
ENDROOT
BRANCH   3  14
ATOM      9  O   UNL     1      -1.916 -34.950  -4.623  0.00  0.00    +0.000 OA
ATOM     10  N   UNL     1      -3.797 -34.343  -5.803  0.00  0.00    +0.000 N 
ATOM     11  C   UNL     1      -5.598 -33.659  -5.000  0.00  0.00    +0.000 C 
ATOM     12  C   UNL     1      -5.189 -34.652  -6.125  0.00  0.00    +0.000 C 
ATOM     13  C   UNL     1      -4.144 -33.109  -5.099  0.00  0.00    +0.000 C 
ATOM     14  C   UNL     1      -2.796 -35.214  -5.436  0.00  0.00    +0.000 C 
BRANCH  11  16
ATOM     15  N   UNL     1      -6.760 -33.324  -2.835  0.00  0.00    +0.000 NA
ATOM     16  C   UNL     1      -5.908 -34.266  -3.606  0.00  0.00    +0.000 C 
ATOM     17  C   UNL     1      -6.629 -35.620  -3.726  0.00  0.00    +0.000 C 
ATOM     18  C   UNL     1      -6.951 -36.192  -2.345  0.00  0.00    +0.000 C 
ATOM     19  C   UNL     1      -6.958 -33.829  -1.468  0.00  0.00    +0.000 C 
ATOM     20  C   UNL     1      -7.683 -35.173  -1.478  0.00  0.00    +0.000 C 
ATOM     21  H   UNL     1      -7.681 -33.301  -3.279  0.00  0.00    +0.000 HD
ENDBRANCH  11  16
BRANCH  11  22
ATOM     22  O   UNL     1      -6.635 -32.705  -5.373  0.00  0.00    +0.000 OA
ATOM     23  H   UNL     1      -7.410 -33.276  -5.537  0.00  0.00    +0.000 HD
ENDBRANCH  11  22
ENDBRANCH   3  14
BRANCH   4  24
ATOM     24  N   UNL     1      -3.562 -37.456  -3.867  0.00  0.00    +0.000 N 
ATOM     25  H   UNL     1      -4.408 -36.887  -3.752  0.00  0.00    +0.000 HD
BRANCH  24  28
ATOM     26  I   UNL     1      -1.404 -40.116   1.422  0.00  0.00    +0.000 I 
ATOM     27  F   UNL     1      -0.886 -37.692  -3.332  0.00  0.00    +0.000 F 
ATOM     28  C   UNL     1      -3.133 -38.051  -2.665  0.00  0.00    +0.000 A 
ATOM     29  C   UNL     1      -1.752 -38.172  -2.425  0.00  0.00    +0.000 A 
ATOM     30  C   UNL     1      -4.001 -38.561  -1.696  0.00  0.00    +0.000 A 
ATOM     31  C   UNL     1      -1.244 -38.759  -1.270  0.00  0.00    +0.000 A 
ATOM     32  C   UNL     1      -3.506 -39.155  -0.527  0.00  0.00    +0.000 A 
ATOM     33  C   UNL     1      -2.130 -39.249  -0.318  0.00  0.00    +0.000 A 
ENDBRANCH  24  28
ENDBRANCH   4  24
TORSDOF 5
ENDMDL
