MODEL 1
REMARK VINA RESULT:      -5.6      0.000      0.000
REMARK  Name = COUMESTROL.pdbqt.pdb
REMARK  2 active torsions:
REMARK  status: ('A' for Active; 'I' for Inactive)
REMARK    1  A    between atoms: C_16  and  O_19
REMARK    2  A    between atoms: C_18  and  O_21
REMARK                            x       y       z     vdW  Elec       q    Type
REMARK                         _______ _______ _______ _____ _____    ______ ____
ROOT
ATOM      1  O   UNL     1      -2.488 -35.397  -7.927  0.00  0.00    +0.000 OA
ATOM      2  O   UNL     1      -4.854 -32.473  -6.335  0.00  0.00    +0.000 OA
ATOM      3  O   UNL     1      -3.987 -31.033  -7.920  0.00  0.00    +0.000 OA
ATOM      4  C   UNL     1      -3.215 -33.257  -7.933  0.00  0.00    +0.000 A 
ATOM      5  C   UNL     1      -3.300 -34.491  -7.342  0.00  0.00    +0.000 A 
ATOM      6  C   UNL     1      -2.270 -33.394  -8.980  0.00  0.00    +0.000 A 
ATOM      7  C   UNL     1      -4.139 -34.827  -6.231  0.00  0.00    +0.000 A 
ATOM      8  C   UNL     1      -1.851 -34.727  -8.936  0.00  0.00    +0.000 A 
ATOM      9  C   UNL     1      -4.921 -33.771  -5.740  0.00  0.00    +0.000 A 
ATOM     10  C   UNL     1      -4.015 -32.159  -7.439  0.00  0.00    +0.000 A 
ATOM     11  C   UNL     1      -1.720 -32.549  -9.957  0.00  0.00    +0.000 A 
ATOM     12  C   UNL     1      -4.216 -36.082  -5.641  0.00  0.00    +0.000 A 
ATOM     13  C   UNL     1      -0.915 -35.287  -9.804  0.00  0.00    +0.000 A 
ATOM     14  C   UNL     1      -5.784 -33.946  -4.665  0.00  0.00    +0.000 A 
ATOM     15  C   UNL     1      -0.778 -33.077 -10.845  0.00  0.00    +0.000 A 
ATOM     16  C   UNL     1      -0.393 -34.413 -10.761  0.00  0.00    +0.000 A 
ATOM     17  C   UNL     1      -5.077 -36.272  -4.561  0.00  0.00    +0.000 A 
ATOM     18  C   UNL     1      -5.850 -35.209  -4.085  0.00  0.00    +0.000 A 
ENDROOT
BRANCH  16  19
ATOM     19  O   UNL     1       0.535 -34.863 -11.662  0.00  0.00    +0.000 OA
ATOM     20  H   UNL     1       0.352 -35.800 -11.849  0.00  0.00    +0.000 HD
ENDBRANCH  16  19
BRANCH  18  21
ATOM     21  O   UNL     1      -6.696 -35.388  -3.028  0.00  0.00    +0.000 OA
ATOM     22  H   UNL     1      -7.508 -35.814  -3.353  0.00  0.00    +0.000 HD
ENDBRANCH  18  21
TORSDOF 2
ENDMDL
MODEL 2
REMARK VINA RESULT:      -5.4     12.576     13.295
REMARK  Name = COUMESTROL.pdbqt.pdb
REMARK  2 active torsions:
REMARK  status: ('A' for Active; 'I' for Inactive)
REMARK    1  A    between atoms: C_16  and  O_19
REMARK    2  A    between atoms: C_18  and  O_21
REMARK                            x       y       z     vdW  Elec       q    Type
REMARK                         _______ _______ _______ _____ _____    ______ ____
ROOT
ATOM      1  O   UNL     1       4.628 -31.510   3.288  0.00  0.00    +0.000 OA
ATOM      2  O   UNL     1       2.600 -35.027   3.746  0.00  0.00    +0.000 OA
ATOM      3  O   UNL     1       2.049 -34.898   1.506  0.00  0.00    +0.000 OA
ATOM      4  C   UNL     1       3.365 -33.164   2.405  0.00  0.00    +0.000 A 
ATOM      5  C   UNL     1       3.982 -32.673   3.525  0.00  0.00    +0.000 A 
ATOM      6  C   UNL     1       3.644 -32.235   1.371  0.00  0.00    +0.000 A 
ATOM      7  C   UNL     1       3.970 -33.285   4.819  0.00  0.00    +0.000 A 
ATOM      8  C   UNL     1       4.423 -31.237   1.963  0.00  0.00    +0.000 A 
ATOM      9  C   UNL     1       3.254 -34.488   4.898  0.00  0.00    +0.000 A 
ATOM     10  C   UNL     1       2.623 -34.403   2.468  0.00  0.00    +0.000 A 
ATOM     11  C   UNL     1       3.329 -32.122   0.007  0.00  0.00    +0.000 A 
ATOM     12  C   UNL     1       4.600 -32.776   5.949  0.00  0.00    +0.000 A 
ATOM     13  C   UNL     1       4.917 -30.121   1.289  0.00  0.00    +0.000 A 
ATOM     14  C   UNL     1       3.154 -35.197   6.088  0.00  0.00    +0.000 A 
ATOM     15  C   UNL     1       3.809 -31.016  -0.700  0.00  0.00    +0.000 A 
ATOM     16  C   UNL     1       4.582 -30.046  -0.065  0.00  0.00    +0.000 A 
ATOM     17  C   UNL     1       4.508 -33.477   7.150  0.00  0.00    +0.000 A 
ATOM     18  C   UNL     1       3.790 -34.675   7.210  0.00  0.00    +0.000 A 
ENDROOT
BRANCH  16  19
ATOM     19  O   UNL     1       5.018 -28.989  -0.819  0.00  0.00    +0.000 OA
ATOM     20  H   UNL     1       5.949 -29.145  -1.057  0.00  0.00    +0.000 HD
ENDBRANCH  16  19
BRANCH  18  21
ATOM     21  O   UNL     1       3.696 -35.367   8.384  0.00  0.00    +0.000 OA
ATOM     22  H   UNL     1       3.529 -36.303   8.177  0.00  0.00    +0.000 HD
ENDBRANCH  18  21
TORSDOF 2
ENDMDL
MODEL 3
REMARK VINA RESULT:      -5.2     17.226     19.439
REMARK  Name = COUMESTROL.pdbqt.pdb
REMARK  2 active torsions:
REMARK  status: ('A' for Active; 'I' for Inactive)
REMARK    1  A    between atoms: C_16  and  O_19
REMARK    2  A    between atoms: C_18  and  O_21
REMARK                            x       y       z     vdW  Elec       q    Type
REMARK                         _______ _______ _______ _____ _____    ______ ____
ROOT
ATOM      1  O   UNL     1      -2.220 -15.942  -0.273  0.00  0.00    +0.000 OA
ATOM      2  O   UNL     1      -4.586 -18.979   1.091  0.00  0.00    +0.000 OA
ATOM      3  O   UNL     1      -6.313 -17.451   1.233  0.00  0.00    +0.000 OA
ATOM      4  C   UNL     1      -4.229 -16.670   0.464  0.00  0.00    +0.000 A 
ATOM      5  C   UNL     1      -2.932 -17.000   0.171  0.00  0.00    +0.000 A 
ATOM      6  C   UNL     1      -4.349 -15.286   0.182  0.00  0.00    +0.000 A 
ATOM      7  C   UNL     1      -2.353 -18.303   0.304  0.00  0.00    +0.000 A 
ATOM      8  C   UNL     1      -3.088 -14.884  -0.267  0.00  0.00    +0.000 A 
ATOM      9  C   UNL     1      -3.227 -19.293   0.777  0.00  0.00    +0.000 A 
ATOM     10  C   UNL     1      -5.142 -17.678   0.952  0.00  0.00    +0.000 A 
ATOM     11  C   UNL     1      -5.374 -14.329   0.255  0.00  0.00    +0.000 A 
ATOM     12  C   UNL     1      -1.036 -18.625   0.003  0.00  0.00    +0.000 A 
ATOM     13  C   UNL     1      -2.769 -13.583  -0.654  0.00  0.00    +0.000 A 
ATOM     14  C   UNL     1      -2.808 -20.605   0.957  0.00  0.00    +0.000 A 
ATOM     15  C   UNL     1      -5.088 -13.014  -0.126  0.00  0.00    +0.000 A 
ATOM     16  C   UNL     1      -3.815 -12.661  -0.568  0.00  0.00    +0.000 A 
ATOM     17  C   UNL     1      -0.601 -19.939   0.179  0.00  0.00    +0.000 A 
ATOM     18  C   UNL     1      -1.486 -20.912   0.652  0.00  0.00    +0.000 A 
ENDROOT
BRANCH  16  19
ATOM     19  O   UNL     1      -3.606 -11.356  -0.924  0.00  0.00    +0.000 OA
ATOM     20  H   UNL     1      -3.426 -10.842  -0.118  0.00  0.00    +0.000 HD
ENDBRANCH  16  19
BRANCH  18  21
ATOM     21  O   UNL     1      -1.067 -22.200   0.827  0.00  0.00    +0.000 OA
ATOM     22  H   UNL     1      -1.380 -22.730   0.073  0.00  0.00    +0.000 HD
ENDBRANCH  18  21
TORSDOF 2
ENDMDL
MODEL 4
REMARK VINA RESULT:      -5.2     11.077     11.226
REMARK  Name = COUMESTROL.pdbqt.pdb
REMARK  2 active torsions:
REMARK  status: ('A' for Active; 'I' for Inactive)
REMARK    1  A    between atoms: C_16  and  O_19
REMARK    2  A    between atoms: C_18  and  O_21
REMARK                            x       y       z     vdW  Elec       q    Type
REMARK                         _______ _______ _______ _____ _____    ______ ____
ROOT
ATOM      1  O   UNL     1       5.565 -31.202  -1.459  0.00  0.00    +0.000 OA
ATOM      2  O   UNL     1       2.672 -31.008   1.418  0.00  0.00    +0.000 OA
ATOM      3  O   UNL     1       2.256 -28.842   0.728  0.00  0.00    +0.000 OA
ATOM      4  C   UNL     1       3.946 -30.037  -0.395  0.00  0.00    +0.000 A 
ATOM      5  C   UNL     1       4.629 -31.222  -0.485  0.00  0.00    +0.000 A 
ATOM      6  C   UNL     1       4.496 -29.196  -1.395  0.00  0.00    +0.000 A 
ATOM      7  C   UNL     1       4.410 -32.374   0.335  0.00  0.00    +0.000 A 
ATOM      8  C   UNL     1       5.487 -29.957  -2.022  0.00  0.00    +0.000 A 
ATOM      9  C   UNL     1       3.401 -32.231   1.299  0.00  0.00    +0.000 A 
ATOM     10  C   UNL     1       2.904 -29.873   0.593  0.00  0.00    +0.000 A 
ATOM     11  C   UNL     1       4.272 -27.884  -1.842  0.00  0.00    +0.000 A 
ATOM     12  C   UNL     1       5.109 -33.571   0.233  0.00  0.00    +0.000 A 
ATOM     13  C   UNL     1       6.281 -29.502  -3.074  0.00  0.00    +0.000 A 
ATOM     14  C   UNL     1       3.076 -33.265   2.168  0.00  0.00    +0.000 A 
ATOM     15  C   UNL     1       5.051 -27.395  -2.896  0.00  0.00    +0.000 A 
ATOM     16  C   UNL     1       6.027 -28.192  -3.488  0.00  0.00    +0.000 A 
ATOM     17  C   UNL     1       4.793 -34.617   1.099  0.00  0.00    +0.000 A 
ATOM     18  C   UNL     1       3.785 -34.456   2.054  0.00  0.00    +0.000 A 
ENDROOT
BRANCH  16  19
ATOM     19  O   UNL     1       6.752 -27.649  -4.515  0.00  0.00    +0.000 OA
ATOM     20  H   UNL     1       6.133 -27.248  -5.149  0.00  0.00    +0.000 HD
ENDBRANCH  16  19
BRANCH  18  21
ATOM     21  O   UNL     1       3.470 -35.477   2.905  0.00  0.00    +0.000 OA
ATOM     22  H   UNL     1       2.899 -36.107   2.432  0.00  0.00    +0.000 HD
ENDBRANCH  18  21
TORSDOF 2
ENDMDL
MODEL 5
REMARK VINA RESULT:      -5.2     12.708     14.409
REMARK  Name = COUMESTROL.pdbqt.pdb
REMARK  2 active torsions:
REMARK  status: ('A' for Active; 'I' for Inactive)
REMARK    1  A    between atoms: C_16  and  O_19
REMARK    2  A    between atoms: C_18  and  O_21
REMARK                            x       y       z     vdW  Elec       q    Type
REMARK                         _______ _______ _______ _____ _____    ______ ____
ROOT
ATOM      1  O   UNL     1       4.810 -31.886   4.203  0.00  0.00    +0.000 OA
ATOM      2  O   UNL     1       2.703 -33.608   1.158  0.00  0.00    +0.000 OA
ATOM      3  O   UNL     1       1.939 -35.164   2.686  0.00  0.00    +0.000 OA
ATOM      4  C   UNL     1       3.403 -33.496   3.471  0.00  0.00    +0.000 A 
ATOM      5  C   UNL     1       4.146 -32.392   3.142  0.00  0.00    +0.000 A 
ATOM      6  C   UNL     1       3.615 -33.706   4.857  0.00  0.00    +0.000 A 
ATOM      7  C   UNL     1       4.238 -31.808   1.838  0.00  0.00    +0.000 A 
ATOM      8  C   UNL     1       4.486 -32.691   5.261  0.00  0.00    +0.000 A 
ATOM      9  C   UNL     1       3.487 -32.455   0.846  0.00  0.00    +0.000 A 
ATOM     10  C   UNL     1       2.624 -34.174   2.460  0.00  0.00    +0.000 A 
ATOM     11  C   UNL     1       3.172 -34.633   5.814  0.00  0.00    +0.000 A 
ATOM     12  C   UNL     1       4.996 -30.688   1.518  0.00  0.00    +0.000 A 
ATOM     13  C   UNL     1       4.955 -32.529   6.565  0.00  0.00    +0.000 A 
ATOM     14  C   UNL     1       3.478 -32.002  -0.467  0.00  0.00    +0.000 A 
ATOM     15  C   UNL     1       3.622 -34.501   7.131  0.00  0.00    +0.000 A 
ATOM     16  C   UNL     1       4.491 -33.472   7.486  0.00  0.00    +0.000 A 
ATOM     17  C   UNL     1       4.996 -30.223   0.203  0.00  0.00    +0.000 A 
ATOM     18  C   UNL     1       4.241 -30.880  -0.773  0.00  0.00    +0.000 A 
ENDROOT
BRANCH  16  19
ATOM     19  O   UNL     1       4.892 -33.403   8.793  0.00  0.00    +0.000 OA
ATOM     20  H   UNL     1       4.127 -33.141   9.335  0.00  0.00    +0.000 HD
ENDBRANCH  16  19
BRANCH  18  21
ATOM     21  O   UNL     1       4.236 -30.430  -2.062  0.00  0.00    +0.000 OA
ATOM     22  H   UNL     1       3.321 -30.452  -2.393  0.00  0.00    +0.000 HD
ENDBRANCH  18  21
TORSDOF 2
ENDMDL
MODEL 6
REMARK VINA RESULT:      -5.1     18.130     20.366
REMARK  Name = COUMESTROL.pdbqt.pdb
REMARK  2 active torsions:
REMARK  status: ('A' for Active; 'I' for Inactive)
REMARK    1  A    between atoms: C_16  and  O_19
REMARK    2  A    between atoms: C_18  and  O_21
REMARK                            x       y       z     vdW  Elec       q    Type
REMARK                         _______ _______ _______ _____ _____    ______ ____
ROOT
ATOM      1  O   UNL     1      -4.381 -16.415   1.038  0.00  0.00    +0.000 OA
ATOM      2  O   UNL     1      -4.194 -13.952  -2.215  0.00  0.00    +0.000 OA
ATOM      3  O   UNL     1      -2.479 -15.280  -3.011  0.00  0.00    +0.000 OA
ATOM      4  C   UNL     1      -3.442 -15.869  -0.944  0.00  0.00    +0.000 A 
ATOM      5  C   UNL     1      -4.386 -15.553  -0.002  0.00  0.00    +0.000 A 
ATOM      6  C   UNL     1      -2.785 -17.027  -0.460  0.00  0.00    +0.000 A 
ATOM      7  C   UNL     1      -5.294 -14.448  -0.068  0.00  0.00    +0.000 A 
ATOM      8  C   UNL     1      -3.397 -17.324   0.761  0.00  0.00    +0.000 A 
ATOM      9  C   UNL     1      -5.169 -13.649  -1.214  0.00  0.00    +0.000 A 
ATOM     10  C   UNL     1      -3.301 -15.055  -2.130  0.00  0.00    +0.000 A 
ATOM     11  C   UNL     1      -1.746 -17.857  -0.911  0.00  0.00    +0.000 A 
ATOM     12  C   UNL     1      -6.246 -14.139   0.895  0.00  0.00    +0.000 A 
ATOM     13  C   UNL     1      -3.046 -18.400   1.575  0.00  0.00    +0.000 A 
ATOM     14  C   UNL     1      -5.982 -12.541  -1.418  0.00  0.00    +0.000 A 
ATOM     15  C   UNL     1      -1.368 -18.946  -0.119  0.00  0.00    +0.000 A 
ATOM     16  C   UNL     1      -2.009 -19.201   1.091  0.00  0.00    +0.000 A 
ATOM     17  C   UNL     1      -7.069 -13.030   0.703  0.00  0.00    +0.000 A 
ATOM     18  C   UNL     1      -6.931 -12.244  -0.445  0.00  0.00    +0.000 A 
ENDROOT
BRANCH  16  19
ATOM     19  O   UNL     1      -1.588 -20.285   1.816  0.00  0.00    +0.000 OA
ATOM     20  H   UNL     1      -1.938 -20.204   2.720  0.00  0.00    +0.000 HD
ENDBRANCH  16  19
BRANCH  18  21
ATOM     21  O   UNL     1      -7.733 -11.156  -0.639  0.00  0.00    +0.000 OA
ATOM     22  H   UNL     1      -7.816 -11.001  -1.597  0.00  0.00    +0.000 HD
ENDBRANCH  18  21
TORSDOF 2
ENDMDL
MODEL 7
REMARK VINA RESULT:      -4.9     12.639     12.878
REMARK  Name = COUMESTROL.pdbqt.pdb
REMARK  2 active torsions:
REMARK  status: ('A' for Active; 'I' for Inactive)
REMARK    1  A    between atoms: C_16  and  O_19
REMARK    2  A    between atoms: C_18  and  O_21
REMARK                            x       y       z     vdW  Elec       q    Type
REMARK                         _______ _______ _______ _____ _____    ______ ____
ROOT
ATOM      1  O   UNL     1       5.926 -30.331   2.347  0.00  0.00    +0.000 OA
ATOM      2  O   UNL     1       3.314 -31.747  -0.456  0.00  0.00    +0.000 OA
ATOM      3  O   UNL     1       4.108 -30.118  -1.890  0.00  0.00    +0.000 OA
ATOM      4  C   UNL     1       5.043 -30.217   0.269  0.00  0.00    +0.000 A 
ATOM      5  C   UNL     1       5.036 -30.860   1.480  0.00  0.00    +0.000 A 
ATOM      6  C   UNL     1       6.019 -29.196   0.379  0.00  0.00    +0.000 A 
ATOM      7  C   UNL     1       4.200 -31.968   1.831  0.00  0.00    +0.000 A 
ATOM      8  C   UNL     1       6.534 -29.306   1.674  0.00  0.00    +0.000 A 
ATOM      9  C   UNL     1       3.330 -32.397   0.817  0.00  0.00    +0.000 A 
ATOM     10  C   UNL     1       4.153 -30.647  -0.786  0.00  0.00    +0.000 A 
ATOM     11  C   UNL     1       6.527 -28.194  -0.463  0.00  0.00    +0.000 A 
ATOM     12  C   UNL     1       4.202 -32.611   3.062  0.00  0.00    +0.000 A 
ATOM     13  C   UNL     1       7.529 -28.482   2.198  0.00  0.00    +0.000 A 
ATOM     14  C   UNL     1       2.459 -33.461   1.011  0.00  0.00    +0.000 A 
ATOM     15  C   UNL     1       7.526 -27.348   0.030  0.00  0.00    +0.000 A 
ATOM     16  C   UNL     1       8.007 -27.498   1.329  0.00  0.00    +0.000 A 
ATOM     17  C   UNL     1       3.333 -33.681   3.271  0.00  0.00    +0.000 A 
ATOM     18  C   UNL     1       2.473 -34.095   2.249  0.00  0.00    +0.000 A 
ENDROOT
BRANCH  16  19
ATOM     19  O   UNL     1       8.985 -26.635   1.746  0.00  0.00    +0.000 OA
ATOM     20  H   UNL     1       8.950 -26.577   2.716  0.00  0.00    +0.000 HD
ENDBRANCH  16  19
BRANCH  18  21
ATOM     21  O   UNL     1       1.619 -35.142   2.446  0.00  0.00    +0.000 OA
ATOM     22  H   UNL     1       1.473 -35.244   3.403  0.00  0.00    +0.000 HD
ENDBRANCH  18  21
TORSDOF 2
ENDMDL
MODEL 8
REMARK VINA RESULT:      -4.9     11.186     12.427
REMARK  Name = COUMESTROL.pdbqt.pdb
REMARK  2 active torsions:
REMARK  status: ('A' for Active; 'I' for Inactive)
REMARK    1  A    between atoms: C_16  and  O_19
REMARK    2  A    between atoms: C_18  and  O_21
REMARK                            x       y       z     vdW  Elec       q    Type
REMARK                         _______ _______ _______ _____ _____    ______ ____
ROOT
ATOM      1  O   UNL     1       5.335 -32.372  -0.598  0.00  0.00    +0.000 OA
ATOM      2  O   UNL     1       3.448 -28.765  -0.261  0.00  0.00    +0.000 OA
ATOM      3  O   UNL     1       2.340 -29.617   1.579  0.00  0.00    +0.000 OA
ATOM      4  C   UNL     1       3.865 -31.031   0.476  0.00  0.00    +0.000 A 
ATOM      5  C   UNL     1       4.756 -31.152  -0.558  0.00  0.00    +0.000 A 
ATOM      6  C   UNL     1       3.881 -32.279   1.148  0.00  0.00    +0.000 A 
ATOM      7  C   UNL     1       5.071 -30.131  -1.511  0.00  0.00    +0.000 A 
ATOM      8  C   UNL     1       4.799 -33.070   0.450  0.00  0.00    +0.000 A 
ATOM      9  C   UNL     1       4.383 -28.922  -1.330  0.00  0.00    +0.000 A 
ATOM     10  C   UNL     1       3.149 -29.792   0.676  0.00  0.00    +0.000 A 
ATOM     11  C   UNL     1       3.227 -32.832   2.261  0.00  0.00    +0.000 A 
ATOM     12  C   UNL     1       5.976 -30.266  -2.556  0.00  0.00    +0.000 A 
ATOM     13  C   UNL     1       5.117 -34.386   0.784  0.00  0.00    +0.000 A 
ATOM     14  C   UNL     1       4.584 -27.839  -2.177  0.00  0.00    +0.000 A 
ATOM     15  C   UNL     1       3.523 -34.149   2.624  0.00  0.00    +0.000 A 
ATOM     16  C   UNL     1       4.446 -34.897   1.897  0.00  0.00    +0.000 A 
ATOM     17  C   UNL     1       6.188 -29.187  -3.414  0.00  0.00    +0.000 A 
ATOM     18  C   UNL     1       5.494 -27.990  -3.218  0.00  0.00    +0.000 A 
ENDROOT
BRANCH  16  19
ATOM     19  O   UNL     1       4.687 -36.181   2.309  0.00  0.00    +0.000 OA
ATOM     20  H   UNL     1       4.961 -36.705   1.536  0.00  0.00    +0.000 HD
ENDBRANCH  16  19
BRANCH  18  21
ATOM     21  O   UNL     1       5.697 -26.929  -4.055  0.00  0.00    +0.000 OA
ATOM     22  H   UNL     1       6.655 -26.807  -4.171  0.00  0.00    +0.000 HD
ENDBRANCH  18  21
TORSDOF 2
ENDMDL
MODEL 9
REMARK VINA RESULT:      -4.8     12.552     14.105
REMARK  Name = COUMESTROL.pdbqt.pdb
REMARK  2 active torsions:
REMARK  status: ('A' for Active; 'I' for Inactive)
REMARK    1  A    between atoms: C_16  and  O_19
REMARK    2  A    between atoms: C_18  and  O_21
REMARK                            x       y       z     vdW  Elec       q    Type
REMARK                         _______ _______ _______ _____ _____    ______ ____
ROOT
ATOM      1  O   UNL     1       3.991 -24.546  -1.591  0.00  0.00    +0.000 OA
ATOM      2  O   UNL     1       6.005 -25.789  -4.920  0.00  0.00    +0.000 OA
ATOM      3  O   UNL     1       6.102 -23.577  -5.579  0.00  0.00    +0.000 OA
ATOM      4  C   UNL     1       5.023 -24.060  -3.543  0.00  0.00    +0.000 A 
ATOM      5  C   UNL     1       4.650 -25.041  -2.662  0.00  0.00    +0.000 A 
ATOM      6  C   UNL     1       4.561 -22.842  -2.984  0.00  0.00    +0.000 A 
ATOM      7  C   UNL     1       4.907 -26.441  -2.815  0.00  0.00    +0.000 A 
ATOM      8  C   UNL     1       3.934 -23.193  -1.785  0.00  0.00    +0.000 A 
ATOM      9  C   UNL     1       5.602 -26.790  -3.982  0.00  0.00    +0.000 A 
ATOM     10  C   UNL     1       5.740 -24.403  -4.750  0.00  0.00    +0.000 A 
ATOM     11  C   UNL     1       4.601 -21.487  -3.350  0.00  0.00    +0.000 A 
ATOM     12  C   UNL     1       4.523 -27.426  -1.914  0.00  0.00    +0.000 A 
ATOM     13  C   UNL     1       3.336 -22.283  -0.914  0.00  0.00    +0.000 A 
ATOM     14  C   UNL     1       5.924 -28.111  -4.268  0.00  0.00    +0.000 A 
ATOM     15  C   UNL     1       4.010 -20.547  -2.500  0.00  0.00    +0.000 A 
ATOM     16  C   UNL     1       3.396 -20.946  -1.315  0.00  0.00    +0.000 A 
ATOM     17  C   UNL     1       4.839 -28.756  -2.188  0.00  0.00    +0.000 A 
ATOM     18  C   UNL     1       5.533 -29.085  -3.356  0.00  0.00    +0.000 A 
ENDROOT
BRANCH  16  19
ATOM     19  O   UNL     1       2.839 -19.972  -0.531  0.00  0.00    +0.000 OA
ATOM     20  H   UNL     1       2.000 -20.310  -0.171  0.00  0.00    +0.000 HD
ENDBRANCH  16  19
BRANCH  18  21
ATOM     21  O   UNL     1       5.845 -30.387  -3.631  0.00  0.00    +0.000 OA
ATOM     22  H   UNL     1       5.170 -30.958  -3.225  0.00  0.00    +0.000 HD
ENDBRANCH  18  21
TORSDOF 2
ENDMDL
