MODEL 1
REMARK VINA RESULT:      -5.9      0.000      0.000
REMARK  Name = CP466722.pdbqt.pdb
REMARK  3 active torsions:
REMARK  status: ('A' for Active; 'I' for Inactive)
REMARK    1  A    between atoms: C_5  and  C_23
REMARK    2  A    between atoms: C_14  and  O_16
REMARK    3  A    between atoms: C_15  and  O_18
REMARK                            x       y       z     vdW  Elec       q    Type
REMARK                         _______ _______ _______ _____ _____    ______ ____
ROOT
ATOM      1  N   UNL     1      -5.454 -34.239  -4.454  0.00  0.00    +0.000 N 
ATOM      2  N   UNL     1      -5.879 -34.060  -3.182  0.00  0.00    +0.000 NA
ATOM      3  N   UNL     1      -6.913 -32.582  -4.571  0.00  0.00    +0.000 NA
ATOM      4  C   UNL     1      -6.114 -33.331  -5.286  0.00  0.00    +0.000 A 
ATOM      5  C   UNL     1      -6.757 -33.051  -3.288  0.00  0.00    +0.000 A 
ATOM      6  C   UNL     1      -4.450 -35.199  -4.816  0.00  0.00    +0.000 A 
ATOM      7  N   UNL     1      -4.020 -35.180  -6.106  0.00  0.00    +0.000 NA
ATOM      8  C   UNL     1      -3.068 -36.060  -6.435  0.00  0.00    +0.000 A 
ATOM      9  N   UNL     1      -2.505 -36.942  -5.604  0.00  0.00    +0.000 NA
ATOM     10  C   UNL     1      -2.932 -36.956  -4.340  0.00  0.00    +0.000 A 
ATOM     11  C   UNL     1      -3.932 -36.098  -3.863  0.00  0.00    +0.000 A 
ATOM     12  C   UNL     1      -2.347 -37.861  -3.465  0.00  0.00    +0.000 A 
ATOM     13  C   UNL     1      -4.331 -36.220  -2.510  0.00  0.00    +0.000 A 
ATOM     14  C   UNL     1      -3.765 -37.156  -1.653  0.00  0.00    +0.000 A 
ATOM     15  C   UNL     1      -2.723 -37.947  -2.123  0.00  0.00    +0.000 A 
ATOM     16  N   UNL     1      -5.952 -33.251  -6.621  0.00  0.00    +0.000 N 
ATOM     17  H   UNL     1      -6.284 -32.418  -7.095  0.00  0.00    +0.000 HD
ATOM     18  H   UNL     1      -5.155 -33.713  -7.058  0.00  0.00    +0.000 HD
ENDROOT
BRANCH   5  19
ATOM     19  C   UNL     1      -7.491 -32.479  -2.155  0.00  0.00    +0.000 A 
ATOM     20  N   UNL     1      -6.802 -32.233  -1.006  0.00  0.00    +0.000 NA
ATOM     21  C   UNL     1      -7.501 -31.707   0.023  0.00  0.00    +0.000 A 
ATOM     22  C   UNL     1      -8.851 -31.408  -0.025  0.00  0.00    +0.000 A 
ATOM     23  C   UNL     1      -9.526 -31.666  -1.211  0.00  0.00    +0.000 A 
ATOM     24  C   UNL     1      -8.847 -32.209  -2.294  0.00  0.00    +0.000 A 
ENDBRANCH   5  19
BRANCH  14  25
ATOM     25  O   UNL     1      -4.195 -37.192  -0.354  0.00  0.00    +0.000 OA
ATOM     26  C   UNL     1      -5.521 -36.737  -0.263  0.00  0.00    +0.000 C 
ENDBRANCH  14  25
BRANCH  15  27
ATOM     27  O   UNL     1      -2.118 -38.871  -1.314  0.00  0.00    +0.000 OA
ATOM     28  C   UNL     1      -0.832 -38.431  -0.954  0.00  0.00    +0.000 C 
ENDBRANCH  15  27
TORSDOF 3
ENDMDL
MODEL 2
REMARK VINA RESULT:      -5.8     21.960     24.604
REMARK  Name = CP466722.pdbqt.pdb
REMARK  3 active torsions:
REMARK  status: ('A' for Active; 'I' for Inactive)
REMARK    1  A    between atoms: C_5  and  C_23
REMARK    2  A    between atoms: C_14  and  O_16
REMARK    3  A    between atoms: C_15  and  O_18
REMARK                            x       y       z     vdW  Elec       q    Type
REMARK                         _______ _______ _______ _____ _____    ______ ____
ROOT
ATOM      1  N   UNL     1      -6.938 -13.167 -14.280  0.00  0.00    +0.000 N 
ATOM      2  N   UNL     1      -6.192 -14.240 -14.629  0.00  0.00    +0.000 NA
ATOM      3  N   UNL     1      -4.872 -12.635 -13.699  0.00  0.00    +0.000 NA
ATOM      4  C   UNL     1      -6.108 -12.206 -13.699  0.00  0.00    +0.000 A 
ATOM      5  C   UNL     1      -4.950 -13.886 -14.267  0.00  0.00    +0.000 A 
ATOM      6  C   UNL     1      -8.348 -13.078 -14.533  0.00  0.00    +0.000 A 
ATOM      7  N   UNL     1      -8.948 -11.890 -14.253  0.00  0.00    +0.000 NA
ATOM      8  C   UNL     1     -10.257 -11.802 -14.511  0.00  0.00    +0.000 A 
ATOM      9  N   UNL     1     -11.014 -12.777 -15.025  0.00  0.00    +0.000 NA
ATOM     10  C   UNL     1     -10.420 -13.940 -15.297  0.00  0.00    +0.000 A 
ATOM     11  C   UNL     1      -9.058 -14.173 -15.064  0.00  0.00    +0.000 A 
ATOM     12  C   UNL     1     -11.194 -14.956 -15.839  0.00  0.00    +0.000 A 
ATOM     13  C   UNL     1      -8.538 -15.456 -15.359  0.00  0.00    +0.000 A 
ATOM     14  C   UNL     1      -9.331 -16.478 -15.867  0.00  0.00    +0.000 A 
ATOM     15  C   UNL     1     -10.662 -16.206 -16.161  0.00  0.00    +0.000 A 
ATOM     16  N   UNL     1      -6.524 -11.022 -13.210  0.00  0.00    +0.000 N 
ATOM     17  H   UNL     1      -5.829 -10.305 -13.032  0.00  0.00    +0.000 HD
ATOM     18  H   UNL     1      -7.453 -10.678 -13.451  0.00  0.00    +0.000 HD
ENDROOT
BRANCH   5  19
ATOM     19  C   UNL     1      -3.767 -14.731 -14.455  0.00  0.00    +0.000 A 
ATOM     20  N   UNL     1      -3.728 -15.928 -13.808  0.00  0.00    +0.000 NA
ATOM     21  C   UNL     1      -2.627 -16.688 -13.996  0.00  0.00    +0.000 A 
ATOM     22  C   UNL     1      -1.559 -16.324 -14.796  0.00  0.00    +0.000 A 
ATOM     23  C   UNL     1      -1.628 -15.098 -15.446  0.00  0.00    +0.000 A 
ATOM     24  C   UNL     1      -2.741 -14.285 -15.279  0.00  0.00    +0.000 A 
ENDBRANCH   5  19
BRANCH  14  25
ATOM     25  O   UNL     1      -8.742 -17.682 -16.145  0.00  0.00    +0.000 OA
ATOM     26  C   UNL     1      -7.374 -17.645 -15.824  0.00  0.00    +0.000 C 
ENDBRANCH  14  25
BRANCH  15  27
ATOM     27  O   UNL     1     -11.481 -17.171 -16.682  0.00  0.00    +0.000 OA
ATOM     28  C   UNL     1     -11.657 -16.966 -18.061  0.00  0.00    +0.000 C 
ENDBRANCH  15  27
TORSDOF 3
ENDMDL
MODEL 3
REMARK VINA RESULT:      -5.7     21.734     23.862
REMARK  Name = CP466722.pdbqt.pdb
REMARK  3 active torsions:
REMARK  status: ('A' for Active; 'I' for Inactive)
REMARK    1  A    between atoms: C_5  and  C_23
REMARK    2  A    between atoms: C_14  and  O_16
REMARK    3  A    between atoms: C_15  and  O_18
REMARK                            x       y       z     vdW  Elec       q    Type
REMARK                         _______ _______ _______ _____ _____    ______ ____
ROOT
ATOM      1  N   UNL     1      -6.165 -13.366 -14.340  0.00  0.00    +0.000 N 
ATOM      2  N   UNL     1      -4.978 -13.084 -13.754  0.00  0.00    +0.000 NA
ATOM      3  N   UNL     1      -6.406 -11.325 -13.525  0.00  0.00    +0.000 NA
ATOM      4  C   UNL     1      -7.025 -12.279 -14.172  0.00  0.00    +0.000 A 
ATOM      5  C   UNL     1      -5.157 -11.844 -13.274  0.00  0.00    +0.000 A 
ATOM      6  C   UNL     1      -6.418 -14.592 -15.043  0.00  0.00    +0.000 A 
ATOM      7  N   UNL     1      -7.606 -14.688 -15.699  0.00  0.00    +0.000 NA
ATOM      8  C   UNL     1      -7.830 -15.822 -16.372  0.00  0.00    +0.000 A 
ATOM      9  N   UNL     1      -6.985 -16.853 -16.458  0.00  0.00    +0.000 NA
ATOM     10  C   UNL     1      -5.822 -16.753 -15.812  0.00  0.00    +0.000 A 
ATOM     11  C   UNL     1      -5.463 -15.628 -15.059  0.00  0.00    +0.000 A 
ATOM     12  C   UNL     1      -4.933 -17.815 -15.903  0.00  0.00    +0.000 A 
ATOM     13  C   UNL     1      -4.218 -15.640 -14.387  0.00  0.00    +0.000 A 
ATOM     14  C   UNL     1      -3.351 -16.725 -14.453  0.00  0.00    +0.000 A 
ATOM     15  C   UNL     1      -3.690 -17.801 -15.266  0.00  0.00    +0.000 A 
ATOM     16  N   UNL     1      -8.299 -12.230 -14.607  0.00  0.00    +0.000 N 
ATOM     17  H   UNL     1      -8.756 -11.325 -14.650  0.00  0.00    +0.000 HD
ATOM     18  H   UNL     1      -8.624 -12.916 -15.288  0.00  0.00    +0.000 HD
ENDROOT
BRANCH   5  19
ATOM     19  C   UNL     1      -4.130 -11.087 -12.551  0.00  0.00    +0.000 A 
ATOM     20  N   UNL     1      -4.328 -10.847 -11.226  0.00  0.00    +0.000 NA
ATOM     21  C   UNL     1      -3.368 -10.147 -10.583  0.00  0.00    +0.000 A 
ATOM     22  C   UNL     1      -2.217  -9.672 -11.185  0.00  0.00    +0.000 A 
ATOM     23  C   UNL     1      -2.041  -9.935 -12.538  0.00  0.00    +0.000 A 
ATOM     24  C   UNL     1      -3.004 -10.650 -13.238  0.00  0.00    +0.000 A 
ENDBRANCH   5  19
BRANCH  14  25
ATOM     25  O   UNL     1      -2.157 -16.645 -13.791  0.00  0.00    +0.000 OA
ATOM     26  C   UNL     1      -1.201 -15.982 -14.579  0.00  0.00    +0.000 C 
ENDBRANCH  14  25
BRANCH  15  27
ATOM     27  O   UNL     1      -2.863 -18.885 -15.382  0.00  0.00    +0.000 OA
ATOM     28  C   UNL     1      -3.578 -19.989 -15.879  0.00  0.00    +0.000 C 
ENDBRANCH  15  27
TORSDOF 3
ENDMDL
MODEL 4
REMARK VINA RESULT:      -5.7     20.917     23.935
REMARK  Name = CP466722.pdbqt.pdb
REMARK  3 active torsions:
REMARK  status: ('A' for Active; 'I' for Inactive)
REMARK    1  A    between atoms: C_5  and  C_23
REMARK    2  A    between atoms: C_14  and  O_16
REMARK    3  A    between atoms: C_15  and  O_18
REMARK                            x       y       z     vdW  Elec       q    Type
REMARK                         _______ _______ _______ _____ _____    ______ ____
ROOT
ATOM      1  N   UNL     1      -6.561 -15.128 -15.158  0.00  0.00    +0.000 N 
ATOM      2  N   UNL     1      -6.535 -16.399 -15.623  0.00  0.00    +0.000 NA
ATOM      3  N   UNL     1      -4.445 -15.750 -14.995  0.00  0.00    +0.000 NA
ATOM      4  C   UNL     1      -5.271 -14.762 -14.766  0.00  0.00    +0.000 A 
ATOM      5  C   UNL     1      -5.243 -16.743 -15.513  0.00  0.00    +0.000 A 
ATOM      6  C   UNL     1      -7.751 -14.327 -15.137  0.00  0.00    +0.000 A 
ATOM      7  N   UNL     1      -7.608 -13.025 -14.770  0.00  0.00    +0.000 NA
ATOM      8  C   UNL     1      -8.714 -12.274 -14.773  0.00  0.00    +0.000 A 
ATOM      9  N   UNL     1      -9.936 -12.694 -15.113  0.00  0.00    +0.000 NA
ATOM     10  C   UNL     1     -10.071 -13.973 -15.471  0.00  0.00    +0.000 A 
ATOM     11  C   UNL     1      -8.998 -14.874 -15.500  0.00  0.00    +0.000 A 
ATOM     12  C   UNL     1     -11.334 -14.418 -15.836  0.00  0.00    +0.000 A 
ATOM     13  C   UNL     1      -9.259 -16.216 -15.864  0.00  0.00    +0.000 A 
ATOM     14  C   UNL     1     -10.536 -16.660 -16.190  0.00  0.00    +0.000 A 
ATOM     15  C   UNL     1     -11.573 -15.736 -16.229  0.00  0.00    +0.000 A 
ATOM     16  N   UNL     1      -4.938 -13.572 -14.229  0.00  0.00    +0.000 N 
ATOM     17  H   UNL     1      -3.957 -13.316 -14.203  0.00  0.00    +0.000 HD
ATOM     18  H   UNL     1      -5.591 -12.791 -14.294  0.00  0.00    +0.000 HD
ENDROOT
BRANCH   5  19
ATOM     19  C   UNL     1      -4.705 -18.048 -15.908  0.00  0.00    +0.000 A 
ATOM     20  N   UNL     1      -3.372 -18.137 -16.169  0.00  0.00    +0.000 NA
ATOM     21  C   UNL     1      -2.900 -19.349 -16.532  0.00  0.00    +0.000 A 
ATOM     22  C   UNL     1      -3.682 -20.485 -16.648  0.00  0.00    +0.000 A 
ATOM     23  C   UNL     1      -5.037 -20.365 -16.372  0.00  0.00    +0.000 A 
ATOM     24  C   UNL     1      -5.565 -19.136 -15.997  0.00  0.00    +0.000 A 
ENDBRANCH   5  19
BRANCH  14  25
ATOM     25  O   UNL     1     -10.696 -17.970 -16.553  0.00  0.00    +0.000 OA
ATOM     26  C   UNL     1     -10.378 -18.147 -17.910  0.00  0.00    +0.000 C 
ENDBRANCH  14  25
BRANCH  15  27
ATOM     27  O   UNL     1     -12.845 -16.117 -16.563  0.00  0.00    +0.000 OA
ATOM     28  C   UNL     1     -13.718 -15.890 -15.485  0.00  0.00    +0.000 C 
ENDBRANCH  15  27
TORSDOF 3
ENDMDL
MODEL 5
REMARK VINA RESULT:      -5.5     17.118     19.305
REMARK  Name = CP466722.pdbqt.pdb
REMARK  3 active torsions:
REMARK  status: ('A' for Active; 'I' for Inactive)
REMARK    1  A    between atoms: C_5  and  C_23
REMARK    2  A    between atoms: C_14  and  O_16
REMARK    3  A    between atoms: C_15  and  O_18
REMARK                            x       y       z     vdW  Elec       q    Type
REMARK                         _______ _______ _______ _____ _____    ______ ____
ROOT
ATOM      1  N   UNL     1      -2.377 -15.912  -2.004  0.00  0.00    +0.000 N 
ATOM      2  N   UNL     1      -1.147 -15.907  -2.568  0.00  0.00    +0.000 NA
ATOM      3  N   UNL     1      -2.417 -14.231  -3.440  0.00  0.00    +0.000 NA
ATOM      4  C   UNL     1      -3.129 -14.866  -2.545  0.00  0.00    +0.000 A 
ATOM      5  C   UNL     1      -1.206 -14.882  -3.431  0.00  0.00    +0.000 A 
ATOM      6  C   UNL     1      -2.792 -16.890  -1.039  0.00  0.00    +0.000 A 
ATOM      7  N   UNL     1      -4.096 -16.858  -0.656  0.00  0.00    +0.000 NA
ATOM      8  C   UNL     1      -4.486 -17.785   0.226  0.00  0.00    +0.000 A 
ATOM      9  N   UNL     1      -3.706 -18.736   0.749  0.00  0.00    +0.000 NA
ATOM     10  C   UNL     1      -2.428 -18.761   0.369  0.00  0.00    +0.000 A 
ATOM     11  C   UNL     1      -1.883 -17.842  -0.538  0.00  0.00    +0.000 A 
ATOM     12  C   UNL     1      -1.610 -19.750   0.899  0.00  0.00    +0.000 A 
ATOM     13  C   UNL     1      -0.505 -17.941  -0.846  0.00  0.00    +0.000 A 
ATOM     14  C   UNL     1       0.312 -18.913  -0.280  0.00  0.00    +0.000 A 
ATOM     15  C   UNL     1      -0.261 -19.861   0.559  0.00  0.00    +0.000 A 
ATOM     16  N   UNL     1      -4.392 -14.561  -2.189  0.00  0.00    +0.000 N 
ATOM     17  H   UNL     1      -4.927 -13.951  -2.798  0.00  0.00    +0.000 HD
ATOM     18  H   UNL     1      -4.940 -15.235  -1.657  0.00  0.00    +0.000 HD
ENDROOT
BRANCH   5  19
ATOM     19  C   UNL     1      -0.098 -14.477  -4.302  0.00  0.00    +0.000 A 
ATOM     20  N   UNL     1      -0.151 -13.242  -4.871  0.00  0.00    +0.000 NA
ATOM     21  C   UNL     1       0.881 -12.893  -5.670  0.00  0.00    +0.000 A 
ATOM     22  C   UNL     1       1.969 -13.705  -5.933  0.00  0.00    +0.000 A 
ATOM     23  C   UNL     1       1.998 -14.959  -5.336  0.00  0.00    +0.000 A 
ATOM     24  C   UNL     1       0.956 -15.359  -4.509  0.00  0.00    +0.000 A 
ENDBRANCH   5  19
BRANCH  14  25
ATOM     25  O   UNL     1       1.629 -18.950  -0.651  0.00  0.00    +0.000 OA
ATOM     26  C   UNL     1       1.819 -18.266  -1.864  0.00  0.00    +0.000 C 
ENDBRANCH  14  25
BRANCH  15  27
ATOM     27  O   UNL     1       0.496 -20.850   1.126  0.00  0.00    +0.000 OA
ATOM     28  C   UNL     1       0.696 -20.586   2.492  0.00  0.00    +0.000 C 
ENDBRANCH  15  27
TORSDOF 3
ENDMDL
MODEL 6
REMARK VINA RESULT:      -5.4     11.510     13.319
REMARK  Name = CP466722.pdbqt.pdb
REMARK  3 active torsions:
REMARK  status: ('A' for Active; 'I' for Inactive)
REMARK    1  A    between atoms: C_5  and  C_23
REMARK    2  A    between atoms: C_14  and  O_16
REMARK    3  A    between atoms: C_15  and  O_18
REMARK                            x       y       z     vdW  Elec       q    Type
REMARK                         _______ _______ _______ _____ _____    ______ ____
ROOT
ATOM      1  N   UNL     1       4.081 -31.883   1.558  0.00  0.00    +0.000 N 
ATOM      2  N   UNL     1       4.507 -30.764   0.926  0.00  0.00    +0.000 NA
ATOM      3  N   UNL     1       3.696 -32.259  -0.587  0.00  0.00    +0.000 NA
ATOM      4  C   UNL     1       3.576 -32.776   0.609  0.00  0.00    +0.000 A 
ATOM      5  C   UNL     1       4.262 -31.026  -0.366  0.00  0.00    +0.000 A 
ATOM      6  C   UNL     1       4.198 -32.074   2.975  0.00  0.00    +0.000 A 
ATOM      7  N   UNL     1       3.855 -33.298   3.459  0.00  0.00    +0.000 NA
ATOM      8  C   UNL     1       3.987 -33.481   4.777  0.00  0.00    +0.000 A 
ATOM      9  N   UNL     1       4.432 -32.570   5.647  0.00  0.00    +0.000 NA
ATOM     10  C   UNL     1       4.767 -31.371   5.166  0.00  0.00    +0.000 A 
ATOM     11  C   UNL     1       4.666 -31.039   3.809  0.00  0.00    +0.000 A 
ATOM     12  C   UNL     1       5.240 -30.420   6.059  0.00  0.00    +0.000 A 
ATOM     13  C   UNL     1       5.017 -29.727   3.411  0.00  0.00    +0.000 A 
ATOM     14  C   UNL     1       5.454 -28.770   4.321  0.00  0.00    +0.000 A 
ATOM     15  C   UNL     1       5.619 -29.139   5.650  0.00  0.00    +0.000 A 
ATOM     16  N   UNL     1       3.042 -33.980   0.892  0.00  0.00    +0.000 N 
ATOM     17  H   UNL     1       2.927 -34.643   0.133  0.00  0.00    +0.000 HD
ATOM     18  H   UNL     1       3.191 -34.391   1.813  0.00  0.00    +0.000 HD
ENDROOT
BRANCH   5  19
ATOM     19  C   UNL     1       4.567 -30.102  -1.463  0.00  0.00    +0.000 A 
ATOM     20  N   UNL     1       5.069 -30.622  -2.616  0.00  0.00    +0.000 NA
ATOM     21  C   UNL     1       5.342 -29.750  -3.612  0.00  0.00    +0.000 A 
ATOM     22  C   UNL     1       5.141 -28.384  -3.525  0.00  0.00    +0.000 A 
ATOM     23  C   UNL     1       4.625 -27.882  -2.337  0.00  0.00    +0.000 A 
ATOM     24  C   UNL     1       4.332 -28.743  -1.288  0.00  0.00    +0.000 A 
ENDBRANCH   5  19
BRANCH  14  25
ATOM     25  O   UNL     1       5.794 -27.532   3.848  0.00  0.00    +0.000 OA
ATOM     26  C   UNL     1       6.957 -27.607   3.062  0.00  0.00    +0.000 C 
ENDBRANCH  14  25
BRANCH  15  27
ATOM     27  O   UNL     1       6.065 -28.241   6.582  0.00  0.00    +0.000 OA
ATOM     28  C   UNL     1       7.410 -28.500   6.899  0.00  0.00    +0.000 C 
ENDBRANCH  15  27
TORSDOF 3
ENDMDL
MODEL 7
REMARK VINA RESULT:      -5.4      8.813     12.193
REMARK  Name = CP466722.pdbqt.pdb
REMARK  3 active torsions:
REMARK  status: ('A' for Active; 'I' for Inactive)
REMARK    1  A    between atoms: C_5  and  C_23
REMARK    2  A    between atoms: C_14  and  O_16
REMARK    3  A    between atoms: C_15  and  O_18
REMARK                            x       y       z     vdW  Elec       q    Type
REMARK                         _______ _______ _______ _____ _____    ______ ____
ROOT
ATOM      1  N   UNL     1      -4.973 -32.838   7.678  0.00  0.00    +0.000 N 
ATOM      2  N   UNL     1      -5.300 -31.620   8.170  0.00  0.00    +0.000 NA
ATOM      3  N   UNL     1      -3.466 -32.437   9.245  0.00  0.00    +0.000 NA
ATOM      4  C   UNL     1      -3.839 -33.308   8.343  0.00  0.00    +0.000 A 
ATOM      5  C   UNL     1      -4.372 -31.410   9.116  0.00  0.00    +0.000 A 
ATOM      6  C   UNL     1      -5.740 -33.502   6.662  0.00  0.00    +0.000 A 
ATOM      7  N   UNL     1      -5.378 -34.777   6.356  0.00  0.00    +0.000 NA
ATOM      8  C   UNL     1      -6.108 -35.401   5.426  0.00  0.00    +0.000 A 
ATOM      9  N   UNL     1      -7.158 -34.881   4.785  0.00  0.00    +0.000 NA
ATOM     10  C   UNL     1      -7.508 -33.630   5.089  0.00  0.00    +0.000 A 
ATOM     11  C   UNL     1      -6.824 -32.856   6.035  0.00  0.00    +0.000 A 
ATOM     12  C   UNL     1      -8.604 -33.083   4.436  0.00  0.00    +0.000 A 
ATOM     13  C   UNL     1      -7.260 -31.528   6.257  0.00  0.00    +0.000 A 
ATOM     14  C   UNL     1      -8.335 -30.977   5.569  0.00  0.00    +0.000 A 
ATOM     15  C   UNL     1      -9.048 -31.783   4.690  0.00  0.00    +0.000 A 
ATOM     16  N   UNL     1      -3.224 -34.479   8.084  0.00  0.00    +0.000 N 
ATOM     17  H   UNL     1      -2.566 -34.836   8.769  0.00  0.00    +0.000 HD
ATOM     18  H   UNL     1      -3.705 -35.187   7.530  0.00  0.00    +0.000 HD
ENDROOT
BRANCH   5  19
ATOM     19  C   UNL     1      -4.310 -30.208   9.953  0.00  0.00    +0.000 A 
ATOM     20  N   UNL     1      -3.182 -29.447   9.896  0.00  0.00    +0.000 NA
ATOM     21  C   UNL     1      -3.149 -28.345  10.677  0.00  0.00    +0.000 A 
ATOM     22  C   UNL     1      -4.179 -27.954  11.513  0.00  0.00    +0.000 A 
ATOM     23  C   UNL     1      -5.318 -28.748  11.548  0.00  0.00    +0.000 A 
ATOM     24  C   UNL     1      -5.394 -29.891  10.762  0.00  0.00    +0.000 A 
ENDBRANCH   5  19
BRANCH  14  25
ATOM     25  O   UNL     1      -8.704 -29.692   5.861  0.00  0.00    +0.000 OA
ATOM     26  C   UNL     1      -9.404 -29.646   7.079  0.00  0.00    +0.000 C 
ENDBRANCH  14  25
BRANCH  15  27
ATOM     27  O   UNL     1     -10.128 -31.296   4.004  0.00  0.00    +0.000 OA
ATOM     28  C   UNL     1     -10.033 -31.642   2.644  0.00  0.00    +0.000 C 
ENDBRANCH  15  27
TORSDOF 3
ENDMDL
MODEL 8
REMARK VINA RESULT:      -5.3     10.981     12.720
REMARK  Name = CP466722.pdbqt.pdb
REMARK  3 active torsions:
REMARK  status: ('A' for Active; 'I' for Inactive)
REMARK    1  A    between atoms: C_5  and  C_23
REMARK    2  A    between atoms: C_14  and  O_16
REMARK    3  A    between atoms: C_15  and  O_18
REMARK                            x       y       z     vdW  Elec       q    Type
REMARK                         _______ _______ _______ _____ _____    ______ ____
ROOT
ATOM      1  N   UNL     1       4.098 -31.286   1.294  0.00  0.00    +0.000 N 
ATOM      2  N   UNL     1       5.052 -30.644   2.008  0.00  0.00    +0.000 NA
ATOM      3  N   UNL     1       4.720 -29.592   0.016  0.00  0.00    +0.000 NA
ATOM      4  C   UNL     1       3.904 -30.612   0.086  0.00  0.00    +0.000 A 
ATOM      5  C   UNL     1       5.408 -29.628   1.207  0.00  0.00    +0.000 A 
ATOM      6  C   UNL     1       3.457 -32.487   1.748  0.00  0.00    +0.000 A 
ATOM      7  N   UNL     1       2.615 -33.101   0.874  0.00  0.00    +0.000 NA
ATOM      8  C   UNL     1       2.037 -34.232   1.290  0.00  0.00    +0.000 A 
ATOM      9  N   UNL     1       2.224 -34.807   2.482  0.00  0.00    +0.000 NA
ATOM     10  C   UNL     1       3.051 -34.200   3.336  0.00  0.00    +0.000 A 
ATOM     11  C   UNL     1       3.713 -33.002   3.034  0.00  0.00    +0.000 A 
ATOM     12  C   UNL     1       3.260 -34.793   4.573  0.00  0.00    +0.000 A 
ATOM     13  C   UNL     1       4.542 -32.427   4.027  0.00  0.00    +0.000 A 
ATOM     14  C   UNL     1       4.715 -33.010   5.277  0.00  0.00    +0.000 A 
ATOM     15  C   UNL     1       4.110 -34.235   5.531  0.00  0.00    +0.000 A 
ATOM     16  N   UNL     1       3.006 -30.962  -0.855  0.00  0.00    +0.000 N 
ATOM     17  H   UNL     1       3.105 -30.564  -1.783  0.00  0.00    +0.000 HD
ATOM     18  H   UNL     1       2.576 -31.886  -0.820  0.00  0.00    +0.000 HD
ENDROOT
BRANCH   5  19
ATOM     19  C   UNL     1       6.436 -28.639   1.543  0.00  0.00    +0.000 A 
ATOM     20  N   UNL     1       7.062 -27.996   0.519  0.00  0.00    +0.000 NA
ATOM     21  C   UNL     1       8.007 -27.090   0.854  0.00  0.00    +0.000 A 
ATOM     22  C   UNL     1       8.363 -26.784   2.155  0.00  0.00    +0.000 A 
ATOM     23  C   UNL     1       7.705 -27.453   3.179  0.00  0.00    +0.000 A 
ATOM     24  C   UNL     1       6.728 -28.394   2.879  0.00  0.00    +0.000 A 
ENDBRANCH   5  19
BRANCH  14  25
ATOM     25  O   UNL     1       5.552 -32.398   6.169  0.00  0.00    +0.000 OA
ATOM     26  C   UNL     1       4.921 -31.286   6.753  0.00  0.00    +0.000 C 
ENDBRANCH  14  25
BRANCH  15  27
ATOM     27  O   UNL     1       4.264 -34.861   6.738  0.00  0.00    +0.000 OA
ATOM     28  C   UNL     1       3.095 -34.726   7.507  0.00  0.00    +0.000 C 
ENDBRANCH  15  27
TORSDOF 3
ENDMDL
MODEL 9
REMARK VINA RESULT:      -5.3     21.298     23.374
REMARK  Name = CP466722.pdbqt.pdb
REMARK  3 active torsions:
REMARK  status: ('A' for Active; 'I' for Inactive)
REMARK    1  A    between atoms: C_5  and  C_23
REMARK    2  A    between atoms: C_14  and  O_16
REMARK    3  A    between atoms: C_15  and  O_18
REMARK                            x       y       z     vdW  Elec       q    Type
REMARK                         _______ _______ _______ _____ _____    ______ ____
ROOT
ATOM      1  N   UNL     1      -4.987 -17.813 -15.790  0.00  0.00    +0.000 N 
ATOM      2  N   UNL     1      -3.918 -17.170 -15.264  0.00  0.00    +0.000 NA
ATOM      3  N   UNL     1      -3.332 -19.275 -15.904  0.00  0.00    +0.000 NA
ATOM      4  C   UNL     1      -4.596 -19.094 -16.187  0.00  0.00    +0.000 A 
ATOM      5  C   UNL     1      -2.937 -18.081 -15.346  0.00  0.00    +0.000 A 
ATOM      6  C   UNL     1      -6.296 -17.228 -15.859  0.00  0.00    +0.000 A 
ATOM      7  N   UNL     1      -7.305 -18.033 -16.286  0.00  0.00    +0.000 NA
ATOM      8  C   UNL     1      -8.528 -17.493 -16.329  0.00  0.00    +0.000 A 
ATOM      9  N   UNL     1      -8.835 -16.240 -15.980  0.00  0.00    +0.000 NA
ATOM     10  C   UNL     1      -7.840 -15.455 -15.562  0.00  0.00    +0.000 A 
ATOM     11  C   UNL     1      -6.510 -15.888 -15.481  0.00  0.00    +0.000 A 
ATOM     12  C   UNL     1      -8.150 -14.155 -15.188  0.00  0.00    +0.000 A 
ATOM     13  C   UNL     1      -5.528 -14.962 -15.055  0.00  0.00    +0.000 A 
ATOM     14  C   UNL     1      -5.844 -13.650 -14.719  0.00  0.00    +0.000 A 
ATOM     15  C   UNL     1      -7.178 -13.260 -14.734  0.00  0.00    +0.000 A 
ATOM     16  N   UNL     1      -5.403 -19.997 -16.778  0.00  0.00    +0.000 N 
ATOM     17  H   UNL     1      -5.098 -20.964 -16.808  0.00  0.00    +0.000 HD
ATOM     18  H   UNL     1      -6.413 -19.858 -16.756  0.00  0.00    +0.000 HD
ENDROOT
BRANCH   5  19
ATOM     19  C   UNL     1      -1.565 -17.854 -14.884  0.00  0.00    +0.000 A 
ATOM     20  N   UNL     1      -0.583 -18.660 -15.376  0.00  0.00    +0.000 NA
ATOM     21  C   UNL     1       0.673 -18.431 -14.934  0.00  0.00    +0.000 A 
ATOM     22  C   UNL     1       1.010 -17.440 -14.030  0.00  0.00    +0.000 A 
ATOM     23  C   UNL     1      -0.011 -16.631 -13.548  0.00  0.00    +0.000 A 
ATOM     24  C   UNL     1      -1.318 -16.833 -13.974  0.00  0.00    +0.000 A 
ENDBRANCH   5  19
BRANCH  14  25
ATOM     25  O   UNL     1      -4.836 -12.827 -14.296  0.00  0.00    +0.000 OA
ATOM     26  C   UNL     1      -3.660 -13.075 -15.024  0.00  0.00    +0.000 C 
ENDBRANCH  14  25
BRANCH  15  27
ATOM     27  O   UNL     1      -7.544 -11.986 -14.392  0.00  0.00    +0.000 OA
ATOM     28  C   UNL     1      -8.946 -11.874 -14.373  0.00  0.00    +0.000 C 
ENDBRANCH  15  27
TORSDOF 3
ENDMDL
