REMARK  Name = CP466722.pdbqt.pdb
REMARK  3 active torsions:
REMARK  status: ('A' for Active; 'I' for Inactive)
REMARK    1  A    between atoms: C_5  and  C_23
REMARK    2  A    between atoms: C_14  and  O_16
REMARK    3  A    between atoms: C_15  and  O_18
REMARK                            x       y       z     vdW  Elec       q    Type
REMARK                         _______ _______ _______ _____ _____    ______ ____
ROOT
ATOM      1  N   UNL     1       0.544   1.513   0.386  0.00  0.00    +0.000 N 
ATOM      2  N   UNL     1       1.153   0.325   0.162  0.00  0.00    +0.000 NA
ATOM      3  N   UNL     1       2.708   1.955   0.493  0.00  0.00    +0.000 NA
ATOM      4  C   UNL     1       1.519   2.490   0.600  0.00  0.00    +0.000 A 
ATOM      5  C   UNL     1       2.458   0.628   0.231  0.00  0.00    +0.000 A 
ATOM      6  C   UNL     1      -0.881   1.680   0.353  0.00  0.00    +0.000 A 
ATOM      7  N   UNL     1      -1.352   2.951   0.461  0.00  0.00    +0.000 NA
ATOM      8  C   UNL     1      -2.679   3.107   0.407  0.00  0.00    +0.000 A 
ATOM      9  N   UNL     1      -3.570   2.124   0.248  0.00  0.00    +0.000 NA
ATOM     10  C   UNL     1      -3.102   0.879   0.143  0.00  0.00    +0.000 A 
ATOM     11  C   UNL     1      -1.736   0.571   0.196  0.00  0.00    +0.000 A 
ATOM     12  C   UNL     1      -4.018  -0.149  -0.032  0.00  0.00    +0.000 A 
ATOM     13  C   UNL     1      -1.351  -0.788   0.107  0.00  0.00    +0.000 A 
ATOM     14  C   UNL     1      -2.280  -1.813  -0.030  0.00  0.00    +0.000 A 
ATOM     15  C   UNL     1      -3.624  -1.483  -0.156  0.00  0.00    +0.000 A 
ATOM     16  N   UNL     1       1.265   3.783   0.881  0.00  0.00    +0.000 N 
ATOM     17  H   UNL     1       2.021   4.452   0.782  0.00  0.00    +0.000 HD
ATOM     18  H   UNL     1       0.329   4.156   0.725  0.00  0.00    +0.000 HD
ENDROOT
BRANCH   5  19
ATOM     19  C   UNL     1       3.538  -0.345   0.042  0.00  0.00    +0.000 A 
ATOM     20  N   UNL     1       3.197  -1.626  -0.268  0.00  0.00    +0.000 NA
ATOM     21  C   UNL     1       4.210  -2.504  -0.436  0.00  0.00    +0.000 A 
ATOM     22  C   UNL     1       5.549  -2.178  -0.315  0.00  0.00    +0.000 A 
ATOM     23  C   UNL     1       5.867  -0.863  -0.001  0.00  0.00    +0.000 A 
ATOM     24  C   UNL     1       4.856   0.072   0.182  0.00  0.00    +0.000 A 
ENDBRANCH   5  19
BRANCH  14  25
ATOM     25  O   UNL     1      -1.820  -3.098  -0.131  0.00  0.00    +0.000 OA
ATOM     26  C   UNL     1      -2.062  -3.802   1.061  0.00  0.00    +0.000 C 
ENDBRANCH  14  25
BRANCH  15  27
ATOM     27  O   UNL     1      -4.577  -2.453  -0.313  0.00  0.00    +0.000 OA
ATOM     28  C   UNL     1      -4.935  -2.566  -1.668  0.00  0.00    +0.000 C 
ENDBRANCH  15  27
TORSDOF 3
