MODEL 1
REMARK VINA RESULT:      -5.7      0.000      0.000
REMARK  Name = Curcumin.pdbqt.pdb
REMARK  8 active torsions:
REMARK  status: ('A' for Active; 'I' for Inactive)
REMARK    1  A    between atoms: C_2  and  C_4
REMARK    2  A    between atoms: C_5  and  C_6
REMARK    3  A    between atoms: C_8  and  O_12
REMARK    4  A    between atoms: C_9  and  O_14
REMARK    5  A    between atoms: C_16  and  C_18
REMARK    6  A    between atoms: C_19  and  C_20
REMARK    7  A    between atoms: C_22  and  O_26
REMARK    8  A    between atoms: C_23  and  O_28
REMARK                            x       y       z     vdW  Elec       q    Type
REMARK                         _______ _______ _______ _____ _____    ______ ____
ROOT
ATOM      1  C   UNL     1       4.884 -30.197  -4.734  0.00  0.00    +0.000 C 
ATOM      2  C   UNL     1       5.106 -30.952  -5.922  0.00  0.00    +0.000 C 
ATOM      3  O   UNL     1       5.404 -32.135  -5.841  0.00  0.00    +0.000 OA
ATOM      4  C   UNL     1       4.667 -29.442  -3.545  0.00  0.00    +0.000 C 
ATOM      5  O   UNL     1       4.679 -28.221  -3.591  0.00  0.00    +0.000 OA
ENDROOT
BRANCH   2   6
ATOM      6  C   UNL     1       4.974 -30.319  -7.209  0.00  0.00    +0.000 C 
ATOM      7  C   UNL     1       4.862 -29.790  -8.282  0.00  0.00    +0.000 C 
BRANCH   7   8
ATOM      8  C   UNL     1       4.731 -29.160  -9.556  0.00  0.00    +0.000 A 
ATOM      9  C   UNL     1       3.477 -29.054 -10.153  0.00  0.00    +0.000 A 
ATOM     10  C   UNL     1       3.330 -28.440 -11.400  0.00  0.00    +0.000 A 
ATOM     11  C   UNL     1       4.467 -27.934 -12.038  0.00  0.00    +0.000 A 
ATOM     12  C   UNL     1       5.723 -28.039 -11.442  0.00  0.00    +0.000 A 
ATOM     13  C   UNL     1       5.855 -28.653 -10.200  0.00  0.00    +0.000 A 
BRANCH  10  14
ATOM     14  O   UNL     1       2.128 -28.299 -12.048  0.00  0.00    +0.000 OA
ATOM     15  C   UNL     1       1.662 -29.426 -12.734  0.00  0.00    +0.000 C 
ENDBRANCH  10  14
BRANCH  11  16
ATOM     16  O   UNL     1       4.423 -27.318 -13.258  0.00  0.00    +0.000 OA
ATOM     17  H   UNL     1       3.866 -27.820 -13.876  0.00  0.00    +0.000 HD
ENDBRANCH  11  16
ENDBRANCH   7   8
ENDBRANCH   2   6
BRANCH   4  18
ATOM     18  C   UNL     1       4.434 -30.124  -2.297  0.00  0.00    +0.000 C 
ATOM     19  C   UNL     1       4.244 -30.693  -1.255  0.00  0.00    +0.000 C 
BRANCH  19  20
ATOM     20  C   UNL     1       4.023 -31.367  -0.020  0.00  0.00    +0.000 A 
ATOM     21  C   UNL     1       4.042 -32.761   0.023  0.00  0.00    +0.000 A 
ATOM     22  C   UNL     1       3.827 -33.438   1.227  0.00  0.00    +0.000 A 
ATOM     23  C   UNL     1       3.594 -32.690   2.385  0.00  0.00    +0.000 A 
ATOM     24  C   UNL     1       3.573 -31.297   2.347  0.00  0.00    +0.000 A 
ATOM     25  C   UNL     1       3.789 -30.635   1.142  0.00  0.00    +0.000 A 
BRANCH  22  26
ATOM     26  O   UNL     1       3.829 -34.805   1.358  0.00  0.00    +0.000 OA
ATOM     27  C   UNL     1       5.092 -35.417   1.299  0.00  0.00    +0.000 C 
ENDBRANCH  22  26
BRANCH  23  28
ATOM     28  O   UNL     1       3.381 -33.334   3.573  0.00  0.00    +0.000 OA
ATOM     29  H   UNL     1       3.286 -32.667   4.277  0.00  0.00    +0.000 HD
ENDBRANCH  23  28
ENDBRANCH  19  20
ENDBRANCH   4  18
TORSDOF 8
ENDMDL
MODEL 2
REMARK VINA RESULT:      -5.7      0.078     11.756
REMARK  Name = Curcumin.pdbqt.pdb
REMARK  8 active torsions:
REMARK  status: ('A' for Active; 'I' for Inactive)
REMARK    1  A    between atoms: C_2  and  C_4
REMARK    2  A    between atoms: C_5  and  C_6
REMARK    3  A    between atoms: C_8  and  O_12
REMARK    4  A    between atoms: C_9  and  O_14
REMARK    5  A    between atoms: C_16  and  C_18
REMARK    6  A    between atoms: C_19  and  C_20
REMARK    7  A    between atoms: C_22  and  O_26
REMARK    8  A    between atoms: C_23  and  O_28
REMARK                            x       y       z     vdW  Elec       q    Type
REMARK                         _______ _______ _______ _____ _____    ______ ____
ROOT
ATOM      1  C   UNL     1       4.895 -30.208  -4.688  0.00  0.00    +0.000 C 
ATOM      2  C   UNL     1       4.659 -29.466  -3.494  0.00  0.00    +0.000 C 
ATOM      3  O   UNL     1       4.644 -28.245  -3.534  0.00  0.00    +0.000 OA
ATOM      4  C   UNL     1       5.135 -30.949  -5.881  0.00  0.00    +0.000 C 
ATOM      5  O   UNL     1       5.460 -32.125  -5.810  0.00  0.00    +0.000 OA
ENDROOT
BRANCH   2   6
ATOM      6  C   UNL     1       4.436 -30.160  -2.251  0.00  0.00    +0.000 C 
ATOM      7  C   UNL     1       4.253 -30.737  -1.213  0.00  0.00    +0.000 C 
BRANCH   7   8
ATOM      8  C   UNL     1       4.032 -31.421   0.019  0.00  0.00    +0.000 A 
ATOM      9  C   UNL     1       4.066 -32.814   0.056  0.00  0.00    +0.000 A 
ATOM     10  C   UNL     1       3.853 -33.501   1.255  0.00  0.00    +0.000 A 
ATOM     11  C   UNL     1       3.604 -32.764   2.416  0.00  0.00    +0.000 A 
ATOM     12  C   UNL     1       3.569 -31.370   2.382  0.00  0.00    +0.000 A 
ATOM     13  C   UNL     1       3.784 -30.698   1.182  0.00  0.00    +0.000 A 
BRANCH  10  14
ATOM     14  O   UNL     1       3.872 -34.869   1.368  0.00  0.00    +0.000 OA
ATOM     15  C   UNL     1       5.134 -35.472   1.332  0.00  0.00    +0.000 C 
ENDBRANCH  10  14
BRANCH  11  16
ATOM     16  O   UNL     1       3.384 -33.347   3.633  0.00  0.00    +0.000 OA
ATOM     17  H   UNL     1       3.704 -32.775   4.351  0.00  0.00    +0.000 HD
ENDBRANCH  11  16
ENDBRANCH   7   8
ENDBRANCH   2   6
BRANCH   4  18
ATOM     18  C   UNL     1       4.993 -30.306  -7.163  0.00  0.00    +0.000 C 
ATOM     19  C   UNL     1       4.878 -29.771  -8.233  0.00  0.00    +0.000 C 
BRANCH  19  20
ATOM     20  C   UNL     1       4.746 -29.138  -9.503  0.00  0.00    +0.000 A 
ATOM     21  C   UNL     1       3.501 -29.088 -10.127  0.00  0.00    +0.000 A 
ATOM     22  C   UNL     1       3.354 -28.471 -11.373  0.00  0.00    +0.000 A 
ATOM     23  C   UNL     1       4.480 -27.904 -11.978  0.00  0.00    +0.000 A 
ATOM     24  C   UNL     1       5.727 -27.951 -11.358  0.00  0.00    +0.000 A 
ATOM     25  C   UNL     1       5.860 -28.570 -10.118  0.00  0.00    +0.000 A 
BRANCH  22  26
ATOM     26  O   UNL     1       2.166 -28.377 -12.056  0.00  0.00    +0.000 OA
ATOM     27  C   UNL     1       1.721 -29.564 -12.660  0.00  0.00    +0.000 C 
ENDBRANCH  22  26
BRANCH  23  28
ATOM     28  O   UNL     1       4.357 -27.296 -13.197  0.00  0.00    +0.000 OA
ATOM     29  H   UNL     1       3.515 -26.805 -13.217  0.00  0.00    +0.000 HD
ENDBRANCH  23  28
ENDBRANCH  19  20
ENDBRANCH   4  18
TORSDOF 8
ENDMDL
MODEL 3
REMARK VINA RESULT:      -5.3      9.935     10.426
REMARK  Name = Curcumin.pdbqt.pdb
REMARK  8 active torsions:
REMARK  status: ('A' for Active; 'I' for Inactive)
REMARK    1  A    between atoms: C_2  and  C_4
REMARK    2  A    between atoms: C_5  and  C_6
REMARK    3  A    between atoms: C_8  and  O_12
REMARK    4  A    between atoms: C_9  and  O_14
REMARK    5  A    between atoms: C_16  and  C_18
REMARK    6  A    between atoms: C_19  and  C_20
REMARK    7  A    between atoms: C_22  and  O_26
REMARK    8  A    between atoms: C_23  and  O_28
REMARK                            x       y       z     vdW  Elec       q    Type
REMARK                         _______ _______ _______ _____ _____    ______ ____
ROOT
ATOM      1  C   UNL     1      -3.592 -34.803  -6.084  0.00  0.00    +0.000 C 
ATOM      2  C   UNL     1      -3.669 -35.340  -7.402  0.00  0.00    +0.000 C 
ATOM      3  O   UNL     1      -4.701 -35.876  -7.777  0.00  0.00    +0.000 OA
ATOM      4  C   UNL     1      -3.514 -34.270  -4.765  0.00  0.00    +0.000 C 
ATOM      5  O   UNL     1      -2.423 -34.021  -4.274  0.00  0.00    +0.000 OA
ENDROOT
BRANCH   2   6
ATOM      6  C   UNL     1      -2.532 -35.246  -8.282  0.00  0.00    +0.000 C 
ATOM      7  C   UNL     1      -1.583 -35.167  -9.014  0.00  0.00    +0.000 C 
BRANCH   7   8
ATOM      8  C   UNL     1      -0.457 -35.076  -9.885  0.00  0.00    +0.000 A 
ATOM      9  C   UNL     1      -0.347 -34.004 -10.769  0.00  0.00    +0.000 A 
ATOM     10  C   UNL     1       0.751 -33.898 -11.629  0.00  0.00    +0.000 A 
ATOM     11  C   UNL     1       1.735 -34.890 -11.587  0.00  0.00    +0.000 A 
ATOM     12  C   UNL     1       1.627 -35.964 -10.704  0.00  0.00    +0.000 A 
ATOM     13  C   UNL     1       0.529 -36.057  -9.852  0.00  0.00    +0.000 A 
BRANCH  10  14
ATOM     14  O   UNL     1       0.927 -32.872 -12.523  0.00  0.00    +0.000 OA
ATOM     15  C   UNL     1       0.238 -31.687 -12.244  0.00  0.00    +0.000 C 
ENDBRANCH  10  14
BRANCH  11  16
ATOM     16  O   UNL     1       2.843 -34.873 -12.388  0.00  0.00    +0.000 OA
ATOM     17  H   UNL     1       2.600 -34.658 -13.305  0.00  0.00    +0.000 HD
ENDBRANCH  11  16
ENDBRANCH   7   8
ENDBRANCH   2   6
BRANCH   4  18
ATOM     18  C   UNL     1      -4.723 -34.027  -4.019  0.00  0.00    +0.000 C 
ATOM     19  C   UNL     1      -5.729 -33.826  -3.393  0.00  0.00    +0.000 C 
BRANCH  19  20
ATOM     20  C   UNL     1      -6.921 -33.589  -2.648  0.00  0.00    +0.000 A 
ATOM     21  C   UNL     1      -8.107 -34.224  -3.016  0.00  0.00    +0.000 A 
ATOM     22  C   UNL     1      -9.284 -34.002  -2.296  0.00  0.00    +0.000 A 
ATOM     23  C   UNL     1      -9.248 -33.134  -1.201  0.00  0.00    +0.000 A 
ATOM     24  C   UNL     1      -8.065 -32.497  -0.829  0.00  0.00    +0.000 A 
ATOM     25  C   UNL     1      -6.900 -32.726  -1.555  0.00  0.00    +0.000 A 
BRANCH  22  26
ATOM     26  O   UNL     1     -10.493 -34.585  -2.589  0.00  0.00    +0.000 OA
ATOM     27  C   UNL     1     -10.662 -34.990  -3.923  0.00  0.00    +0.000 C 
ENDBRANCH  22  26
BRANCH  23  28
ATOM     28  O   UNL     1     -10.390 -32.904  -0.484  0.00  0.00    +0.000 OA
ATOM     29  H   UNL     1     -10.702 -33.750  -0.114  0.00  0.00    +0.000 HD
ENDBRANCH  23  28
ENDBRANCH  19  20
ENDBRANCH   4  18
TORSDOF 8
ENDMDL
MODEL 4
REMARK VINA RESULT:      -4.9      3.074      4.955
REMARK  Name = Curcumin.pdbqt.pdb
REMARK  8 active torsions:
REMARK  status: ('A' for Active; 'I' for Inactive)
REMARK    1  A    between atoms: C_2  and  C_4
REMARK    2  A    between atoms: C_5  and  C_6
REMARK    3  A    between atoms: C_8  and  O_12
REMARK    4  A    between atoms: C_9  and  O_14
REMARK    5  A    between atoms: C_16  and  C_18
REMARK    6  A    between atoms: C_19  and  C_20
REMARK    7  A    between atoms: C_22  and  O_26
REMARK    8  A    between atoms: C_23  and  O_28
REMARK                            x       y       z     vdW  Elec       q    Type
REMARK                         _______ _______ _______ _____ _____    ______ ____
ROOT
ATOM      1  C   UNL     1       4.322 -30.263  -1.695  0.00  0.00    +0.000 C 
ATOM      2  C   UNL     1       4.461 -29.381  -2.806  0.00  0.00    +0.000 C 
ATOM      3  O   UNL     1       4.527 -28.176  -2.618  0.00  0.00    +0.000 OA
ATOM      4  C   UNL     1       4.180 -31.143  -0.584  0.00  0.00    +0.000 C 
ATOM      5  O   UNL     1       3.804 -32.292  -0.764  0.00  0.00    +0.000 OA
ENDROOT
BRANCH   2   6
ATOM      6  C   UNL     1       4.526 -29.917  -4.143  0.00  0.00    +0.000 C 
ATOM      7  C   UNL     1       4.581 -30.362  -5.257  0.00  0.00    +0.000 C 
BRANCH   7   8
ATOM      8  C   UNL     1       4.648 -30.893  -6.579  0.00  0.00    +0.000 A 
ATOM      9  C   UNL     1       5.726 -31.692  -6.954  0.00  0.00    +0.000 A 
ATOM     10  C   UNL     1       5.807 -32.221  -8.246  0.00  0.00    +0.000 A 
ATOM     11  C   UNL     1       4.785 -31.932  -9.155  0.00  0.00    +0.000 A 
ATOM     12  C   UNL     1       3.705 -31.132  -8.783  0.00  0.00    +0.000 A 
ATOM     13  C   UNL     1       3.636 -30.612  -7.493  0.00  0.00    +0.000 A 
BRANCH  10  14
ATOM     14  O   UNL     1       6.836 -33.016  -8.685  0.00  0.00    +0.000 OA
ATOM     15  C   UNL     1       6.801 -34.352  -8.273  0.00  0.00    +0.000 C 
ENDBRANCH  10  14
BRANCH  11  16
ATOM     16  O   UNL     1       4.777 -32.403 -10.439  0.00  0.00    +0.000 OA
ATOM     17  H   UNL     1       5.595 -32.155 -10.901  0.00  0.00    +0.000 HD
ENDBRANCH  11  16
ENDBRANCH   7   8
ENDBRANCH   2   6
BRANCH   4  18
ATOM     18  C   UNL     1       4.479 -30.672   0.745  0.00  0.00    +0.000 C 
ATOM     19  C   UNL     1       4.727 -30.283   1.855  0.00  0.00    +0.000 C 
BRANCH  19  20
ATOM     20  C   UNL     1       5.020 -29.824   3.172  0.00  0.00    +0.000 A 
ATOM     21  C   UNL     1       4.779 -30.655   4.265  0.00  0.00    +0.000 A 
ATOM     22  C   UNL     1       5.060 -30.221   5.564  0.00  0.00    +0.000 A 
ATOM     23  C   UNL     1       5.588 -28.940   5.743  0.00  0.00    +0.000 A 
ATOM     24  C   UNL     1       5.831 -28.105   4.653  0.00  0.00    +0.000 A 
ATOM     25  C   UNL     1       5.546 -28.549   3.366  0.00  0.00    +0.000 A 
BRANCH  22  26
ATOM     26  O   UNL     1       4.854 -30.974   6.694  0.00  0.00    +0.000 OA
ATOM     27  C   UNL     1       4.527 -32.321   6.472  0.00  0.00    +0.000 C 
ENDBRANCH  22  26
BRANCH  23  28
ATOM     28  O   UNL     1       5.870 -28.496   7.006  0.00  0.00    +0.000 OA
ATOM     29  H   UNL     1       6.293 -27.621   6.942  0.00  0.00    +0.000 HD
ENDBRANCH  23  28
ENDBRANCH  19  20
ENDBRANCH   4  18
TORSDOF 8
ENDMDL
MODEL 5
REMARK VINA RESULT:      -4.8     20.467     22.594
REMARK  Name = Curcumin.pdbqt.pdb
REMARK  8 active torsions:
REMARK  status: ('A' for Active; 'I' for Inactive)
REMARK    1  A    between atoms: C_2  and  C_4
REMARK    2  A    between atoms: C_5  and  C_6
REMARK    3  A    between atoms: C_8  and  O_12
REMARK    4  A    between atoms: C_9  and  O_14
REMARK    5  A    between atoms: C_16  and  C_18
REMARK    6  A    between atoms: C_19  and  C_20
REMARK    7  A    between atoms: C_22  and  O_26
REMARK    8  A    between atoms: C_23  and  O_28
REMARK                            x       y       z     vdW  Elec       q    Type
REMARK                         _______ _______ _______ _____ _____    ______ ____
ROOT
ATOM      1  C   UNL     1      -4.641 -12.158 -13.264  0.00  0.00    +0.000 C 
ATOM      2  C   UNL     1      -4.494 -13.025 -14.384  0.00  0.00    +0.000 C 
ATOM      3  O   UNL     1      -3.438 -13.046 -14.999  0.00  0.00    +0.000 OA
ATOM      4  C   UNL     1      -4.788 -11.287 -12.145  0.00  0.00    +0.000 C 
ATOM      5  O   UNL     1      -5.906 -11.024 -11.723  0.00  0.00    +0.000 OA
ENDROOT
BRANCH   2   6
ATOM      6  C   UNL     1      -5.588 -13.873 -14.784  0.00  0.00    +0.000 C 
ATOM      7  C   UNL     1      -6.502 -14.579 -15.115  0.00  0.00    +0.000 C 
BRANCH   7   8
ATOM      8  C   UNL     1      -7.587 -15.416 -15.510  0.00  0.00    +0.000 A 
ATOM      9  C   UNL     1      -8.855 -14.869 -15.699  0.00  0.00    +0.000 A 
ATOM     10  C   UNL     1      -9.930 -15.674 -16.087  0.00  0.00    +0.000 A 
ATOM     11  C   UNL     1      -9.708 -17.041 -16.282  0.00  0.00    +0.000 A 
ATOM     12  C   UNL     1      -8.441 -17.592 -16.094  0.00  0.00    +0.000 A 
ATOM     13  C   UNL     1      -7.379 -16.778 -15.707  0.00  0.00    +0.000 A 
BRANCH  10  14
ATOM     14  O   UNL     1     -11.203 -15.206 -16.292  0.00  0.00    +0.000 OA
ATOM     15  C   UNL     1     -11.741 -14.416 -15.270  0.00  0.00    +0.000 C 
ENDBRANCH  10  14
BRANCH  11  16
ATOM     16  O   UNL     1     -10.696 -17.907 -16.660  0.00  0.00    +0.000 OA
ATOM     17  H   UNL     1     -11.481 -17.802 -16.096  0.00  0.00    +0.000 HD
ENDBRANCH  11  16
ENDBRANCH   7   8
ENDBRANCH   2   6
BRANCH   4  18
ATOM     18  C   UNL     1      -3.620 -10.722 -11.520  0.00  0.00    +0.000 C 
ATOM     19  C   UNL     1      -2.643 -10.255 -10.997  0.00  0.00    +0.000 C 
BRANCH  19  20
ATOM     20  C   UNL     1      -1.484  -9.704 -10.377  0.00  0.00    +0.000 A 
ATOM     21  C   UNL     1      -1.104 -10.138  -9.108  0.00  0.00    +0.000 A 
ATOM     22  C   UNL     1       0.030  -9.609  -8.485  0.00  0.00    +0.000 A 
ATOM     23  C   UNL     1       0.774  -8.638  -9.161  0.00  0.00    +0.000 A 
ATOM     24  C   UNL     1       0.398  -8.200 -10.430  0.00  0.00    +0.000 A 
ATOM     25  C   UNL     1      -0.733  -8.736 -11.038  0.00  0.00    +0.000 A 
BRANCH  22  26
ATOM     26  O   UNL     1       0.473  -9.979  -7.239  0.00  0.00    +0.000 OA
ATOM     27  C   UNL     1       1.044 -11.259  -7.155  0.00  0.00    +0.000 C 
ENDBRANCH  22  26
BRANCH  23  28
ATOM     28  O   UNL     1       1.887  -8.107  -8.569  0.00  0.00    +0.000 OA
ATOM     29  H   UNL     1       1.690  -7.937  -7.630  0.00  0.00    +0.000 HD
ENDBRANCH  23  28
ENDBRANCH  19  20
ENDBRANCH   4  18
TORSDOF 8
ENDMDL
MODEL 6
REMARK VINA RESULT:      -4.8      8.753     15.013
REMARK  Name = Curcumin.pdbqt.pdb
REMARK  8 active torsions:
REMARK  status: ('A' for Active; 'I' for Inactive)
REMARK    1  A    between atoms: C_2  and  C_4
REMARK    2  A    between atoms: C_5  and  C_6
REMARK    3  A    between atoms: C_8  and  O_12
REMARK    4  A    between atoms: C_9  and  O_14
REMARK    5  A    between atoms: C_16  and  C_18
REMARK    6  A    between atoms: C_19  and  C_20
REMARK    7  A    between atoms: C_22  and  O_26
REMARK    8  A    between atoms: C_23  and  O_28
REMARK                            x       y       z     vdW  Elec       q    Type
REMARK                         _______ _______ _______ _____ _____    ______ ____
ROOT
ATOM      1  C   UNL     1      -3.542 -36.292  -3.703  0.00  0.00    +0.000 C 
ATOM      2  C   UNL     1      -2.729 -37.051  -2.812  0.00  0.00    +0.000 C 
ATOM      3  O   UNL     1      -1.654 -37.487  -3.197  0.00  0.00    +0.000 OA
ATOM      4  C   UNL     1      -4.356 -35.537  -4.596  0.00  0.00    +0.000 C 
ATOM      5  O   UNL     1      -5.540 -35.365  -4.340  0.00  0.00    +0.000 OA
ENDROOT
BRANCH   2   6
ATOM      6  C   UNL     1      -3.176 -37.295  -1.464  0.00  0.00    +0.000 C 
ATOM      7  C   UNL     1      -3.548 -37.497  -0.340  0.00  0.00    +0.000 C 
BRANCH   7   8
ATOM      8  C   UNL     1      -3.990 -37.737   0.995  0.00  0.00    +0.000 A 
ATOM      9  C   UNL     1      -4.612 -38.942   1.315  0.00  0.00    +0.000 A 
ATOM     10  C   UNL     1      -5.052 -39.194   2.619  0.00  0.00    +0.000 A 
ATOM     11  C   UNL     1      -4.857 -38.212   3.595  0.00  0.00    +0.000 A 
ATOM     12  C   UNL     1      -4.235 -37.005   3.277  0.00  0.00    +0.000 A 
ATOM     13  C   UNL     1      -3.802 -36.767   1.975  0.00  0.00    +0.000 A 
BRANCH  10  14
ATOM     14  O   UNL     1      -5.669 -40.356   3.008  0.00  0.00    +0.000 OA
ATOM     15  C   UNL     1      -4.826 -41.395   3.417  0.00  0.00    +0.000 C 
ENDBRANCH  10  14
BRANCH  11  16
ATOM     16  O   UNL     1      -5.253 -38.367   4.894  0.00  0.00    +0.000 OA
ATOM     17  H   UNL     1      -6.153 -38.731   4.938  0.00  0.00    +0.000 HD
ENDBRANCH  11  16
ENDBRANCH   7   8
ENDBRANCH   2   6
BRANCH   4  18
ATOM     18  C   UNL     1      -3.779 -34.981  -5.793  0.00  0.00    +0.000 C 
ATOM     19  C   UNL     1      -3.296 -34.513  -6.789  0.00  0.00    +0.000 C 
BRANCH  19  20
ATOM     20  C   UNL     1      -2.722 -33.956  -7.969  0.00  0.00    +0.000 A 
ATOM     21  C   UNL     1      -1.975 -34.764  -8.825  0.00  0.00    +0.000 A 
ATOM     22  C   UNL     1      -1.405 -34.234  -9.986  0.00  0.00    +0.000 A 
ATOM     23  C   UNL     1      -1.599 -32.879 -10.270  0.00  0.00    +0.000 A 
ATOM     24  C   UNL     1      -2.345 -32.067  -9.417  0.00  0.00    +0.000 A 
ATOM     25  C   UNL     1      -2.907 -32.608  -8.265  0.00  0.00    +0.000 A 
BRANCH  22  26
ATOM     26  O   UNL     1      -0.656 -34.958 -10.882  0.00  0.00    +0.000 OA
ATOM     27  C   UNL     1       0.524 -35.519 -10.371  0.00  0.00    +0.000 C 
ENDBRANCH  22  26
BRANCH  23  28
ATOM     28  O   UNL     1      -1.049 -32.341 -11.401  0.00  0.00    +0.000 OA
ATOM     29  H   UNL     1      -1.411 -32.807 -12.177  0.00  0.00    +0.000 HD
ENDBRANCH  23  28
ENDBRANCH  19  20
ENDBRANCH   4  18
TORSDOF 8
ENDMDL
MODEL 7
REMARK VINA RESULT:      -4.8      4.788     13.879
REMARK  Name = Curcumin.pdbqt.pdb
REMARK  8 active torsions:
REMARK  status: ('A' for Active; 'I' for Inactive)
REMARK    1  A    between atoms: C_2  and  C_4
REMARK    2  A    between atoms: C_5  and  C_6
REMARK    3  A    between atoms: C_8  and  O_12
REMARK    4  A    between atoms: C_9  and  O_14
REMARK    5  A    between atoms: C_16  and  C_18
REMARK    6  A    between atoms: C_19  and  C_20
REMARK    7  A    between atoms: C_22  and  O_26
REMARK    8  A    between atoms: C_23  and  O_28
REMARK                            x       y       z     vdW  Elec       q    Type
REMARK                         _______ _______ _______ _____ _____    ______ ____
ROOT
ATOM      1  C   UNL     1       3.593 -31.791   2.339  0.00  0.00    +0.000 C 
ATOM      2  C   UNL     1       3.738 -33.168   2.679  0.00  0.00    +0.000 C 
ATOM      3  O   UNL     1       3.967 -33.987   1.801  0.00  0.00    +0.000 OA
ATOM      4  C   UNL     1       3.445 -30.416   1.997  0.00  0.00    +0.000 C 
ATOM      5  O   UNL     1       2.917 -29.647   2.788  0.00  0.00    +0.000 OA
ENDROOT
BRANCH   2   6
ATOM      6  C   UNL     1       3.616 -33.583   4.053  0.00  0.00    +0.000 C 
ATOM      7  C   UNL     1       3.517 -33.929   5.199  0.00  0.00    +0.000 C 
BRANCH   7   8
ATOM      8  C   UNL     1       3.397 -34.338   6.561  0.00  0.00    +0.000 A 
ATOM      9  C   UNL     1       3.176 -35.680   6.866  0.00  0.00    +0.000 A 
ATOM     10  C   UNL     1       3.056 -36.099   8.195  0.00  0.00    +0.000 A 
ATOM     11  C   UNL     1       3.163 -35.145   9.212  0.00  0.00    +0.000 A 
ATOM     12  C   UNL     1       3.384 -33.802   8.909  0.00  0.00    +0.000 A 
ATOM     13  C   UNL     1       3.502 -33.399   7.582  0.00  0.00    +0.000 A 
BRANCH  10  14
ATOM     14  O   UNL     1       2.839 -37.400   8.571  0.00  0.00    +0.000 OA
ATOM     15  C   UNL     1       2.790 -38.341   7.536  0.00  0.00    +0.000 C 
ENDBRANCH  10  14
BRANCH  11  16
ATOM     16  O   UNL     1       3.059 -35.459  10.538  0.00  0.00    +0.000 OA
ATOM     17  H   UNL     1       3.562 -34.828  11.081  0.00  0.00    +0.000 HD
ENDBRANCH  11  16
ENDBRANCH   7   8
ENDBRANCH   2   6
BRANCH   4  18
ATOM     18  C   UNL     1       3.917 -29.941   0.722  0.00  0.00    +0.000 C 
ATOM     19  C   UNL     1       4.316 -29.545  -0.341  0.00  0.00    +0.000 C 
BRANCH  19  20
ATOM     20  C   UNL     1       4.792 -29.075  -1.599  0.00  0.00    +0.000 A 
ATOM     21  C   UNL     1       4.609 -27.740  -1.957  0.00  0.00    +0.000 A 
ATOM     22  C   UNL     1       5.070 -27.264  -3.187  0.00  0.00    +0.000 A 
ATOM     23  C   UNL     1       5.718 -28.152  -4.050  0.00  0.00    +0.000 A 
ATOM     24  C   UNL     1       5.904 -29.488  -3.698  0.00  0.00    +0.000 A 
ATOM     25  C   UNL     1       5.440 -29.949  -2.470  0.00  0.00    +0.000 A 
BRANCH  22  26
ATOM     26  O   UNL     1       4.931 -25.966  -3.617  0.00  0.00    +0.000 OA
ATOM     27  C   UNL     1       4.631 -25.027  -2.618  0.00  0.00    +0.000 C 
ENDBRANCH  22  26
BRANCH  23  28
ATOM     28  O   UNL     1       6.177 -27.705  -5.259  0.00  0.00    +0.000 OA
ATOM     29  H   UNL     1       6.896 -27.066  -5.103  0.00  0.00    +0.000 HD
ENDBRANCH  23  28
ENDBRANCH  19  20
ENDBRANCH   4  18
TORSDOF 8
ENDMDL
MODEL 8
REMARK VINA RESULT:      -4.8     16.929     18.141
REMARK  Name = Curcumin.pdbqt.pdb
REMARK  8 active torsions:
REMARK  status: ('A' for Active; 'I' for Inactive)
REMARK    1  A    between atoms: C_2  and  C_4
REMARK    2  A    between atoms: C_5  and  C_6
REMARK    3  A    between atoms: C_8  and  O_12
REMARK    4  A    between atoms: C_9  and  O_14
REMARK    5  A    between atoms: C_16  and  C_18
REMARK    6  A    between atoms: C_19  and  C_20
REMARK    7  A    between atoms: C_22  and  O_26
REMARK    8  A    between atoms: C_23  and  O_28
REMARK                            x       y       z     vdW  Elec       q    Type
REMARK                         _______ _______ _______ _____ _____    ______ ____
ROOT
ATOM      1  C   UNL     1     -11.324 -35.126  -4.610  0.00  0.00    +0.000 C 
ATOM      2  C   UNL     1     -10.422 -34.889  -3.533  0.00  0.00    +0.000 C 
ATOM      3  O   UNL     1     -10.838 -34.887  -2.384  0.00  0.00    +0.000 OA
ATOM      4  C   UNL     1     -12.228 -35.358  -5.687  0.00  0.00    +0.000 C 
ATOM      5  O   UNL     1     -11.903 -35.060  -6.827  0.00  0.00    +0.000 OA
ENDROOT
BRANCH   2   6
ATOM      6  C   UNL     1      -9.026 -34.658  -3.804  0.00  0.00    +0.000 C 
ATOM      7  C   UNL     1      -7.862 -34.467  -4.031  0.00  0.00    +0.000 C 
BRANCH   7   8
ATOM      8  C   UNL     1      -6.480 -34.239  -4.301  0.00  0.00    +0.000 A 
ATOM      9  C   UNL     1      -6.106 -33.342  -5.300  0.00  0.00    +0.000 A 
ATOM     10  C   UNL     1      -4.756 -33.105  -5.579  0.00  0.00    +0.000 A 
ATOM     11  C   UNL     1      -3.788 -33.788  -4.836  0.00  0.00    +0.000 A 
ATOM     12  C   UNL     1      -4.159 -34.686  -3.836  0.00  0.00    +0.000 A 
ATOM     13  C   UNL     1      -5.506 -34.912  -3.569  0.00  0.00    +0.000 A 
BRANCH  10  14
ATOM     14  O   UNL     1      -4.314 -32.237  -6.544  0.00  0.00    +0.000 OA
ATOM     15  C   UNL     1      -4.607 -32.586  -7.868  0.00  0.00    +0.000 C 
ENDBRANCH  10  14
BRANCH  11  16
ATOM     16  O   UNL     1      -2.445 -33.623  -5.036  0.00  0.00    +0.000 OA
ATOM     17  H   UNL     1      -2.278 -32.913  -5.677  0.00  0.00    +0.000 HD
ENDBRANCH  11  16
ENDBRANCH   7   8
ENDBRANCH   2   6
BRANCH   4  18
ATOM     18  C   UNL     1     -13.518 -35.944  -5.424  0.00  0.00    +0.000 C 
ATOM     19  C   UNL     1     -14.592 -36.436  -5.204  0.00  0.00    +0.000 C 
BRANCH  19  20
ATOM     20  C   UNL     1     -15.863 -37.023  -4.942  0.00  0.00    +0.000 A 
ATOM     21  C   UNL     1     -16.519 -37.737  -5.945  0.00  0.00    +0.000 A 
ATOM     22  C   UNL     1     -17.767 -38.319  -5.704  0.00  0.00    +0.000 A 
ATOM     23  C   UNL     1     -18.343 -38.172  -4.439  0.00  0.00    +0.000 A 
ATOM     24  C   UNL     1     -17.692 -37.459  -3.433  0.00  0.00    +0.000 A 
ATOM     25  C   UNL     1     -16.450 -36.885  -3.686  0.00  0.00    +0.000 A 
BRANCH  22  26
ATOM     26  O   UNL     1     -18.479 -39.036  -6.634  0.00  0.00    +0.000 OA
ATOM     27  C   UNL     1     -18.792 -38.349  -7.818  0.00  0.00    +0.000 C 
ENDBRANCH  22  26
BRANCH  23  28
ATOM     28  O   UNL     1     -19.563 -38.734  -4.184  0.00  0.00    +0.000 OA
ATOM     29  H   UNL     1     -20.182 -38.028  -3.920  0.00  0.00    +0.000 HD
ENDBRANCH  23  28
ENDBRANCH  19  20
ENDBRANCH   4  18
TORSDOF 8
ENDMDL
MODEL 9
REMARK VINA RESULT:      -4.7      8.677     14.207
REMARK  Name = Curcumin.pdbqt.pdb
REMARK  8 active torsions:
REMARK  status: ('A' for Active; 'I' for Inactive)
REMARK    1  A    between atoms: C_2  and  C_4
REMARK    2  A    between atoms: C_5  and  C_6
REMARK    3  A    between atoms: C_8  and  O_12
REMARK    4  A    between atoms: C_9  and  O_14
REMARK    5  A    between atoms: C_16  and  C_18
REMARK    6  A    between atoms: C_19  and  C_20
REMARK    7  A    between atoms: C_22  and  O_26
REMARK    8  A    between atoms: C_23  and  O_28
REMARK                            x       y       z     vdW  Elec       q    Type
REMARK                         _______ _______ _______ _____ _____    ______ ____
ROOT
ATOM      1  C   UNL     1       3.496 -36.108   7.944  0.00  0.00    +0.000 C 
ATOM      2  C   UNL     1       3.698 -36.600   6.622  0.00  0.00    +0.000 C 
ATOM      3  O   UNL     1       4.012 -37.769   6.453  0.00  0.00    +0.000 OA
ATOM      4  C   UNL     1       3.299 -35.616   9.267  0.00  0.00    +0.000 C 
ATOM      5  O   UNL     1       3.295 -34.411   9.472  0.00  0.00    +0.000 OA
ENDROOT
BRANCH   2   6
ATOM      6  C   UNL     1       3.526 -35.718   5.495  0.00  0.00    +0.000 C 
ATOM      7  C   UNL     1       3.381 -34.985   4.555  0.00  0.00    +0.000 C 
BRANCH   7   8
ATOM      8  C   UNL     1       3.209 -34.111   3.441  0.00  0.00    +0.000 A 
ATOM      9  C   UNL     1       3.819 -32.858   3.439  0.00  0.00    +0.000 A 
ATOM     10  C   UNL     1       3.662 -31.989   2.354  0.00  0.00    +0.000 A 
ATOM     11  C   UNL     1       2.879 -32.402   1.271  0.00  0.00    +0.000 A 
ATOM     12  C   UNL     1       2.268 -33.655   1.271  0.00  0.00    +0.000 A 
ATOM     13  C   UNL     1       2.433 -34.510   2.357  0.00  0.00    +0.000 A 
BRANCH  10  14
ATOM     14  O   UNL     1       4.232 -30.743   2.282  0.00  0.00    +0.000 OA
ATOM     15  C   UNL     1       4.157 -29.963   3.441  0.00  0.00    +0.000 C 
ENDBRANCH  10  14
BRANCH  11  16
ATOM     16  O   UNL     1       2.668 -31.623   0.168  0.00  0.00    +0.000 OA
ATOM     17  H   UNL     1       3.048 -30.737   0.295  0.00  0.00    +0.000 HD
ENDBRANCH  11  16
ENDBRANCH   7   8
ENDBRANCH   2   6
BRANCH   4  18
ATOM     18  C   UNL     1       3.106 -36.543  10.353  0.00  0.00    +0.000 C 
ATOM     19  C   UNL     1       2.949 -37.316  11.260  0.00  0.00    +0.000 C 
BRANCH  19  20
ATOM     20  C   UNL     1       2.767 -38.233  12.336  0.00  0.00    +0.000 A 
ATOM     21  C   UNL     1       2.499 -39.575  12.066  0.00  0.00    +0.000 A 
ATOM     22  C   UNL     1       2.318 -40.487  13.110  0.00  0.00    +0.000 A 
ATOM     23  C   UNL     1       2.412 -40.028  14.426  0.00  0.00    +0.000 A 
ATOM     24  C   UNL     1       2.679 -38.687  14.701  0.00  0.00    +0.000 A 
ATOM     25  C   UNL     1       2.857 -37.789  13.653  0.00  0.00    +0.000 A 
BRANCH  22  26
ATOM     26  O   UNL     1       2.052 -41.823  12.933  0.00  0.00    +0.000 OA
ATOM     27  C   UNL     1       0.796 -42.121  12.381  0.00  0.00    +0.000 C 
ENDBRANCH  22  26
BRANCH  23  28
ATOM     28  O   UNL     1       2.237 -40.905  15.461  0.00  0.00    +0.000 OA
ATOM     29  H   UNL     1       2.432 -40.444  16.297  0.00  0.00    +0.000 HD
ENDBRANCH  23  28
ENDBRANCH  19  20
ENDBRANCH   4  18
TORSDOF 8
ENDMDL
