MODEL 1
REMARK VINA RESULT:      -8.3      0.000      0.000
REMARK  Name = Cyclosporin_A.pdbqt.pdb
REMARK  4 active torsions:
REMARK  status: ('A' for Active; 'I' for Inactive)
REMARK    1  A    between atoms: N_13  and  C_36
REMARK    2  A    between atoms: C_36  and  O_70
REMARK    3  A    between atoms: C_72  and  C_73
REMARK    4  A    between atoms: C_75  and  C_76
REMARK                            x       y       z     vdW  Elec       q    Type
REMARK                         _______ _______ _______ _____ _____    ______ ____
ROOT
ATOM      1  O   UNL     1      -2.692 -39.718  -7.462  0.00  0.00    +0.000 OA
ATOM      2  O   UNL     1      -2.793 -35.638  -4.355  0.00  0.00    +0.000 OA
ATOM      3  O   UNL     1      -6.026 -32.866  -6.542  0.00  0.00    +0.000 OA
ATOM      4  O   UNL     1      -3.382 -39.048 -12.266  0.00  0.00    +0.000 OA
ATOM      5  O   UNL     1      -6.669 -36.359  -2.922  0.00  0.00    +0.000 OA
ATOM      6  O   UNL     1     -15.715 -39.780  -8.715  0.00  0.00    +0.000 OA
ATOM      7  O   UNL     1      -5.849 -43.407  -9.816  0.00  0.00    +0.000 OA
ATOM      8  O   UNL     1     -12.621 -39.898 -12.546  0.00  0.00    +0.000 OA
ATOM      9  O   UNL     1     -14.517 -37.153  -4.824  0.00  0.00    +0.000 OA
ATOM     10  O   UNL     1      -9.387 -42.418 -12.297  0.00  0.00    +0.000 OA
ATOM     11  O   UNL     1     -10.600 -38.154  -3.321  0.00  0.00    +0.000 OA
ATOM     12  N   UNL     1      -3.193 -36.644  -5.960  0.00  0.00    +0.000 NA
ATOM     13  N   UNL     1      -3.775 -37.967  -8.706  0.00  0.00    +0.000 NA
ATOM     14  N   UNL     1      -4.761 -33.874  -5.392  0.00  0.00    +0.000 NA
ATOM     15  N   UNL     1      -7.719 -34.538  -4.433  0.00  0.00    +0.000 NA
ATOM     16  N   UNL     1      -5.155 -39.798 -10.769  0.00  0.00    +0.000 NA
ATOM     17  N   UNL     1     -14.589 -37.715  -8.617  0.00  0.00    +0.000 N 
ATOM     18  N   UNL     1     -12.527 -39.334 -10.277  0.00  0.00    +0.000 N 
ATOM     19  N   UNL     1     -10.486 -41.156 -11.254  0.00  0.00    +0.000 NA
ATOM     20  N   UNL     1      -7.222 -41.627  -9.468  0.00  0.00    +0.000 NA
ATOM     21  N   UNL     1      -9.417 -36.896  -5.105  0.00  0.00    +0.000 NA
ATOM     22  N   UNL     1     -12.642 -37.805  -6.200  0.00  0.00    +0.000 NA
ATOM     23  C   UNL     1      -3.217 -37.989  -6.192  0.00  0.00    +0.000 C 
ATOM     24  C   UNL     1      -4.439 -34.955  -6.107  0.00  0.00    +0.000 C 
ATOM     25  C   UNL     1      -3.298 -38.330  -9.951  0.00  0.00    +0.000 C 
ATOM     26  C   UNL     1      -2.559 -38.910  -5.397  0.00  0.00    +0.000 C 
ATOM     27  C   UNL     1      -4.075 -34.245  -7.354  0.00  0.00    +0.000 C 
ATOM     28  C   UNL     1      -3.297 -38.457  -7.487  0.00  0.00    +0.000 C 
ATOM     29  C   UNL     1      -3.786 -35.679  -5.167  0.00  0.00    +0.000 C 
ATOM     30  C   UNL     1      -6.582 -33.903  -4.373  0.00  0.00    +0.000 C 
ATOM     31  C   UNL     1      -6.073 -33.792  -5.633  0.00  0.00    +0.000 C 
ATOM     32  C   UNL     1      -4.147 -38.855 -11.063  0.00  0.00    +0.000 C 
ATOM     33  C   UNL     1      -1.861 -38.028  -4.515  0.00  0.00    +0.000 C 
ATOM     34  C   UNL     1      -2.086 -39.869  -6.230  0.00  0.00    +0.000 C 
ATOM     35  C   UNL     1      -2.396 -36.791  -4.840  0.00  0.00    +0.000 C 
ATOM     36  C   UNL     1      -4.618 -32.911  -6.428  0.00  0.00    +0.000 C 
ATOM     37  C   UNL     1      -4.978 -41.204 -10.740  0.00  0.00    +0.000 C 
ATOM     38  C   UNL     1     -13.754 -39.760  -9.836  0.00  0.00    +0.000 A 
ATOM     39  C   UNL     1      -7.248 -35.720  -4.050  0.00  0.00    +0.000 C 
ATOM     40  C   UNL     1     -14.749 -37.429  -7.237  0.00  0.00    +0.000 C 
ATOM     41  C   UNL     1     -10.724 -39.987 -11.897  0.00  0.00    +0.000 C 
ATOM     42  C   UNL     1      -8.251 -33.633  -3.381  0.00  0.00    +0.000 C 
ATOM     43  C   UNL     1     -14.396 -41.023 -10.019  0.00  0.00    +0.000 A 
ATOM     44  C   UNL     1     -16.419 -36.726  -7.289  0.00  0.00    +0.000 C 
ATOM     45  C   UNL     1      -8.335 -36.670  -4.425  0.00  0.00    +0.000 C 
ATOM     46  C   UNL     1     -11.431 -40.397 -13.160  0.00  0.00    +0.000 C 
ATOM     47  C   UNL     1      -3.756 -41.636 -11.339  0.00  0.00    +0.000 C 
ATOM     48  C   UNL     1     -14.621 -39.016  -9.043  0.00  0.00    +0.000 A 
ATOM     49  C   UNL     1      -5.879 -41.996 -10.106  0.00  0.00    +0.000 C 
ATOM     50  C   UNL     1     -11.990 -39.678 -11.425  0.00  0.00    +0.000 C 
ATOM     51  C   UNL     1     -13.988 -37.510  -6.095  0.00  0.00    +0.000 C 
ATOM     52  C   UNL     1      -8.217 -41.351 -10.508  0.00  0.00    +0.000 C 
ATOM     53  C   UNL     1     -13.890 -42.252 -10.726  0.00  0.00    +0.000 C 
ATOM     54  C   UNL     1     -15.575 -40.992  -9.319  0.00  0.00    +0.000 A 
ATOM     55  C   UNL     1      -9.156 -41.261 -11.568  0.00  0.00    +0.000 C 
ATOM     56  C   UNL     1     -11.816 -37.905  -5.208  0.00  0.00    +0.000 C 
ATOM     57  C   UNL     1      -7.593 -37.083  -3.352  0.00  0.00    +0.000 C 
ATOM     58  C   UNL     1     -15.799 -37.136  -8.441  0.00  0.00    +0.000 C 
ATOM     59  C   UNL     1      -2.744 -41.245 -11.846  0.00  0.00    +0.000 C 
ATOM     60  C   UNL     1     -10.447 -37.588  -4.640  0.00  0.00    +0.000 C 
ATOM     61  C   UNL     1     -10.820 -42.155 -12.413  0.00  0.00    +0.000 C 
ATOM     62  C   UNL     1      -6.883 -42.898  -9.365  0.00  0.00    +0.000 C 
ATOM     63  C   UNL     1     -11.674 -38.315  -3.924  0.00  0.00    +0.000 C 
ATOM     64  H   UNL     1      -5.698 -39.517  -9.952  0.00  0.00    +0.000 HD
ATOM     65  H   UNL     1     -11.921 -38.913  -9.577  0.00  0.00    +0.000 HD
ATOM     66  H   UNL     1      -9.581 -36.314  -5.922  0.00  0.00    +0.000 HD
ATOM     67  H   UNL     1     -12.287 -37.573  -7.122  0.00  0.00    +0.000 HD
ATOM     68  C   UNL     1      -2.044 -38.617 -10.168  0.00  0.00    +0.000 C 
ATOM     69  C   UNL     1      -1.307 -39.361 -11.131  0.00  0.00    +0.000 C 
ATOM     70  C   UNL     1      -2.250 -39.927 -12.116  0.00  0.00    +0.000 C 
ATOM     71  C   UNL     1      -2.769 -33.432  -8.012  0.00  0.00    +0.000 C 
ATOM     72  C   UNL     1      -2.388 -33.441  -9.288  0.00  0.00    +0.000 C 
ATOM     73  C   UNL     1      -3.593 -32.611  -7.237  0.00  0.00    +0.000 C 
ATOM     74  C   UNL     1      -7.035 -32.883  -3.418  0.00  0.00    +0.000 C 
ATOM     75  C   UNL     1      -7.659 -32.957  -2.180  0.00  0.00    +0.000 C 
ATOM     76  C   UNL     1      -8.264 -31.705  -1.509  0.00  0.00    +0.000 C 
ATOM     77  C   UNL     1      -8.519 -34.034  -2.086  0.00  0.00    +0.000 C 
ATOM     78  C   UNL     1     -11.196 -40.932 -14.651  0.00  0.00    +0.000 C 
ATOM     79  C   UNL     1     -11.851 -40.815 -15.803  0.00  0.00    +0.000 C 
ATOM     80  C   UNL     1     -10.930 -41.977 -13.764  0.00  0.00    +0.000 C 
ATOM     81  C   UNL     1     -16.741 -36.426  -6.029  0.00  0.00    +0.000 C 
ATOM     82  C   UNL     1     -18.053 -35.812  -5.667  0.00  0.00    +0.000 C 
ATOM     83  C   UNL     1     -15.749 -36.700  -5.056  0.00  0.00    +0.000 C 
ENDROOT
BRANCH  69  84
ATOM     84  C   UNL     1       0.015 -39.843 -10.978  0.00  0.00    +0.000 C 
ATOM     85  C   UNL     1       1.137 -40.248 -10.840  0.00  0.00    +0.000 C 
BRANCH  85  86
ATOM     86  C   UNL     1       2.570 -40.761 -10.663  0.00  0.00    +0.000 C 
ATOM     87  C   UNL     1       3.816 -41.203 -10.505  0.00  0.00    +0.000 C 
ENDBRANCH  85  86
ENDBRANCH  69  84
BRANCH  13  88
ATOM     88  C   UNL     1      -5.034 -37.242  -8.670  0.00  0.00    +0.000 C 
BRANCH  88  89
ATOM     89  O   UNL     1      -6.191 -36.594  -8.656  0.00  0.00    +0.000 OA
ATOM     90  H   UNL     1      -6.926 -37.227  -8.567  0.00  0.00    +0.000 HD
ENDBRANCH  88  89
ENDBRANCH  13  88
TORSDOF 4
ENDMDL
MODEL 2
REMARK VINA RESULT:      -8.2     19.131     22.839
REMARK  Name = Cyclosporin_A.pdbqt.pdb
REMARK  4 active torsions:
REMARK  status: ('A' for Active; 'I' for Inactive)
REMARK    1  A    between atoms: N_13  and  C_36
REMARK    2  A    between atoms: C_36  and  O_70
REMARK    3  A    between atoms: C_72  and  C_73
REMARK    4  A    between atoms: C_75  and  C_76
REMARK                            x       y       z     vdW  Elec       q    Type
REMARK                         _______ _______ _______ _____ _____    ______ ____
ROOT
ATOM      1  O   UNL     1     -11.395 -16.135 -21.937  0.00  0.00    +0.000 OA
ATOM      2  O   UNL     1      -7.436 -14.715 -19.001  0.00  0.00    +0.000 OA
ATOM      3  O   UNL     1      -8.078 -17.482 -15.147  0.00  0.00    +0.000 OA
ATOM      4  O   UNL     1     -15.599 -17.423 -19.774  0.00  0.00    +0.000 OA
ATOM      5  O   UNL     1      -5.386 -18.358 -19.356  0.00  0.00    +0.000 OA
ATOM      6  O   UNL     1      -9.640 -28.796 -19.142  0.00  0.00    +0.000 OA
ATOM      7  O   UNL     1     -13.810 -20.448 -24.103  0.00  0.00    +0.000 OA
ATOM      8  O   UNL     1     -13.980 -26.502 -18.725  0.00  0.00    +0.000 OA
ATOM      9  O   UNL     1      -5.596 -26.362 -18.045  0.00  0.00    +0.000 OA
ATOM     10  O   UNL     1     -15.101 -23.993 -21.777  0.00  0.00    +0.000 OA
ATOM     11  O   UNL     1      -5.315 -22.620 -20.170  0.00  0.00    +0.000 OA
ATOM     12  N   UNL     1      -9.106 -15.610 -19.399  0.00  0.00    +0.000 NA
ATOM     13  N   UNL     1     -11.889 -16.944 -19.725  0.00  0.00    +0.000 NA
ATOM     14  N   UNL     1      -7.530 -16.332 -16.669  0.00  0.00    +0.000 NA
ATOM     15  N   UNL     1      -6.121 -19.162 -17.007  0.00  0.00    +0.000 NA
ATOM     16  N   UNL     1     -13.972 -19.054 -20.575  0.00  0.00    +0.000 NA
ATOM     17  N   UNL     1      -9.292 -27.196 -17.450  0.00  0.00    +0.000 N 
ATOM     18  N   UNL     1     -11.723 -25.899 -18.877  0.00  0.00    +0.000 N 
ATOM     19  N   UNL     1     -13.557 -24.559 -20.688  0.00  0.00    +0.000 NA
ATOM     20  N   UNL     1     -12.731 -21.263 -22.275  0.00  0.00    +0.000 NA
ATOM     21  N   UNL     1      -6.953 -21.475 -18.697  0.00  0.00    +0.000 NA
ATOM     22  N   UNL     1      -7.478 -24.959 -18.613  0.00  0.00    +0.000 NA
ATOM     23  C   UNL     1      -9.652 -16.001 -20.587  0.00  0.00    +0.000 C 
ATOM     24  C   UNL     1      -8.544 -16.409 -17.535  0.00  0.00    +0.000 C 
ATOM     25  C   UNL     1     -13.259 -16.784 -19.793  0.00  0.00    +0.000 C 
ATOM     26  C   UNL     1      -9.280 -15.469 -21.808  0.00  0.00    +0.000 C 
ATOM     27  C   UNL     1      -9.626 -16.092 -16.575  0.00  0.00    +0.000 C 
ATOM     28  C   UNL     1     -10.969 -16.408 -20.632  0.00  0.00    +0.000 C 
ATOM     29  C   UNL     1      -7.986 -15.808 -18.613  0.00  0.00    +0.000 C 
ATOM     30  C   UNL     1      -6.165 -17.910 -16.647  0.00  0.00    +0.000 C 
ATOM     31  C   UNL     1      -7.440 -17.604 -16.272  0.00  0.00    +0.000 C 
ATOM     32  C   UNL     1     -14.244 -17.907 -19.799  0.00  0.00    +0.000 C 
ATOM     33  C   UNL     1      -8.389 -14.439 -21.373  0.00  0.00    +0.000 C 
ATOM     34  C   UNL     1     -10.409 -15.391 -22.554  0.00  0.00    +0.000 C 
ATOM     35  C   UNL     1      -8.268 -14.700 -20.016  0.00  0.00    +0.000 C 
ATOM     36  C   UNL     1      -8.301 -16.129 -15.492  0.00  0.00    +0.000 C 
ATOM     37  C   UNL     1     -14.333 -19.226 -21.935  0.00  0.00    +0.000 C 
ATOM     38  C   UNL     1     -11.136 -27.103 -19.170  0.00  0.00    +0.000 A 
ATOM     39  C   UNL     1      -6.159 -18.940 -18.317  0.00  0.00    +0.000 C 
ATOM     40  C   UNL     1      -7.885 -27.051 -17.554  0.00  0.00    +0.000 C 
ATOM     41  C   UNL     1     -13.820 -24.605 -19.360  0.00  0.00    +0.000 C 
ATOM     42  C   UNL     1      -4.786 -19.273 -16.364  0.00  0.00    +0.000 C 
ATOM     43  C   UNL     1     -11.475 -28.057 -20.177  0.00  0.00    +0.000 A 
ATOM     44  C   UNL     1      -7.381 -28.481 -16.562  0.00  0.00    +0.000 C 
ATOM     45  C   UNL     1      -6.502 -20.273 -18.890  0.00  0.00    +0.000 C 
ATOM     46  C   UNL     1     -14.951 -25.590 -19.240  0.00  0.00    +0.000 C 
ATOM     47  C   UNL     1     -15.280 -18.264 -22.399  0.00  0.00    +0.000 C 
ATOM     48  C   UNL     1     -10.008 -27.617 -18.539  0.00  0.00    +0.000 A 
ATOM     49  C   UNL     1     -13.728 -20.177 -22.690  0.00  0.00    +0.000 C 
ATOM     50  C   UNL     1     -13.012 -25.660 -18.966  0.00  0.00    +0.000 C 
ATOM     51  C   UNL     1      -7.002 -26.155 -18.110  0.00  0.00    +0.000 C 
ATOM     52  C   UNL     1     -13.416 -22.317 -21.522  0.00  0.00    +0.000 C 
ATOM     53  C   UNL     1     -12.560 -27.993 -21.220  0.00  0.00    +0.000 C 
ATOM     54  C   UNL     1     -10.541 -29.060 -20.128  0.00  0.00    +0.000 A 
ATOM     55  C   UNL     1     -14.180 -23.367 -20.949  0.00  0.00    +0.000 C 
ATOM     56  C   UNL     1      -6.756 -24.032 -19.153  0.00  0.00    +0.000 C 
ATOM     57  C   UNL     1      -5.761 -19.489 -19.731  0.00  0.00    +0.000 C 
ATOM     58  C   UNL     1      -8.709 -28.180 -16.728  0.00  0.00    +0.000 C 
ATOM     59  C   UNL     1     -15.891 -17.284 -22.077  0.00  0.00    +0.000 C 
ATOM     60  C   UNL     1      -6.453 -22.552 -19.284  0.00  0.00    +0.000 C 
ATOM     61  C   UNL     1     -14.821 -25.316 -21.222  0.00  0.00    +0.000 C 
ATOM     62  C   UNL     1     -13.025 -21.235 -23.561  0.00  0.00    +0.000 C 
ATOM     63  C   UNL     1      -5.680 -23.785 -19.939  0.00  0.00    +0.000 C 
ATOM     64  H   UNL     1     -13.010 -19.368 -20.447  0.00  0.00    +0.000 HD
ATOM     65  H   UNL     1     -11.097 -25.101 -18.802  0.00  0.00    +0.000 HD
ATOM     66  H   UNL     1      -7.541 -21.624 -17.881  0.00  0.00    +0.000 HD
ATOM     67  H   UNL     1      -8.370 -24.715 -18.193  0.00  0.00    +0.000 HD
ATOM     68  C   UNL     1     -13.819 -15.692 -20.238  0.00  0.00    +0.000 C 
ATOM     69  C   UNL     1     -15.077 -15.330 -20.795  0.00  0.00    +0.000 C 
ATOM     70  C   UNL     1     -15.931 -16.533 -20.857  0.00  0.00    +0.000 C 
ATOM     71  C   UNL     1     -10.340 -14.753 -15.870  0.00  0.00    +0.000 C 
ATOM     72  C   UNL     1     -11.631 -14.602 -15.579  0.00  0.00    +0.000 C 
ATOM     73  C   UNL     1      -9.220 -15.210 -15.170  0.00  0.00    +0.000 C 
ATOM     74  C   UNL     1      -4.910 -17.934 -15.883  0.00  0.00    +0.000 C 
ATOM     75  C   UNL     1      -3.621 -18.344 -16.194  0.00  0.00    +0.000 C 
ATOM     76  C   UNL     1      -2.542 -18.503 -15.102  0.00  0.00    +0.000 C 
ATOM     77  C   UNL     1      -3.604 -19.415 -17.068  0.00  0.00    +0.000 C 
ATOM     78  C   UNL     1     -16.540 -25.743 -19.350  0.00  0.00    +0.000 C 
ATOM     79  C   UNL     1     -17.449 -26.530 -18.780  0.00  0.00    +0.000 C 
ATOM     80  C   UNL     1     -16.024 -25.600 -20.639  0.00  0.00    +0.000 C 
ATOM     81  C   UNL     1      -6.047 -28.507 -16.587  0.00  0.00    +0.000 C 
ATOM     82  C   UNL     1      -5.257 -29.549 -15.867  0.00  0.00    +0.000 C 
ATOM     83  C   UNL     1      -5.423 -27.466 -17.318  0.00  0.00    +0.000 C 
ENDROOT
BRANCH  69  84
ATOM     84  C   UNL     1     -15.351 -14.162 -21.544  0.00  0.00    +0.000 C 
ATOM     85  C   UNL     1     -15.582 -13.174 -22.187  0.00  0.00    +0.000 C 
BRANCH  85  86
ATOM     86  C   UNL     1     -15.872 -11.915 -23.011  0.00  0.00    +0.000 C 
ATOM     87  C   UNL     1     -16.127 -10.824 -23.731  0.00  0.00    +0.000 C 
ENDBRANCH  85  86
ENDBRANCH  69  84
BRANCH  13  88
ATOM     88  C   UNL     1     -11.389 -17.963 -18.816  0.00  0.00    +0.000 C 
BRANCH  88  89
ATOM     89  O   UNL     1     -10.947 -18.909 -18.000  0.00  0.00    +0.000 OA
ATOM     90  H   UNL     1     -11.541 -18.993 -17.233  0.00  0.00    +0.000 HD
ENDBRANCH  88  89
ENDBRANCH  13  88
TORSDOF 4
ENDMDL
MODEL 3
REMARK VINA RESULT:      -8.2     16.754     21.191
REMARK  Name = Cyclosporin_A.pdbqt.pdb
REMARK  4 active torsions:
REMARK  status: ('A' for Active; 'I' for Inactive)
REMARK    1  A    between atoms: N_13  and  C_36
REMARK    2  A    between atoms: C_36  and  O_70
REMARK    3  A    between atoms: C_72  and  C_73
REMARK    4  A    between atoms: C_75  and  C_76
REMARK                            x       y       z     vdW  Elec       q    Type
REMARK                         _______ _______ _______ _____ _____    ______ ____
ROOT
ATOM      1  O   UNL     1      -4.645 -26.614 -22.794  0.00  0.00    +0.000 OA
ATOM      2  O   UNL     1      -9.634 -27.712 -22.322  0.00  0.00    +0.000 OA
ATOM      3  O   UNL     1     -10.481 -26.331 -17.817  0.00  0.00    +0.000 OA
ATOM      4  O   UNL     1      -1.745 -27.062 -18.870  0.00  0.00    +0.000 OA
ATOM      5  O   UNL     1     -10.878 -23.710 -22.142  0.00  0.00    +0.000 OA
ATOM      6  O   UNL     1      -6.021 -15.143 -16.654  0.00  0.00    +0.000 OA
ATOM      7  O   UNL     1      -1.043 -22.641 -22.196  0.00  0.00    +0.000 OA
ATOM      8  O   UNL     1      -2.622 -18.489 -15.422  0.00  0.00    +0.000 OA
ATOM      9  O   UNL     1     -10.373 -16.671 -18.138  0.00  0.00    +0.000 OA
ATOM     10  O   UNL     1      -0.542 -20.293 -18.470  0.00  0.00    +0.000 OA
ATOM     11  O   UNL     1     -10.092 -19.513 -21.370  0.00  0.00    +0.000 OA
ATOM     12  N   UNL     1      -7.873 -27.198 -21.701  0.00  0.00    +0.000 NA
ATOM     13  N   UNL     1      -5.109 -26.577 -20.434  0.00  0.00    +0.000 NA
ATOM     14  N   UNL     1     -10.414 -26.855 -19.730  0.00  0.00    +0.000 NA
ATOM     15  N   UNL     1     -11.191 -23.775 -19.572  0.00  0.00    +0.000 NA
ATOM     16  N   UNL     1      -2.642 -24.918 -19.613  0.00  0.00    +0.000 NA
ATOM     17  N   UNL     1      -7.271 -16.993 -15.907  0.00  0.00    +0.000 N 
ATOM     18  N   UNL     1      -4.622 -18.436 -16.637  0.00  0.00    +0.000 N 
ATOM     19  N   UNL     1      -2.335 -19.665 -17.941  0.00  0.00    +0.000 NA
ATOM     20  N   UNL     1      -2.729 -22.096 -20.769  0.00  0.00    +0.000 NA
ATOM     21  N   UNL     1      -9.432 -21.386 -19.881  0.00  0.00    +0.000 NA
ATOM     22  N   UNL     1      -8.609 -18.302 -18.385  0.00  0.00    +0.000 NA
ATOM     23  C   UNL     1      -6.812 -26.656 -22.365  0.00  0.00    +0.000 C 
ATOM     24  C   UNL     1      -9.118 -26.810 -20.049  0.00  0.00    +0.000 C 
ATOM     25  C   UNL     1      -3.883 -27.057 -20.017  0.00  0.00    +0.000 C 
ATOM     26  C   UNL     1      -6.654 -26.731 -23.737  0.00  0.00    +0.000 C 
ATOM     27  C   UNL     1      -8.626 -27.635 -18.923  0.00  0.00    +0.000 C 
ATOM     28  C   UNL     1      -5.578 -26.601 -21.752  0.00  0.00    +0.000 C 
ATOM     29  C   UNL     1      -9.197 -26.939 -21.394  0.00  0.00    +0.000 C 
ATOM     30  C   UNL     1     -11.455 -25.047 -19.687  0.00  0.00    +0.000 C 
ATOM     31  C   UNL     1     -10.528 -25.754 -18.980  0.00  0.00    +0.000 C 
ATOM     32  C   UNL     1      -2.880 -26.261 -19.247  0.00  0.00    +0.000 C 
ATOM     33  C   UNL     1      -7.755 -27.578 -24.072  0.00  0.00    +0.000 C 
ATOM     34  C   UNL     1      -5.327 -26.891 -23.963  0.00  0.00    +0.000 C 
ATOM     35  C   UNL     1      -8.442 -27.667 -22.870  0.00  0.00    +0.000 C 
ATOM     36  C   UNL     1     -10.282 -27.552 -18.499  0.00  0.00    +0.000 C 
ATOM     37  C   UNL     1      -1.692 -24.488 -20.572  0.00  0.00    +0.000 C 
ATOM     38  C   UNL     1      -4.874 -17.089 -16.692  0.00  0.00    +0.000 A 
ATOM     39  C   UNL     1     -10.594 -23.642 -20.752  0.00  0.00    +0.000 C 
ATOM     40  C   UNL     1      -8.487 -16.743 -16.592  0.00  0.00    +0.000 C 
ATOM     41  C   UNL     1      -2.694 -20.043 -16.690  0.00  0.00    +0.000 C 
ATOM     42  C   UNL     1     -12.650 -23.504 -19.502  0.00  0.00    +0.000 C 
ATOM     43  C   UNL     1      -4.013 -16.020 -17.086  0.00  0.00    +0.000 A 
ATOM     44  C   UNL     1      -9.217 -15.550 -15.439  0.00  0.00    +0.000 C 
ATOM     45  C   UNL     1      -9.882 -22.337 -20.641  0.00  0.00    +0.000 C 
ATOM     46  C   UNL     1      -1.633 -19.447 -15.805  0.00  0.00    +0.000 C 
ATOM     47  C   UNL     1      -0.753 -25.499 -20.938  0.00  0.00    +0.000 C 
ATOM     48  C   UNL     1      -6.099 -16.493 -16.411  0.00  0.00    +0.000 A 
ATOM     49  C   UNL     1      -1.782 -23.249 -21.118  0.00  0.00    +0.000 C 
ATOM     50  C   UNL     1      -3.466 -18.962 -16.298  0.00  0.00    +0.000 C 
ATOM     51  C   UNL     1      -9.122 -17.203 -17.721  0.00  0.00    +0.000 C 
ATOM     52  C   UNL     1      -2.339 -21.491 -19.492  0.00  0.00    +0.000 C 
ATOM     53  C   UNL     1      -2.591 -16.077 -17.577  0.00  0.00    +0.000 C 
ATOM     54  C   UNL     1      -4.750 -14.863 -17.054  0.00  0.00    +0.000 A 
ATOM     55  C   UNL     1      -1.801 -20.862 -18.340  0.00  0.00    +0.000 C 
ATOM     56  C   UNL     1      -9.112 -18.837 -19.450  0.00  0.00    +0.000 C 
ATOM     57  C   UNL     1     -10.249 -22.653 -21.921  0.00  0.00    +0.000 C 
ATOM     58  C   UNL     1      -8.000 -16.122 -15.172  0.00  0.00    +0.000 C 
ATOM     59  C   UNL     1      -0.468 -26.651 -20.771  0.00  0.00    +0.000 C 
ATOM     60  C   UNL     1      -9.490 -20.101 -20.197  0.00  0.00    +0.000 C 
ATOM     61  C   UNL     1      -0.890 -19.140 -17.641  0.00  0.00    +0.000 C 
ATOM     62  C   UNL     1      -1.894 -21.854 -21.761  0.00  0.00    +0.000 C 
ATOM     63  C   UNL     1      -9.740 -18.584 -20.624  0.00  0.00    +0.000 C 
ATOM     64  H   UNL     1      -3.517 -24.416 -19.766  0.00  0.00    +0.000 HD
ATOM     65  H   UNL     1      -5.301 -19.039 -17.095  0.00  0.00    +0.000 HD
ATOM     66  H   UNL     1      -9.260 -21.614 -18.905  0.00  0.00    +0.000 HD
ATOM     67  H   UNL     1      -8.035 -18.867 -17.767  0.00  0.00    +0.000 HD
ATOM     68  C   UNL     1      -3.310 -28.095 -20.562  0.00  0.00    +0.000 C 
ATOM     69  C   UNL     1      -1.986 -28.603 -20.677  0.00  0.00    +0.000 C 
ATOM     70  C   UNL     1      -1.065 -27.685 -19.978  0.00  0.00    +0.000 C 
ATOM     71  C   UNL     1      -8.461 -29.249 -18.514  0.00  0.00    +0.000 C 
ATOM     72  C   UNL     1      -7.465 -29.795 -17.818  0.00  0.00    +0.000 C 
ATOM     73  C   UNL     1      -9.716 -28.726 -18.190  0.00  0.00    +0.000 C 
ATOM     74  C   UNL     1     -12.908 -24.909 -19.513  0.00  0.00    +0.000 C 
ATOM     75  C   UNL     1     -13.864 -24.118 -20.134  0.00  0.00    +0.000 C 
ATOM     76  C   UNL     1     -15.292 -23.987 -19.564  0.00  0.00    +0.000 C 
ATOM     77  C   UNL     1     -13.365 -22.885 -20.510  0.00  0.00    +0.000 C 
ATOM     78  C   UNL     1      -0.158 -19.678 -15.230  0.00  0.00    +0.000 C 
ATOM     79  C   UNL     1       0.481 -19.329 -14.116  0.00  0.00    +0.000 C 
ATOM     80  C   UNL     1      -0.052 -19.336 -16.579  0.00  0.00    +0.000 C 
ATOM     81  C   UNL     1     -10.385 -15.180 -15.969  0.00  0.00    +0.000 C 
ATOM     82  C   UNL     1     -11.291 -14.203 -15.296  0.00  0.00    +0.000 C 
ATOM     83  C   UNL     1     -10.728 -15.795 -17.198  0.00  0.00    +0.000 C 
ENDROOT
BRANCH  69  84
ATOM     84  C   UNL     1      -1.539 -29.559 -21.619  0.00  0.00    +0.000 C 
ATOM     85  C   UNL     1      -1.152 -30.370 -22.416  0.00  0.00    +0.000 C 
BRANCH  85  86
ATOM     86  C   UNL     1      -0.653 -31.402 -23.433  0.00  0.00    +0.000 C 
ATOM     87  C   UNL     1      -0.224 -32.303 -24.314  0.00  0.00    +0.000 C 
ENDBRANCH  85  86
ENDBRANCH  69  84
BRANCH  13  88
ATOM     88  C   UNL     1      -5.844 -25.746 -19.495  0.00  0.00    +0.000 C 
BRANCH  88  89
ATOM     89  O   UNL     1      -6.494 -24.980 -18.628  0.00  0.00    +0.000 OA
ATOM     90  H   UNL     1      -6.374 -24.042 -18.858  0.00  0.00    +0.000 HD
ENDBRANCH  88  89
ENDBRANCH  13  88
TORSDOF 4
ENDMDL
MODEL 4
REMARK VINA RESULT:      -8.1      7.293     12.940
REMARK  Name = Cyclosporin_A.pdbqt.pdb
REMARK  4 active torsions:
REMARK  status: ('A' for Active; 'I' for Inactive)
REMARK    1  A    between atoms: N_13  and  C_36
REMARK    2  A    between atoms: C_36  and  O_70
REMARK    3  A    between atoms: C_72  and  C_73
REMARK    4  A    between atoms: C_75  and  C_76
REMARK                            x       y       z     vdW  Elec       q    Type
REMARK                         _______ _______ _______ _____ _____    ______ ____
ROOT
ATOM      1  O   UNL     1      -4.502 -38.638  -5.304  0.00  0.00    +0.000 OA
ATOM      2  O   UNL     1      -1.795 -42.965  -5.813  0.00  0.00    +0.000 OA
ATOM      3  O   UNL     1       0.293 -43.282  -1.517  0.00  0.00    +0.000 OA
ATOM      4  O   UNL     1      -2.697 -35.035  -2.516  0.00  0.00    +0.000 OA
ATOM      5  O   UNL     1      -4.128 -45.180  -3.121  0.00  0.00    +0.000 OA
ATOM      6  O   UNL     1      -8.417 -41.853   6.760  0.00  0.00    +0.000 OA
ATOM      7  O   UNL     1      -8.141 -36.189  -2.159  0.00  0.00    +0.000 OA
ATOM      8  O   UNL     1      -6.380 -37.511   5.636  0.00  0.00    +0.000 OA
ATOM      9  O   UNL     1      -6.825 -45.834   4.503  0.00  0.00    +0.000 OA
ATOM     10  O   UNL     1      -7.666 -35.640   2.213  0.00  0.00    +0.000 OA
ATOM     11  O   UNL     1      -6.898 -45.419   0.211  0.00  0.00    +0.000 OA
ATOM     12  N   UNL     1      -2.352 -41.322  -4.951  0.00  0.00    +0.000 NA
ATOM     13  N   UNL     1      -2.912 -38.638  -3.498  0.00  0.00    +0.000 NA
ATOM     14  N   UNL     1      -0.542 -43.441  -3.310  0.00  0.00    +0.000 NA
ATOM     15  N   UNL     1      -2.385 -44.971  -1.218  0.00  0.00    +0.000 NA
ATOM     16  N   UNL     1      -4.392 -36.598  -1.720  0.00  0.00    +0.000 NA
ATOM     17  N   UNL     1      -6.226 -42.395   6.090  0.00  0.00    +0.000 N 
ATOM     18  N   UNL     1      -6.517 -39.644   4.683  0.00  0.00    +0.000 N 
ATOM     19  N   UNL     1      -7.199 -37.402   2.966  0.00  0.00    +0.000 NA
ATOM     20  N   UNL     1      -7.092 -37.657  -0.774  0.00  0.00    +0.000 NA
ATOM     21  N   UNL     1      -4.854 -44.010   0.151  0.00  0.00    +0.000 NA
ATOM     22  N   UNL     1      -6.393 -43.777   3.314  0.00  0.00    +0.000 NA
ATOM     23  C   UNL     1      -3.497 -40.591  -5.073  0.00  0.00    +0.000 C 
ATOM     24  C   UNL     1      -1.196 -42.289  -3.482  0.00  0.00    +0.000 C 
ATOM     25  C   UNL     1      -2.713 -37.272  -3.453  0.00  0.00    +0.000 C 
ATOM     26  C   UNL     1      -4.347 -40.682  -6.160  0.00  0.00    +0.000 C 
ATOM     27  C   UNL     1      -0.070 -41.389  -3.145  0.00  0.00    +0.000 C 
ATOM     28  C   UNL     1      -3.560 -39.324  -4.531  0.00  0.00    +0.000 C 
ATOM     29  C   UNL     1      -1.913 -42.583  -4.592  0.00  0.00    +0.000 C 
ATOM     30  C   UNL     1      -1.463 -44.901  -2.138  0.00  0.00    +0.000 C 
ATOM     31  C   UNL     1      -0.824 -43.702  -2.030  0.00  0.00    +0.000 C 
ATOM     32  C   UNL     1      -3.130 -36.393  -2.319  0.00  0.00    +0.000 C 
ATOM     33  C   UNL     1      -3.591 -41.558  -6.998  0.00  0.00    +0.000 C 
ATOM     34  C   UNL     1      -4.807 -39.428  -6.394  0.00  0.00    +0.000 C 
ATOM     35  C   UNL     1      -2.557 -41.955  -6.163  0.00  0.00    +0.000 C 
ATOM     36  C   UNL     1       0.676 -42.895  -2.821  0.00  0.00    +0.000 C 
ATOM     37  C   UNL     1      -5.605 -35.998  -2.141  0.00  0.00    +0.000 C 
ATOM     38  C   UNL     1      -7.429 -40.255   5.505  0.00  0.00    +0.000 A 
ATOM     39  C   UNL     1      -3.407 -44.666  -2.011  0.00  0.00    +0.000 C 
ATOM     40  C   UNL     1      -6.432 -43.741   5.693  0.00  0.00    +0.000 C 
ATOM     41  C   UNL     1      -6.036 -37.402   3.662  0.00  0.00    +0.000 C 
ATOM     42  C   UNL     1      -2.057 -46.408  -1.035  0.00  0.00    +0.000 C 
ATOM     43  C   UNL     1      -8.717 -39.803   5.926  0.00  0.00    +0.000 A 
ATOM     44  C   UNL     1      -6.327 -44.532   7.319  0.00  0.00    +0.000 C 
ATOM     45  C   UNL     1      -4.501 -44.323  -1.058  0.00  0.00    +0.000 C 
ATOM     46  C   UNL     1      -6.258 -36.392   4.755  0.00  0.00    +0.000 C 
ATOM     47  C   UNL     1      -5.419 -34.909  -3.045  0.00  0.00    +0.000 C 
ATOM     48  C   UNL     1      -7.278 -41.518   6.067  0.00  0.00    +0.000 A 
ATOM     49  C   UNL     1      -6.797 -36.519  -1.756  0.00  0.00    +0.000 C 
ATOM     50  C   UNL     1      -6.310 -38.347   4.637  0.00  0.00    +0.000 C 
ATOM     51  C   UNL     1      -6.597 -44.430   4.514  0.00  0.00    +0.000 C 
ATOM     52  C   UNL     1      -6.859 -37.209   0.602  0.00  0.00    +0.000 C 
ATOM     53  C   UNL     1      -9.446 -38.538   5.560  0.00  0.00    +0.000 C 
ATOM     54  C   UNL     1      -9.280 -40.803   6.676  0.00  0.00    +0.000 A 
ATOM     55  C   UNL     1      -6.768 -36.651   1.904  0.00  0.00    +0.000 C 
ATOM     56  C   UNL     1      -6.509 -44.310   2.141  0.00  0.00    +0.000 C 
ATOM     57  C   UNL     1      -4.950 -44.828  -2.248  0.00  0.00    +0.000 C 
ATOM     58  C   UNL     1      -6.152 -43.178   7.190  0.00  0.00    +0.000 C 
ATOM     59  C   UNL     1      -4.587 -34.299  -3.655  0.00  0.00    +0.000 C 
ATOM     60  C   UNL     1      -5.948 -44.469   0.741  0.00  0.00    +0.000 C 
ATOM     61  C   UNL     1      -7.860 -36.121   3.580  0.00  0.00    +0.000 C 
ATOM     62  C   UNL     1      -8.154 -37.121  -1.346  0.00  0.00    +0.000 C 
ATOM     63  C   UNL     1      -7.212 -45.194   1.392  0.00  0.00    +0.000 C 
ATOM     64  H   UNL     1      -4.559 -37.588  -1.539  0.00  0.00    +0.000 HD
ATOM     65  H   UNL     1      -6.150 -40.210   3.922  0.00  0.00    +0.000 HD
ATOM     66  H   UNL     1      -4.142 -43.601   0.751  0.00  0.00    +0.000 HD
ATOM     67  H   UNL     1      -5.795 -42.966   3.436  0.00  0.00    +0.000 HD
ATOM     68  C   UNL     1      -2.499 -36.556  -4.523  0.00  0.00    +0.000 C 
ATOM     69  C   UNL     1      -2.641 -35.191  -4.897  0.00  0.00    +0.000 C 
ATOM     70  C   UNL     1      -3.163 -34.434  -3.741  0.00  0.00    +0.000 C 
ATOM     71  C   UNL     1       1.280 -40.723  -3.874  0.00  0.00    +0.000 C 
ATOM     72  C   UNL     1       1.775 -39.503  -3.668  0.00  0.00    +0.000 C 
ATOM     73  C   UNL     1       1.519 -41.987  -3.329  0.00  0.00    +0.000 C 
ATOM     74  C   UNL     1      -0.978 -46.277  -1.962  0.00  0.00    +0.000 C 
ATOM     75  C   UNL     1      -1.615 -47.510  -1.952  0.00  0.00    +0.000 C 
ATOM     76  C   UNL     1      -0.887 -48.786  -1.479  0.00  0.00    +0.000 C 
ATOM     77  C   UNL     1      -2.890 -47.442  -1.424  0.00  0.00    +0.000 C 
ATOM     78  C   UNL     1      -6.219 -34.827   5.089  0.00  0.00    +0.000 C 
ATOM     79  C   UNL     1      -5.985 -34.107   6.183  0.00  0.00    +0.000 C 
ATOM     80  C   UNL     1      -7.334 -35.076   4.287  0.00  0.00    +0.000 C 
ATOM     81  C   UNL     1      -6.537 -45.835   7.119  0.00  0.00    +0.000 C 
ATOM     82  C   UNL     1      -6.520 -46.825   8.237  0.00  0.00    +0.000 C 
ATOM     83  C   UNL     1      -6.750 -46.227   5.775  0.00  0.00    +0.000 C 
ENDROOT
BRANCH  69  84
ATOM     84  C   UNL     1      -2.691 -34.690  -6.220  0.00  0.00    +0.000 C 
ATOM     85  C   UNL     1      -2.734 -34.274  -7.345  0.00  0.00    +0.000 C 
BRANCH  85  86
ATOM     86  C   UNL     1      -2.787 -33.746  -8.783  0.00  0.00    +0.000 C 
ATOM     87  C   UNL     1      -2.832 -33.292 -10.034  0.00  0.00    +0.000 C 
ENDBRANCH  85  86
ENDBRANCH  69  84
BRANCH  13  88
ATOM     88  C   UNL     1      -2.681 -39.378  -2.268  0.00  0.00    +0.000 C 
BRANCH  88  89
ATOM     89  O   UNL     1      -2.450 -40.041  -1.143  0.00  0.00    +0.000 OA
ATOM     90  H   UNL     1      -2.791 -40.950  -1.215  0.00  0.00    +0.000 HD
ENDBRANCH  88  89
ENDBRANCH  13  88
TORSDOF 4
ENDMDL
MODEL 5
REMARK VINA RESULT:      -8.0     14.989     20.714
REMARK  Name = Cyclosporin_A.pdbqt.pdb
REMARK  4 active torsions:
REMARK  status: ('A' for Active; 'I' for Inactive)
REMARK    1  A    between atoms: N_13  and  C_36
REMARK    2  A    between atoms: C_36  and  O_70
REMARK    3  A    between atoms: C_72  and  C_73
REMARK    4  A    between atoms: C_75  and  C_76
REMARK                            x       y       z     vdW  Elec       q    Type
REMARK                         _______ _______ _______ _____ _____    ______ ____
ROOT
ATOM      1  O   UNL     1     -17.014 -20.852   3.759  0.00  0.00    +0.000 OA
ATOM      2  O   UNL     1     -17.026 -17.209   0.148  0.00  0.00    +0.000 OA
ATOM      3  O   UNL     1     -15.515 -19.664  -3.674  0.00  0.00    +0.000 OA
ATOM      4  O   UNL     1     -13.620 -24.379   3.547  0.00  0.00    +0.000 OA
ATOM      5  O   UNL     1     -20.234 -18.837  -2.010  0.00  0.00    +0.000 OA
ATOM      6  O   UNL     1     -22.278 -29.676  -4.341  0.00  0.00    +0.000 OA
ATOM      7  O   UNL     1     -18.845 -25.804   4.875  0.00  0.00    +0.000 OA
ATOM      8  O   UNL     1     -18.215 -30.515  -1.685  0.00  0.00    +0.000 OA
ATOM      9  O   UNL     1     -23.014 -25.240  -6.146  0.00  0.00    +0.000 OA
ATOM     10  O   UNL     1     -18.236 -29.320   2.245  0.00  0.00    +0.000 OA
ATOM     11  O   UNL     1     -22.769 -22.181  -3.115  0.00  0.00    +0.000 OA
ATOM     12  N   UNL     1     -16.637 -18.953   0.895  0.00  0.00    +0.000 NA
ATOM     13  N   UNL     1     -15.706 -21.723   1.938  0.00  0.00    +0.000 NA
ATOM     14  N   UNL     1     -16.271 -18.469  -2.282  0.00  0.00    +0.000 NA
ATOM     15  N   UNL     1     -18.687 -19.848  -3.823  0.00  0.00    +0.000 NA
ATOM     16  N   UNL     1     -15.903 -24.693   2.748  0.00  0.00    +0.000 NA
ATOM     17  N   UNL     1     -20.702 -28.146  -5.190  0.00  0.00    +0.000 N 
ATOM     18  N   UNL     1     -19.452 -28.660  -2.396  0.00  0.00    +0.000 N 
ATOM     19  N   UNL     1     -18.797 -28.785   0.431  0.00  0.00    +0.000 NA
ATOM     20  N   UNL     1     -18.769 -25.727   2.602  0.00  0.00    +0.000 NA
ATOM     21  N   UNL     1     -20.288 -22.236  -3.031  0.00  0.00    +0.000 NA
ATOM     22  N   UNL     1     -21.527 -25.305  -4.244  0.00  0.00    +0.000 NA
ATOM     23  C   UNL     1     -17.213 -19.634   1.927  0.00  0.00    +0.000 C 
ATOM     24  C   UNL     1     -16.205 -19.179  -1.152  0.00  0.00    +0.000 C 
ATOM     25  C   UNL     1     -14.809 -22.439   2.707  0.00  0.00    +0.000 C 
ATOM     26  C   UNL     1     -17.958 -19.024   2.920  0.00  0.00    +0.000 C 
ATOM     27  C   UNL     1     -14.779 -19.563  -1.262  0.00  0.00    +0.000 C 
ATOM     28  C   UNL     1     -16.600 -20.764   2.426  0.00  0.00    +0.000 C 
ATOM     29  C   UNL     1     -16.947 -18.397  -0.333  0.00  0.00    +0.000 C 
ATOM     30  C   UNL     1     -17.852 -18.876  -3.581  0.00  0.00    +0.000 C 
ATOM     31  C   UNL     1     -16.673 -19.405  -3.146  0.00  0.00    +0.000 C 
ATOM     32  C   UNL     1     -14.715 -23.930   2.729  0.00  0.00    +0.000 C 
ATOM     33  C   UNL     1     -17.770 -17.651   2.569  0.00  0.00    +0.000 C 
ATOM     34  C   UNL     1     -17.673 -19.678   4.072  0.00  0.00    +0.000 C 
ATOM     35  C   UNL     1     -17.125 -17.740   1.344  0.00  0.00    +0.000 C 
ATOM     36  C   UNL     1     -14.959 -18.745  -2.756  0.00  0.00    +0.000 C 
ATOM     37  C   UNL     1     -16.600 -25.093   3.915  0.00  0.00    +0.000 C 
ATOM     38  C   UNL     1     -20.565 -29.259  -2.929  0.00  0.00    +0.000 A 
ATOM     39  C   UNL     1     -19.372 -19.737  -2.689  0.00  0.00    +0.000 C 
ATOM     40  C   UNL     1     -21.587 -27.172  -5.718  0.00  0.00    +0.000 C 
ATOM     41  C   UNL     1     -17.828 -28.940  -0.503  0.00  0.00    +0.000 C 
ATOM     42  C   UNL     1     -19.181 -19.096  -5.005  0.00  0.00    +0.000 C 
ATOM     43  C   UNL     1     -21.421 -30.251  -2.361  0.00  0.00    +0.000 A 
ATOM     44  C   UNL     1     -21.953 -27.960  -7.309  0.00  0.00    +0.000 C 
ATOM     45  C   UNL     1     -20.133 -21.018  -2.613  0.00  0.00    +0.000 C 
ATOM     46  C   UNL     1     -17.499 -30.408  -0.453  0.00  0.00    +0.000 C 
ATOM     47  C   UNL     1     -15.843 -24.930   5.114  0.00  0.00    +0.000 C 
ATOM     48  C   UNL     1     -21.123 -28.952  -4.165  0.00  0.00    +0.000 A 
ATOM     49  C   UNL     1     -17.893 -25.495   3.838  0.00  0.00    +0.000 C 
ATOM     50  C   UNL     1     -18.584 -29.265  -1.618  0.00  0.00    +0.000 C 
ATOM     51  C   UNL     1     -22.071 -25.941  -5.344  0.00  0.00    +0.000 C 
ATOM     52  C   UNL     1     -18.360 -26.956   1.917  0.00  0.00    +0.000 C 
ATOM     53  C   UNL     1     -21.355 -30.899  -1.004  0.00  0.00    +0.000 C 
ATOM     54  C   UNL     1     -22.446 -30.468  -3.246  0.00  0.00    +0.000 A 
ATOM     55  C   UNL     1     -18.011 -28.235   1.410  0.00  0.00    +0.000 C 
ATOM     56  C   UNL     1     -21.886 -24.147  -3.793  0.00  0.00    +0.000 C 
ATOM     57  C   UNL     1     -20.758 -19.971  -1.991  0.00  0.00    +0.000 C 
ATOM     58  C   UNL     1     -21.080 -28.543  -6.427  0.00  0.00    +0.000 C 
ATOM     59  C   UNL     1     -14.802 -24.521   5.546  0.00  0.00    +0.000 C 
ATOM     60  C   UNL     1     -21.469 -22.798  -3.241  0.00  0.00    +0.000 C 
ATOM     61  C   UNL     1     -18.684 -30.174   1.146  0.00  0.00    +0.000 C 
ATOM     62  C   UNL     1     -19.369 -25.926   3.761  0.00  0.00    +0.000 C 
ATOM     63  C   UNL     1     -22.938 -23.317  -3.589  0.00  0.00    +0.000 C 
ATOM     64  H   UNL     1     -16.576 -24.346   2.064  0.00  0.00    +0.000 HD
ATOM     65  H   UNL     1     -19.429 -27.644  -2.432  0.00  0.00    +0.000 HD
ATOM     66  H   UNL     1     -19.480 -22.689  -3.450  0.00  0.00    +0.000 HD
ATOM     67  H   UNL     1     -20.590 -25.647  -4.051  0.00  0.00    +0.000 HD
ATOM     68  C   UNL     1     -14.225 -21.936   3.759  0.00  0.00    +0.000 C 
ATOM     69  C   UNL     1     -13.609 -22.440   4.938  0.00  0.00    +0.000 C 
ATOM     70  C   UNL     1     -13.669 -23.915   4.911  0.00  0.00    +0.000 C 
ATOM     71  C   UNL     1     -13.268 -18.923  -0.938  0.00  0.00    +0.000 C 
ATOM     72  C   UNL     1     -12.203 -19.586  -0.492  0.00  0.00    +0.000 C 
ATOM     73  C   UNL     1     -13.752 -18.574  -2.202  0.00  0.00    +0.000 C 
ATOM     74  C   UNL     1     -18.180 -18.100  -4.786  0.00  0.00    +0.000 C 
ATOM     75  C   UNL     1     -19.377 -17.643  -5.319  0.00  0.00    +0.000 C 
ATOM     76  C   UNL     1     -19.452 -17.072  -6.751  0.00  0.00    +0.000 C 
ATOM     77  C   UNL     1     -20.429 -18.505  -5.072  0.00  0.00    +0.000 C 
ATOM     78  C   UNL     1     -16.636 -31.508   0.327  0.00  0.00    +0.000 C 
ATOM     79  C   UNL     1     -16.076 -32.668  -0.003  0.00  0.00    +0.000 C 
ATOM     80  C   UNL     1     -17.696 -31.119   1.149  0.00  0.00    +0.000 C 
ATOM     81  C   UNL     1     -22.823 -27.162  -7.934  0.00  0.00    +0.000 C 
ATOM     82  C   UNL     1     -23.358 -27.477  -9.291  0.00  0.00    +0.000 C 
ATOM     83  C   UNL     1     -23.185 -25.981  -7.241  0.00  0.00    +0.000 C 
ENDROOT
BRANCH  69  84
ATOM     84  C   UNL     1     -13.358 -21.710   6.124  0.00  0.00    +0.000 C 
ATOM     85  C   UNL     1     -13.137 -21.094   7.131  0.00  0.00    +0.000 C 
BRANCH  85  86
ATOM     86  C   UNL     1     -12.853 -20.311   8.418  0.00  0.00    +0.000 C 
ATOM     87  C   UNL     1     -12.604 -19.636   9.539  0.00  0.00    +0.000 C 
ENDBRANCH  85  86
ENDBRANCH  69  84
BRANCH  13  88
ATOM     88  C   UNL     1     -15.930 -22.192   0.580  0.00  0.00    +0.000 C 
BRANCH  88  89
ATOM     89  O   UNL     1     -16.121 -22.639  -0.654  0.00  0.00    +0.000 OA
ATOM     90  H   UNL     1     -15.710 -22.033  -1.295  0.00  0.00    +0.000 HD
ENDBRANCH  88  89
ENDBRANCH  13  88
TORSDOF 4
ENDMDL
MODEL 6
REMARK VINA RESULT:      -8.0      5.058     13.244
REMARK  Name = Cyclosporin_A.pdbqt.pdb
REMARK  4 active torsions:
REMARK  status: ('A' for Active; 'I' for Inactive)
REMARK    1  A    between atoms: N_13  and  C_36
REMARK    2  A    between atoms: C_36  and  O_70
REMARK    3  A    between atoms: C_72  and  C_73
REMARK    4  A    between atoms: C_75  and  C_76
REMARK                            x       y       z     vdW  Elec       q    Type
REMARK                         _______ _______ _______ _____ _____    ______ ____
ROOT
ATOM      1  O   UNL     1     -10.105 -38.865  -1.045  0.00  0.00    +0.000 OA
ATOM      2  O   UNL     1     -10.026 -35.155  -4.587  0.00  0.00    +0.000 OA
ATOM      3  O   UNL     1      -5.616 -33.387  -4.002  0.00  0.00    +0.000 OA
ATOM      4  O   UNL     1      -7.610 -38.210   3.120  0.00  0.00    +0.000 OA
ATOM      5  O   UNL     1      -7.249 -37.077  -7.074  0.00  0.00    +0.000 OA
ATOM      6  O   UNL     1       2.000 -42.790  -4.086  0.00  0.00    +0.000 OA
ATOM      7  O   UNL     1      -7.425 -43.220   0.679  0.00  0.00    +0.000 OA
ATOM      8  O   UNL     1       0.547 -41.791   0.514  0.00  0.00    +0.000 OA
ATOM      9  O   UNL     1       0.249 -40.108  -7.723  0.00  0.00    +0.000 OA
ATOM     10  O   UNL     1      -3.112 -43.228   1.703  0.00  0.00    +0.000 OA
ATOM     11  O   UNL     1      -4.061 -39.952  -7.709  0.00  0.00    +0.000 OA
ATOM     12  N   UNL     1      -9.368 -36.159  -3.067  0.00  0.00    +0.000 NA
ATOM     13  N   UNL     1      -8.228 -37.466  -0.493  0.00  0.00    +0.000 NA
ATOM     14  N   UNL     1      -7.425 -34.019  -4.517  0.00  0.00    +0.000 NA
ATOM     15  N   UNL     1      -5.288 -35.588  -6.273  0.00  0.00    +0.000 NA
ATOM     16  N   UNL     1      -6.749 -39.529   1.258  0.00  0.00    +0.000 NA
ATOM     17  N   UNL     1       1.505 -40.488  -4.120  0.00  0.00    +0.000 N 
ATOM     18  N   UNL     1      -0.189 -41.332  -1.660  0.00  0.00    +0.000 N 
ATOM     19  N   UNL     1      -2.159 -42.406   0.184  0.00  0.00    +0.000 NA
ATOM     20  N   UNL     1      -5.842 -41.954  -0.356  0.00  0.00    +0.000 NA
ATOM     21  N   UNL     1      -4.157 -38.314  -5.846  0.00  0.00    +0.000 NA
ATOM     22  N   UNL     1      -1.120 -40.101  -5.734  0.00  0.00    +0.000 NA
ATOM     23  C   UNL     1      -9.623 -37.436  -2.659  0.00  0.00    +0.000 C 
ATOM     24  C   UNL     1      -7.749 -34.919  -3.584  0.00  0.00    +0.000 C 
ATOM     25  C   UNL     1      -8.312 -37.609   0.878  0.00  0.00    +0.000 C 
ATOM     26  C   UNL     1     -10.739 -38.152  -3.051  0.00  0.00    +0.000 C 
ATOM     27  C   UNL     1      -7.446 -34.075  -2.407  0.00  0.00    +0.000 C 
ATOM     28  C   UNL     1      -9.218 -37.846  -1.405  0.00  0.00    +0.000 C 
ATOM     29  C   UNL     1      -8.859 -35.455  -4.143  0.00  0.00    +0.000 C 
ATOM     30  C   UNL     1      -6.160 -34.644  -6.055  0.00  0.00    +0.000 C 
ATOM     31  C   UNL     1      -6.142 -34.326  -4.729  0.00  0.00    +0.000 C 
ATOM     32  C   UNL     1      -7.298 -38.313   1.719  0.00  0.00    +0.000 C 
ATOM     33  C   UNL     1     -11.442 -37.143  -3.780  0.00  0.00    +0.000 C 
ATOM     34  C   UNL     1     -11.124 -38.884  -1.978  0.00  0.00    +0.000 C 
ATOM     35  C   UNL     1     -10.518 -36.111  -3.833  0.00  0.00    +0.000 C 
ATOM     36  C   UNL     1      -6.930 -33.011  -3.645  0.00  0.00    +0.000 C 
ATOM     37  C   UNL     1      -7.292 -40.816   1.497  0.00  0.00    +0.000 C 
ATOM     38  C   UNL     1       0.643 -42.127  -2.406  0.00  0.00    +0.000 A 
ATOM     39  C   UNL     1      -6.161 -36.590  -6.303  0.00  0.00    +0.000 C 
ATOM     40  C   UNL     1       1.237 -40.328  -5.503  0.00  0.00    +0.000 C 
ATOM     41  C   UNL     1      -1.407 -41.334   0.535  0.00  0.00    +0.000 C 
ATOM     42  C   UNL     1      -4.942 -34.935  -7.563  0.00  0.00    +0.000 C 
ATOM     43  C   UNL     1       0.947 -43.515  -2.256  0.00  0.00    +0.000 A 
ATOM     44  C   UNL     1       2.940 -40.159  -6.100  0.00  0.00    +0.000 C 
ATOM     45  C   UNL     1      -5.307 -37.804  -6.164  0.00  0.00    +0.000 C 
ATOM     46  C   UNL     1      -0.436 -41.879   1.547  0.00  0.00    +0.000 C 
ATOM     47  C   UNL     1      -8.292 -40.831   2.516  0.00  0.00    +0.000 C 
ATOM     48  C   UNL     1       1.338 -41.717  -3.539  0.00  0.00    +0.000 A 
ATOM     49  C   UNL     1      -6.919 -41.871   0.730  0.00  0.00    +0.000 C 
ATOM     50  C   UNL     1      -0.356 -41.444  -0.362  0.00  0.00    +0.000 C 
ATOM     51  C   UNL     1       0.129 -40.230  -6.311  0.00  0.00    +0.000 C 
ATOM     52  C   UNL     1      -4.509 -41.943   0.252  0.00  0.00    +0.000 C 
ATOM     53  C   UNL     1       0.415 -44.500  -1.249  0.00  0.00    +0.000 C 
ATOM     54  C   UNL     1       1.764 -43.873  -3.297  0.00  0.00    +0.000 A 
ATOM     55  C   UNL     1      -3.269 -42.090   0.925  0.00  0.00    +0.000 C 
ATOM     56  C   UNL     1      -2.237 -39.993  -6.377  0.00  0.00    +0.000 C 
ATOM     57  C   UNL     1      -6.461 -38.024  -6.865  0.00  0.00    +0.000 C 
ATOM     58  C   UNL     1       2.682 -40.310  -4.762  0.00  0.00    +0.000 C 
ATOM     59  C   UNL     1      -8.916 -40.130   3.260  0.00  0.00    +0.000 C 
ATOM     60  C   UNL     1      -3.581 -39.305  -6.511  0.00  0.00    +0.000 C 
ATOM     61  C   UNL     1      -1.715 -43.403   1.308  0.00  0.00    +0.000 C 
ATOM     62  C   UNL     1      -6.522 -43.067  -0.154  0.00  0.00    +0.000 C 
ATOM     63  C   UNL     1      -2.927 -40.400  -7.470  0.00  0.00    +0.000 C 
ATOM     64  H   UNL     1      -6.476 -39.463   0.277  0.00  0.00    +0.000 HD
ATOM     65  H   UNL     1      -0.868 -40.781  -2.180  0.00  0.00    +0.000 HD
ATOM     66  H   UNL     1      -3.565 -37.771  -5.222  0.00  0.00    +0.000 HD
ATOM     67  H   UNL     1      -1.050 -39.729  -4.791  0.00  0.00    +0.000 HD
ATOM     68  C   UNL     1      -9.437 -37.494   1.530  0.00  0.00    +0.000 C 
ATOM     69  C   UNL     1      -9.956 -37.936   2.779  0.00  0.00    +0.000 C 
ATOM     70  C   UNL     1      -8.912 -38.713   3.478  0.00  0.00    +0.000 C 
ATOM     71  C   UNL     1      -8.167 -32.876  -1.489  0.00  0.00    +0.000 C 
ATOM     72  C   UNL     1      -8.061 -32.710  -0.172  0.00  0.00    +0.000 C 
ATOM     73  C   UNL     1      -7.484 -32.379  -2.603  0.00  0.00    +0.000 C 
ATOM     74  C   UNL     1      -5.819 -33.853  -7.246  0.00  0.00    +0.000 C 
ATOM     75  C   UNL     1      -5.717 -34.169  -8.593  0.00  0.00    +0.000 C 
ATOM     76  C   UNL     1      -5.078 -33.191  -9.602  0.00  0.00    +0.000 C 
ATOM     77  C   UNL     1      -5.266 -35.459  -8.800  0.00  0.00    +0.000 C 
ATOM     78  C   UNL     1      -0.262 -42.247   3.095  0.00  0.00    +0.000 C 
ATOM     79  C   UNL     1       0.763 -42.280   3.942  0.00  0.00    +0.000 C 
ATOM     80  C   UNL     1      -1.092 -43.204   2.508  0.00  0.00    +0.000 C 
ATOM     81  C   UNL     1       2.863 -40.030  -7.427  0.00  0.00    +0.000 C 
ATOM     82  C   UNL     1       4.075 -39.857  -8.282  0.00  0.00    +0.000 C 
ATOM     83  C   UNL     1       1.557 -40.037  -7.973  0.00  0.00    +0.000 C 
ENDROOT
BRANCH  69  84
ATOM     84  C   UNL     1     -11.323 -38.005   3.135  0.00  0.00    +0.000 C 
ATOM     85  C   UNL     1     -12.485 -38.069   3.432  0.00  0.00    +0.000 C 
BRANCH  85  86
ATOM     86  C   UNL     1     -13.969 -38.152   3.806  0.00  0.00    +0.000 C 
ATOM     87  C   UNL     1     -15.260 -38.222   4.126  0.00  0.00    +0.000 C 
ENDBRANCH  85  86
ENDBRANCH  69  84
BRANCH  13  88
ATOM     88  C   UNL     1      -6.918 -37.156  -1.044  0.00  0.00    +0.000 C 
BRANCH  88  89
ATOM     89  O   UNL     1      -5.715 -36.895  -1.535  0.00  0.00    +0.000 OA
ATOM     90  H   UNL     1      -5.046 -37.443  -1.087  0.00  0.00    +0.000 HD
ENDBRANCH  88  89
ENDBRANCH  13  88
TORSDOF 4
ENDMDL
MODEL 7
REMARK VINA RESULT:      -7.9      5.462     12.399
REMARK  Name = Cyclosporin_A.pdbqt.pdb
REMARK  4 active torsions:
REMARK  status: ('A' for Active; 'I' for Inactive)
REMARK    1  A    between atoms: N_13  and  C_36
REMARK    2  A    between atoms: C_36  and  O_70
REMARK    3  A    between atoms: C_72  and  C_73
REMARK    4  A    between atoms: C_75  and  C_76
REMARK                            x       y       z     vdW  Elec       q    Type
REMARK                         _______ _______ _______ _____ _____    ______ ____
ROOT
ATOM      1  O   UNL     1     -11.199 -39.056  -4.934  0.00  0.00    +0.000 OA
ATOM      2  O   UNL     1      -6.138 -39.568  -5.594  0.00  0.00    +0.000 OA
ATOM      3  O   UNL     1      -4.538 -35.384  -3.904  0.00  0.00    +0.000 OA
ATOM      4  O   UNL     1     -13.206 -34.611  -5.401  0.00  0.00    +0.000 OA
ATOM      5  O   UNL     1      -5.251 -39.793  -1.500  0.00  0.00    +0.000 OA
ATOM      6  O   UNL     1      -9.674 -33.754   6.930  0.00  0.00    +0.000 OA
ATOM      7  O   UNL     1     -14.955 -37.885  -1.240  0.00  0.00    +0.000 OA
ATOM      8  O   UNL     1     -12.440 -31.733   3.391  0.00  0.00    +0.000 OA
ATOM      9  O   UNL     1      -5.584 -36.034   5.683  0.00  0.00    +0.000 OA
ATOM     10  O   UNL     1     -14.914 -34.225   1.259  0.00  0.00    +0.000 OA
ATOM     11  O   UNL     1      -6.245 -39.034   2.655  0.00  0.00    +0.000 OA
ATOM     12  N   UNL     1      -7.779 -38.621  -5.192  0.00  0.00    +0.000 NA
ATOM     13  N   UNL     1     -10.279 -36.843  -4.730  0.00  0.00    +0.000 NA
ATOM     14  N   UNL     1      -4.937 -37.223  -4.536  0.00  0.00    +0.000 NA
ATOM     15  N   UNL     1      -4.428 -37.340  -1.399  0.00  0.00    +0.000 NA
ATOM     16  N   UNL     1     -12.673 -35.599  -3.235  0.00  0.00    +0.000 NA
ATOM     17  N   UNL     1      -8.138 -33.209   5.231  0.00  0.00    +0.000 N 
ATOM     18  N   UNL     1     -10.736 -33.330   3.540  0.00  0.00    +0.000 N 
ATOM     19  N   UNL     1     -13.116 -34.096   2.060  0.00  0.00    +0.000 NA
ATOM     20  N   UNL     1     -13.075 -36.852  -0.482  0.00  0.00    +0.000 NA
ATOM     21  N   UNL     1      -6.422 -37.373   0.818  0.00  0.00    +0.000 NA
ATOM     22  N   UNL     1      -7.207 -35.857   3.902  0.00  0.00    +0.000 NA
ATOM     23  C   UNL     1      -8.996 -39.075  -4.775  0.00  0.00    +0.000 C 
ATOM     24  C   UNL     1      -6.270 -37.273  -4.614  0.00  0.00    +0.000 C 
ATOM     25  C   UNL     1     -11.349 -36.167  -5.284  0.00  0.00    +0.000 C 
ATOM     26  C   UNL     1      -9.417 -40.383  -4.938  0.00  0.00    +0.000 C 
ATOM     27  C   UNL     1      -6.450 -36.040  -5.414  0.00  0.00    +0.000 C 
ATOM     28  C   UNL     1     -10.083 -38.226  -4.787  0.00  0.00    +0.000 C 
ATOM     29  C   UNL     1      -6.450 -38.600  -4.810  0.00  0.00    +0.000 C 
ATOM     30  C   UNL     1      -4.077 -37.459  -2.649  0.00  0.00    +0.000 C 
ATOM     31  C   UNL     1      -4.776 -36.553  -3.390  0.00  0.00    +0.000 C 
ATOM     32  C   UNL     1     -12.246 -35.239  -4.532  0.00  0.00    +0.000 C 
ATOM     33  C   UNL     1      -8.332 -40.903  -5.709  0.00  0.00    +0.000 C 
ATOM     34  C   UNL     1     -10.742 -40.328  -5.218  0.00  0.00    +0.000 C 
ATOM     35  C   UNL     1      -7.414 -39.864  -5.676  0.00  0.00    +0.000 C 
ATOM     36  C   UNL     1      -4.757 -35.965  -5.173  0.00  0.00    +0.000 C 
ATOM     37  C   UNL     1     -13.831 -36.360  -2.936  0.00  0.00    +0.000 C 
ATOM     38  C   UNL     1     -10.623 -33.486   4.898  0.00  0.00    +0.000 A 
ATOM     39  C   UNL     1      -5.258 -38.378  -1.380  0.00  0.00    +0.000 C 
ATOM     40  C   UNL     1      -7.110 -34.135   5.542  0.00  0.00    +0.000 C 
ATOM     41  C   UNL     1     -12.482 -32.931   1.781  0.00  0.00    +0.000 C 
ATOM     42  C   UNL     1      -3.015 -37.579  -1.007  0.00  0.00    +0.000 C 
ATOM     43  C   UNL     1     -11.639 -33.735   5.870  0.00  0.00    +0.000 A 
ATOM     44  C   UNL     1      -6.276 -33.201   6.851  0.00  0.00    +0.000 C 
ATOM     45  C   UNL     1      -6.049 -38.173  -0.133  0.00  0.00    +0.000 C 
ATOM     46  C   UNL     1     -13.395 -31.871   2.336  0.00  0.00    +0.000 C 
ATOM     47  C   UNL     1     -14.728 -36.489  -4.039  0.00  0.00    +0.000 C 
ATOM     48  C   UNL     1      -9.426 -33.482   5.606  0.00  0.00    +0.000 A 
ATOM     49  C   UNL     1     -13.964 -36.958  -1.726  0.00  0.00    +0.000 C 
ATOM     50  C   UNL     1     -11.749 -32.744   2.941  0.00  0.00    +0.000 C 
ATOM     51  C   UNL     1      -6.674 -35.353   5.074  0.00  0.00    +0.000 C 
ATOM     52  C   UNL     1     -13.255 -35.546   0.158  0.00  0.00    +0.000 C 
ATOM     53  C   UNL     1     -13.119 -33.925   5.671  0.00  0.00    +0.000 C 
ATOM     54  C   UNL     1     -11.019 -33.897   7.083  0.00  0.00    +0.000 A 
ATOM     55  C   UNL     1     -13.608 -34.332   0.803  0.00  0.00    +0.000 C 
ATOM     56  C   UNL     1      -6.880 -36.982   3.353  0.00  0.00    +0.000 C 
ATOM     57  C   UNL     1      -5.917 -39.488  -0.487  0.00  0.00    +0.000 C 
ATOM     58  C   UNL     1      -7.359 -32.670   6.197  0.00  0.00    +0.000 C 
ATOM     59  C   UNL     1     -14.868 -36.225  -5.199  0.00  0.00    +0.000 C 
ATOM     60  C   UNL     1      -6.546 -37.742   2.085  0.00  0.00    +0.000 C 
ATOM     61  C   UNL     1     -14.514 -33.528   2.481  0.00  0.00    +0.000 C 
ATOM     62  C   UNL     1     -14.110 -37.662  -0.364  0.00  0.00    +0.000 C 
ATOM     63  C   UNL     1      -6.524 -38.267   3.592  0.00  0.00    +0.000 C 
ATOM     64  H   UNL     1     -11.896 -35.945  -2.672  0.00  0.00    +0.000 HD
ATOM     65  H   UNL     1     -10.111 -33.895   2.970  0.00  0.00    +0.000 HD
ATOM     66  H   UNL     1      -6.375 -36.375   0.630  0.00  0.00    +0.000 HD
ATOM     67  H   UNL     1      -7.593 -35.115   3.327  0.00  0.00    +0.000 HD
ATOM     68  C   UNL     1     -11.922 -36.546  -6.394  0.00  0.00    +0.000 C 
ATOM     69  C   UNL     1     -13.191 -36.370  -7.013  0.00  0.00    +0.000 C 
ATOM     70  C   UNL     1     -14.034 -35.532  -6.136  0.00  0.00    +0.000 C 
ATOM     71  C   UNL     1      -6.383 -35.547  -7.011  0.00  0.00    +0.000 C 
ATOM     72  C   UNL     1      -7.167 -34.643  -7.597  0.00  0.00    +0.000 C 
ATOM     73  C   UNL     1      -5.141 -35.505  -6.371  0.00  0.00    +0.000 C 
ATOM     74  C   UNL     1      -2.638 -37.589  -2.385  0.00  0.00    +0.000 C 
ATOM     75  C   UNL     1      -1.901 -38.421  -1.553  0.00  0.00    +0.000 C 
ATOM     76  C   UNL     1      -0.405 -38.159  -1.276  0.00  0.00    +0.000 C 
ATOM     77  C   UNL     1      -2.574 -38.734  -0.387  0.00  0.00    +0.000 C 
ATOM     78  C   UNL     1     -14.699 -31.000   2.017  0.00  0.00    +0.000 C 
ATOM     79  C   UNL     1     -15.131 -29.793   2.373  0.00  0.00    +0.000 C 
ATOM     80  C   UNL     1     -15.102 -32.311   2.275  0.00  0.00    +0.000 C 
ATOM     81  C   UNL     1      -5.275 -33.970   7.286  0.00  0.00    +0.000 C 
ATOM     82  C   UNL     1      -4.346 -33.532   8.369  0.00  0.00    +0.000 C 
ATOM     83  C   UNL     1      -5.130 -35.219   6.635  0.00  0.00    +0.000 C 
ENDROOT
BRANCH  69  84
ATOM     84  C   UNL     1     -13.728 -37.165  -8.053  0.00  0.00    +0.000 C 
ATOM     85  C   UNL     1     -14.177 -37.845  -8.935  0.00  0.00    +0.000 C 
BRANCH  85  86
ATOM     86  C   UNL     1     -14.746 -38.714 -10.061  0.00  0.00    +0.000 C 
ATOM     87  C   UNL     1     -15.242 -39.474 -11.037  0.00  0.00    +0.000 C 
ENDBRANCH  85  86
ENDBRANCH  69  84
BRANCH  13  88
ATOM     88  C   UNL     1      -9.450 -36.104  -3.791  0.00  0.00    +0.000 C 
BRANCH  88  89
ATOM     89  O   UNL     1      -8.714 -35.426  -2.922  0.00  0.00    +0.000 OA
ATOM     90  H   UNL     1      -8.195 -36.041  -2.373  0.00  0.00    +0.000 HD
ENDBRANCH  88  89
ENDBRANCH  13  88
TORSDOF 4
ENDMDL
MODEL 8
REMARK VINA RESULT:      -7.9     16.276     23.668
REMARK  Name = Cyclosporin_A.pdbqt.pdb
REMARK  4 active torsions:
REMARK  status: ('A' for Active; 'I' for Inactive)
REMARK    1  A    between atoms: N_13  and  C_36
REMARK    2  A    between atoms: C_36  and  O_70
REMARK    3  A    between atoms: C_72  and  C_73
REMARK    4  A    between atoms: C_75  and  C_76
REMARK                            x       y       z     vdW  Elec       q    Type
REMARK                         _______ _______ _______ _____ _____    ______ ____
ROOT
ATOM      1  O   UNL     1     -13.159 -28.384   7.793  0.00  0.00    +0.000 OA
ATOM      2  O   UNL     1     -10.158 -32.044   9.772  0.00  0.00    +0.000 OA
ATOM      3  O   UNL     1      -5.806 -30.430   8.603  0.00  0.00    +0.000 OA
ATOM      4  O   UNL     1     -11.743 -26.138   3.674  0.00  0.00    +0.000 OA
ATOM      5  O   UNL     1      -8.551 -29.614  12.789  0.00  0.00    +0.000 OA
ATOM      6  O   UNL     1      -5.286 -18.847  12.064  0.00  0.00    +0.000 OA
ATOM      7  O   UNL     1     -13.970 -23.049   7.748  0.00  0.00    +0.000 OA
ATOM      8  O   UNL     1      -6.859 -19.185   7.408  0.00  0.00    +0.000 OA
ATOM      9  O   UNL     1      -4.295 -22.920  14.496  0.00  0.00    +0.000 OA
ATOM     10  O   UNL     1     -10.823 -20.074   6.804  0.00  0.00    +0.000 OA
ATOM     11  O   UNL     1      -7.584 -25.710  14.418  0.00  0.00    +0.000 OA
ATOM     12  N   UNL     1     -10.562 -30.473   8.714  0.00  0.00    +0.000 NA
ATOM     13  N   UNL     1     -10.997 -28.085   6.781  0.00  0.00    +0.000 NA
ATOM     14  N   UNL     1      -7.476 -31.238   9.307  0.00  0.00    +0.000 NA
ATOM     15  N   UNL     1      -6.326 -29.257  11.513  0.00  0.00    +0.000 NA
ATOM     16  N   UNL     1     -11.424 -25.164   5.887  0.00  0.00    +0.000 NA
ATOM     17  N   UNL     1      -4.328 -20.847  11.271  0.00  0.00    +0.000 N 
ATOM     18  N   UNL     1      -6.688 -20.590   9.272  0.00  0.00    +0.000 N 
ATOM     19  N   UNL     1      -9.263 -20.511   7.929  0.00  0.00    +0.000 NA
ATOM     20  N   UNL     1     -11.767 -23.282   8.265  0.00  0.00    +0.000 NA
ATOM     21  N   UNL     1      -7.119 -26.441  12.092  0.00  0.00    +0.000 NA
ATOM     22  N   UNL     1      -5.803 -23.216  12.633  0.00  0.00    +0.000 NA
ATOM     23  C   UNL     1     -11.594 -29.584   8.789  0.00  0.00    +0.000 C 
ATOM     24  C   UNL     1      -8.459 -30.519   8.757  0.00  0.00    +0.000 C 
ATOM     25  C   UNL     1     -11.449 -27.646   5.552  0.00  0.00    +0.000 C 
ATOM     26  C   UNL     1     -12.798 -29.865   9.410  0.00  0.00    +0.000 C 
ATOM     27  C   UNL     1      -7.991 -30.616   7.356  0.00  0.00    +0.000 C 
ATOM     28  C   UNL     1     -11.792 -28.679   7.766  0.00  0.00    +0.000 C 
ATOM     29  C   UNL     1      -9.517 -30.974   9.468  0.00  0.00    +0.000 C 
ATOM     30  C   UNL     1      -6.509 -30.428  10.969  0.00  0.00    +0.000 C 
ATOM     31  C   UNL     1      -6.602 -30.276   9.617  0.00  0.00    +0.000 C 
ATOM     32  C   UNL     1     -11.250 -26.264   5.020  0.00  0.00    +0.000 C 
ATOM     33  C   UNL     1     -12.601 -31.244   9.727  0.00  0.00    +0.000 C 
ATOM     34  C   UNL     1     -13.762 -29.266   8.668  0.00  0.00    +0.000 C 
ATOM     35  C   UNL     1     -11.266 -31.439   9.409  0.00  0.00    +0.000 C 
ATOM     36  C   UNL     1      -6.696 -31.422   8.133  0.00  0.00    +0.000 C 
ATOM     37  C   UNL     1     -12.650 -24.493   6.123  0.00  0.00    +0.000 C 
ATOM     38  C   UNL     1      -6.335 -19.702  10.255  0.00  0.00    +0.000 A 
ATOM     39  C   UNL     1      -7.586 -29.076  11.897  0.00  0.00    +0.000 C 
ATOM     40  C   UNL     1      -4.139 -21.519  12.505  0.00  0.00    +0.000 C 
ATOM     41  C   UNL     1      -8.129 -20.727   7.221  0.00  0.00    +0.000 C 
ATOM     42  C   UNL     1      -5.391 -29.883  12.484  0.00  0.00    +0.000 C 
ATOM     43  C   UNL     1      -6.936 -18.457  10.612  0.00  0.00    +0.000 A 
ATOM     44  C   UNL     1      -2.576 -20.753  13.006  0.00  0.00    +0.000 C 
ATOM     45  C   UNL     1      -7.653 -27.618  12.203  0.00  0.00    +0.000 C 
ATOM     46  C   UNL     1      -7.908 -19.441   6.473  0.00  0.00    +0.000 C 
ATOM     47  C   UNL     1     -13.667 -24.816   5.175  0.00  0.00    +0.000 C 
ATOM     48  C   UNL     1      -5.301 -19.889  11.168  0.00  0.00    +0.000 A 
ATOM     49  C   UNL     1     -12.802 -23.707   7.218  0.00  0.00    +0.000 C 
ATOM     50  C   UNL     1      -7.171 -20.247   8.099  0.00  0.00    +0.000 C 
ATOM     51  C   UNL     1      -4.772 -22.508  13.221  0.00  0.00    +0.000 C 
ATOM     52  C   UNL     1     -10.850 -22.291   7.696  0.00  0.00    +0.000 C 
ATOM     53  C   UNL     1      -8.147 -17.783  10.024  0.00  0.00    +0.000 C 
ATOM     54  C   UNL     1      -6.274 -17.979  11.714  0.00  0.00    +0.000 A 
ATOM     55  C   UNL     1     -10.112 -21.222   7.123  0.00  0.00    +0.000 C 
ATOM     56  C   UNL     1      -6.473 -24.170  13.193  0.00  0.00    +0.000 C 
ATOM     57  C   UNL     1      -8.530 -28.373  12.934  0.00  0.00    +0.000 C 
ATOM     58  C   UNL     1      -3.161 -20.426  11.809  0.00  0.00    +0.000 C 
ATOM     59  C   UNL     1     -13.913 -25.508   4.228  0.00  0.00    +0.000 C 
ATOM     60  C   UNL     1      -7.097 -25.547  13.069  0.00  0.00    +0.000 C 
ATOM     61  C   UNL     1      -9.743 -19.189   7.239  0.00  0.00    +0.000 C 
ATOM     62  C   UNL     1     -12.990 -22.834   8.473  0.00  0.00    +0.000 C 
ATOM     63  C   UNL     1      -7.009 -24.610  14.358  0.00  0.00    +0.000 C 
ATOM     64  H   UNL     1     -10.955 -25.319   6.780  0.00  0.00    +0.000 HD
ATOM     65  H   UNL     1      -6.785 -21.561   9.559  0.00  0.00    +0.000 HD
ATOM     66  H   UNL     1      -6.477 -26.295  11.316  0.00  0.00    +0.000 HD
ATOM     67  H   UNL     1      -5.740 -23.179  11.620  0.00  0.00    +0.000 HD
ATOM     68  C   UNL     1     -12.407 -28.245   4.899  0.00  0.00    +0.000 C 
ATOM     69  C   UNL     1     -13.346 -27.893   3.890  0.00  0.00    +0.000 C 
ATOM     70  C   UNL     1     -13.135 -26.480   3.518  0.00  0.00    +0.000 C 
ATOM     71  C   UNL     1      -8.062 -31.682   6.069  0.00  0.00    +0.000 C 
ATOM     72  C   UNL     1      -8.173 -31.366   4.780  0.00  0.00    +0.000 C 
ATOM     73  C   UNL     1      -6.992 -31.934   6.932  0.00  0.00    +0.000 C 
ATOM     74  C   UNL     1      -5.520 -31.130  11.798  0.00  0.00    +0.000 C 
ATOM     75  C   UNL     1      -5.325 -31.214  13.170  0.00  0.00    +0.000 C 
ATOM     76  C   UNL     1      -4.034 -31.817  13.764  0.00  0.00    +0.000 C 
ATOM     77  C   UNL     1      -5.676 -30.050  13.826  0.00  0.00    +0.000 C 
ATOM     78  C   UNL     1      -8.328 -18.627   5.160  0.00  0.00    +0.000 C 
ATOM     79  C   UNL     1      -7.731 -17.727   4.383  0.00  0.00    +0.000 C 
ATOM     80  C   UNL     1      -9.404 -18.609   6.048  0.00  0.00    +0.000 C 
ATOM     81  C   UNL     1      -2.268 -21.269  14.198  0.00  0.00    +0.000 C 
ATOM     82  C   UNL     1      -1.029 -20.882  14.937  0.00  0.00    +0.000 C 
ATOM     83  C   UNL     1      -3.175 -22.229  14.708  0.00  0.00    +0.000 C 
ENDROOT
BRANCH  69  84
ATOM     84  C   UNL     1     -14.536 -28.593   3.579  0.00  0.00    +0.000 C 
ATOM     85  C   UNL     1     -15.547 -29.182   3.307  0.00  0.00    +0.000 C 
BRANCH  85  86
ATOM     86  C   UNL     1     -16.838 -29.930   2.959  0.00  0.00    +0.000 C 
ATOM     87  C   UNL     1     -17.958 -30.585   2.659  0.00  0.00    +0.000 C 
ENDBRANCH  85  86
ENDBRANCH  69  84
BRANCH  13  88
ATOM     88  C   UNL     1      -9.670 -27.652   7.187  0.00  0.00    +0.000 C 
BRANCH  88  89
ATOM     89  O   UNL     1      -8.453 -27.280   7.563  0.00  0.00    +0.000 OA
ATOM     90  H   UNL     1      -8.040 -27.983   8.096  0.00  0.00    +0.000 HD
ENDBRANCH  88  89
ENDBRANCH  13  88
TORSDOF 4
ENDMDL
MODEL 9
REMARK VINA RESULT:      -7.9     21.778     25.379
REMARK  Name = Cyclosporin_A.pdbqt.pdb
REMARK  4 active torsions:
REMARK  status: ('A' for Active; 'I' for Inactive)
REMARK    1  A    between atoms: N_13  and  C_36
REMARK    2  A    between atoms: C_36  and  O_70
REMARK    3  A    between atoms: C_72  and  C_73
REMARK    4  A    between atoms: C_75  and  C_76
REMARK                            x       y       z     vdW  Elec       q    Type
REMARK                         _______ _______ _______ _____ _____    ______ ____
ROOT
ATOM      1  O   UNL     1      -3.755 -16.283   9.534  0.00  0.00    +0.000 OA
ATOM      2  O   UNL     1      -1.641 -14.395   5.259  0.00  0.00    +0.000 OA
ATOM      3  O   UNL     1      -2.871 -17.725   2.048  0.00  0.00    +0.000 OA
ATOM      4  O   UNL     1      -3.978 -21.143  10.113  0.00  0.00    +0.000 OA
ATOM      5  O   UNL     1      -5.294 -13.482   3.411  0.00  0.00    +0.000 OA
ATOM      6  O   UNL     1     -14.761 -19.604   3.286  0.00  0.00    +0.000 OA
ATOM      7  O   UNL     1      -8.404 -18.092  11.594  0.00  0.00    +0.000 OA
ATOM      8  O   UNL     1     -12.219 -22.711   6.141  0.00  0.00    +0.000 OA
ATOM      9  O   UNL     1     -12.334 -16.381   0.603  0.00  0.00    +0.000 OA
ATOM     10  O   UNL     1     -10.852 -21.291   9.745  0.00  0.00    +0.000 OA
ATOM     11  O   UNL     1      -9.573 -14.047   2.955  0.00  0.00    +0.000 OA
ATOM     12  N   UNL     1      -2.521 -15.729   6.353  0.00  0.00    +0.000 NA
ATOM     13  N   UNL     1      -3.725 -18.098   7.955  0.00  0.00    +0.000 NA
ATOM     14  N   UNL     1      -2.349 -16.161   3.152  0.00  0.00    +0.000 NA
ATOM     15  N   UNL     1      -5.199 -15.564   1.874  0.00  0.00    +0.000 NA
ATOM     16  N   UNL     1      -5.875 -19.816   9.347  0.00  0.00    +0.000 NA
ATOM     17  N   UNL     1     -12.699 -19.858   2.178  0.00  0.00    +0.000 N 
ATOM     18  N   UNL     1     -11.835 -20.681   5.042  0.00  0.00    +0.000 N 
ATOM     19  N   UNL     1     -11.097 -20.805   7.849  0.00  0.00    +0.000 NA
ATOM     20  N   UNL     1      -8.601 -18.446   9.355  0.00  0.00    +0.000 NA
ATOM     21  N   UNL     1      -7.899 -15.875   3.100  0.00  0.00    +0.000 NA
ATOM     22  N   UNL     1     -11.106 -17.213   2.510  0.00  0.00    +0.000 NA
ATOM     23  C   UNL     1      -3.265 -15.606   7.490  0.00  0.00    +0.000 C 
ATOM     24  C   UNL     1      -2.661 -16.510   4.404  0.00  0.00    +0.000 C 
ATOM     25  C   UNL     1      -3.519 -19.111   8.872  0.00  0.00    +0.000 C 
ATOM     26  C   UNL     1      -3.207 -14.504   8.322  0.00  0.00    +0.000 C 
ATOM     27  C   UNL     1      -1.972 -17.820   4.403  0.00  0.00    +0.000 C 
ATOM     28  C   UNL     1      -3.586 -16.732   8.220  0.00  0.00    +0.000 C 
ATOM     29  C   UNL     1      -2.500 -15.321   5.031  0.00  0.00    +0.000 C 
ATOM     30  C   UNL     1      -3.898 -15.483   1.930  0.00  0.00    +0.000 C 
ATOM     31  C   UNL     1      -3.410 -16.628   2.488  0.00  0.00    +0.000 C 
ATOM     32  C   UNL     1      -4.518 -20.173   9.198  0.00  0.00    +0.000 C 
ATOM     33  C   UNL     1      -2.144 -13.777   7.704  0.00  0.00    +0.000 C 
ATOM     34  C   UNL     1      -3.326 -14.971   9.589  0.00  0.00    +0.000 C 
ATOM     35  C   UNL     1      -1.928 -14.494   6.537  0.00  0.00    +0.000 C 
ATOM     36  C   UNL     1      -1.710 -17.373   2.771  0.00  0.00    +0.000 C 
ATOM     37  C   UNL     1      -6.483 -19.397  10.557  0.00  0.00    +0.000 C 
ATOM     38  C   UNL     1     -13.098 -20.354   4.619  0.00  0.00    +0.000 A 
ATOM     39  C   UNL     1      -5.438 -14.816   2.946  0.00  0.00    +0.000 C 
ATOM     40  C   UNL     1     -12.679 -18.645   1.444  0.00  0.00    +0.000 C 
ATOM     41  C   UNL     1     -10.668 -21.758   6.987  0.00  0.00    +0.000 C 
ATOM     42  C   UNL     1      -5.158 -14.884   0.554  0.00  0.00    +0.000 C 
ATOM     43  C   UNL     1     -14.319 -20.308   5.359  0.00  0.00    +0.000 A 
ATOM     44  C   UNL     1     -13.707 -19.150   0.039  0.00  0.00    +0.000 C 
ATOM     45  C   UNL     1      -6.866 -15.108   3.266  0.00  0.00    +0.000 C 
ATOM     46  C   UNL     1     -11.485 -22.971   7.340  0.00  0.00    +0.000 C 
ATOM     47  C   UNL     1      -5.687 -19.654  11.713  0.00  0.00    +0.000 C 
ATOM     48  C   UNL     1     -13.427 -19.933   3.335  0.00  0.00    +0.000 A 
ATOM     49  C   UNL     1      -7.669 -18.737  10.535  0.00  0.00    +0.000 C 
ATOM     50  C   UNL     1     -11.568 -21.597   5.946  0.00  0.00    +0.000 C 
ATOM     51  C   UNL     1     -12.081 -17.411   1.550  0.00  0.00    +0.000 C 
ATOM     52  C   UNL     1      -9.291 -19.671   8.941  0.00  0.00    +0.000 C 
ATOM     53  C   UNL     1     -14.556 -20.580   6.820  0.00  0.00    +0.000 C 
ATOM     54  C   UNL     1     -15.295 -19.843   4.515  0.00  0.00    +0.000 A 
ATOM     55  C   UNL     1     -10.034 -20.858   8.712  0.00  0.00    +0.000 C 
ATOM     56  C   UNL     1     -10.464 -16.108   2.709  0.00  0.00    +0.000 C 
ATOM     57  C   UNL     1      -6.463 -13.857   3.648  0.00  0.00    +0.000 C 
ATOM     58  C   UNL     1     -13.407 -20.040   1.039  0.00  0.00    +0.000 C 
ATOM     59  C   UNL     1      -4.623 -20.071  12.074  0.00  0.00    +0.000 C 
ATOM     60  C   UNL     1      -9.140 -15.423   2.984  0.00  0.00    +0.000 C 
ATOM     61  C   UNL     1     -11.918 -21.706   8.834  0.00  0.00    +0.000 C 
ATOM     62  C   UNL     1      -9.000 -17.964  10.517  0.00  0.00    +0.000 C 
ATOM     63  C   UNL     1     -10.565 -14.756   2.718  0.00  0.00    +0.000 C 
ATOM     64  H   UNL     1      -6.181 -19.200   8.593  0.00  0.00    +0.000 HD
ATOM     65  H   UNL     1     -11.097 -20.024   4.801  0.00  0.00    +0.000 HD
ATOM     66  H   UNL     1      -7.725 -16.830   2.799  0.00  0.00    +0.000 HD
ATOM     67  H   UNL     1     -10.682 -18.093   2.788  0.00  0.00    +0.000 HD
ATOM     68  C   UNL     1      -2.617 -19.037   9.812  0.00  0.00    +0.000 C 
ATOM     69  C   UNL     1      -2.397 -19.640  11.082  0.00  0.00    +0.000 C 
ATOM     70  C   UNL     1      -3.497 -20.587  11.353  0.00  0.00    +0.000 C 
ATOM     71  C   UNL     1      -0.434 -18.441   4.622  0.00  0.00    +0.000 C 
ATOM     72  C   UNL     1      -0.118 -19.591   5.216  0.00  0.00    +0.000 C 
ATOM     73  C   UNL     1      -0.685 -18.051   3.304  0.00  0.00    +0.000 C 
ATOM     74  C   UNL     1      -3.730 -14.912   0.587  0.00  0.00    +0.000 C 
ATOM     75  C   UNL     1      -4.295 -13.818  -0.053  0.00  0.00    +0.000 C 
ATOM     76  C   UNL     1      -4.130 -13.601  -1.572  0.00  0.00    +0.000 C 
ATOM     77  C   UNL     1      -5.600 -13.591   0.341  0.00  0.00    +0.000 C 
ATOM     78  C   UNL     1     -11.576 -24.213   8.345  0.00  0.00    +0.000 C 
ATOM     79  C   UNL     1     -12.065 -25.448   8.269  0.00  0.00    +0.000 C 
ATOM     80  C   UNL     1     -11.915 -23.056   9.048  0.00  0.00    +0.000 C 
ATOM     81  C   UNL     1     -13.816 -18.081  -0.752  0.00  0.00    +0.000 C 
ATOM     82  C   UNL     1     -14.590 -18.111  -2.029  0.00  0.00    +0.000 C 
ATOM     83  C   UNL     1     -13.128 -16.921  -0.321  0.00  0.00    +0.000 C 
ENDROOT
BRANCH  69  84
ATOM     84  C   UNL     1      -1.544 -19.152  12.100  0.00  0.00    +0.000 C 
ATOM     85  C   UNL     1      -0.814 -18.741  12.960  0.00  0.00    +0.000 C 
BRANCH  85  86
ATOM     86  C   UNL     1       0.121 -18.221  14.057  0.00  0.00    +0.000 C 
ATOM     87  C   UNL     1       0.930 -17.765  15.012  0.00  0.00    +0.000 C 
ENDBRANCH  85  86
ENDBRANCH  69  84
BRANCH  13  88
ATOM     88  C   UNL     1      -4.395 -18.457   6.717  0.00  0.00    +0.000 C 
BRANCH  88  89
ATOM     89  O   UNL     1      -5.015 -18.806   5.598  0.00  0.00    +0.000 OA
ATOM     90  H   UNL     1      -5.100 -18.034   5.010  0.00  0.00    +0.000 HD
ENDBRANCH  88  89
ENDBRANCH  13  88
TORSDOF 4
ENDMDL
